@<TRIPOS>MOLECULE
KBT
   49    50     1     0     0
SMALL
bcc


@<TRIPOS>ATOM
      1 C1          2.9500    1.8710   -0.0360 c3        1 KBT     -0.111400
      2 C2          3.1840    3.3050   -0.4590 c3        1 KBT     -0.075400
      3 C3          4.1730    3.9860    0.4520 c3        1 KBT     -0.093100
      4 C4          1.9360    1.2160   -0.9750 c3        1 KBT      0.089000
      5 N5          1.6450   -0.1770   -0.6850 n         1 KBT     -0.359000
      6 C6          0.7620   -0.5370    0.3330 cc        1 KBT      0.017400
      7 C7         -0.0330    0.5730    0.9780 c         1 KBT      0.589900
      8 O8          0.4090    1.1560    1.9720 o         1 KBT     -0.494100
      9 C9         -1.3310    0.9090    0.3620 ca        1 KBT     -0.182600
     10 C10        -1.8490    0.1680   -0.7040 ca        1 KBT     -0.048000
     11 C11        -3.0820    0.5300   -1.2630 ca        1 KBT     -0.022000
     12 C12        -3.6110   -0.2180   -2.3500 cg        1 KBT      0.225800
     13 N13        -4.0470   -0.8270   -3.2400 n1        1 KBT     -0.343800
     14 C14        -3.7960    1.6240   -0.7560 ca        1 KBT     -0.061000
     15 C15        -3.2820    2.3620    0.3150 ca        1 KBT     -0.090300
     16 C16        -4.0440    3.5060    0.8650 c3        1 KBT     -0.059800
     17 C17        -2.0500    2.0000    0.8710 ca        1 KBT     -0.055000
     18 C18         0.5990   -1.8320    0.7440 cd        1 KBT     -0.218400
     19 C19        -0.3710   -2.2190    1.8140 c3        1 KBT      0.001500
     20 C20        -1.4290   -3.1650    1.2740 c3        1 KBT     -0.096600
     21 C21         0.3420   -2.8380    3.0020 c3        1 KBT     -0.096600
     22 C22         1.4090   -2.9010    0.1210 c         1 KBT      0.719700
     23 O23         1.3600   -4.1090    0.4060 o         1 KBT     -0.605500
     24 N24         2.3080   -2.5010   -0.8810 n         1 KBT     -0.584500
     25 C25         2.4730   -1.1690   -1.2790 c         1 KBT      0.804500
     26 O26         3.3070   -0.8690   -2.1590 o         1 KBT     -0.632500
     27 H1          3.9180    1.3050   -0.0680 hc        1 KBT      0.062200
     28 H1A         2.5710    1.8420    1.0200 hc        1 KBT      0.062200
     29 H2          3.5670    3.3290   -1.5140 hc        1 KBT      0.040700
     30 H2A         2.2120    3.8660   -0.4460 hc        1 KBT      0.040700
     31 H3          3.8000    3.9920    1.5050 hc        1 KBT      0.037367
     32 H3A         5.1560    3.4570    0.4320 hc        1 KBT      0.037367
     33 H3B         4.3330    5.0420    0.1280 hc        1 KBT      0.037367
     34 H4          0.9630    1.7850   -0.9300 h1        1 KBT      0.074700
     35 H4A         2.3280    1.2670   -2.0330 h1        1 KBT      0.074700
     36 H10        -1.2980   -0.7010   -1.1020 ha        1 KBT      0.160000
     37 H14        -4.7630    1.9030   -1.2020 ha        1 KBT      0.153000
     38 H16        -4.7690    3.1440    1.6380 hc        1 KBT      0.053700
     39 H16A       -3.3610    4.2490    1.3470 hc        1 KBT      0.053700
     40 H16B       -4.6210    4.0250    0.0610 hc        1 KBT      0.053700
     41 H17        -1.6330    2.5720    1.7180 ha        1 KBT      0.162000
     42 H19        -0.8960   -1.2860    2.1780 hc        1 KBT      0.044700
     43 H20        -0.9600   -4.1200    0.9300 hc        1 KBT      0.046033
     44 H20A       -2.1690   -3.3990    2.0760 hc        1 KBT      0.046033
     45 H20B       -1.9670   -2.6990    0.4150 hc        1 KBT      0.046033
     46 H21         1.0980   -2.1290    3.4160 hc        1 KBT      0.046033
     47 H21A       -0.4000   -3.0780    3.8010 hc        1 KBT      0.046033
     48 H21B        0.8590   -3.7810    2.6990 hc        1 KBT      0.046033
     49 HN24        2.8860   -3.1830   -1.3250 hn        1 KBT      0.355500
@<TRIPOS>BOND
     1    1    2 1   
     2    1    4 1   
     3    1   27 1   
     4    1   28 1   
     5    2    3 1   
     6    2   29 1   
     7    2   30 1   
     8    3   31 1   
     9    3   32 1   
    10    3   33 1   
    11    4    5 1   
    12    4   34 1   
    13    4   35 1   
    14    5    6 1   
    15    5   25 1   
    16    6    7 1   
    17    6   18 2   
    18    7    8 2   
    19    7    9 1   
    20    9   10 ar  
    21    9   17 ar  
    22   10   11 ar  
    23   10   36 1   
    24   11   12 1   
    25   11   14 ar  
    26   12   13 3   
    27   14   15 ar  
    28   14   37 1   
    29   15   16 1   
    30   15   17 ar  
    31   16   38 1   
    32   16   39 1   
    33   16   40 1   
    34   17   41 1   
    35   18   19 1   
    36   18   22 1   
    37   19   20 1   
    38   19   21 1   
    39   19   42 1   
    40   20   43 1   
    41   20   44 1   
    42   20   45 1   
    43   21   46 1   
    44   21   47 1   
    45   21   48 1   
    46   22   23 2   
    47   22   24 1   
    48   24   25 1   
    49   24   49 1   
    50   25   26 2   
@<TRIPOS>SUBSTRUCTURE
     1 KBT         1 TEMP              0 ****  ****    0 ROOT
