@<TRIPOS>MOLECULE
KBT
   49    50     1     0     0
SMALL
bcc


@<TRIPOS>ATOM
      1 C1         -0.0710    0.2670   -0.1540 c3        1 KBT     -0.111400
      2 C2          1.4420    0.3090   -0.1840 c3        1 KBT     -0.075400
      3 C3          2.0090    0.4710    1.2030 c3        1 KBT     -0.093100
      4 C4         -0.6100    0.1130   -1.5760 c3        1 KBT      0.089000
      5 N5         -2.0570    0.0350   -1.6770 n         1 KBT     -0.359000
      6 C6         -2.8500    1.1800   -1.6230 cc        1 KBT      0.017400
      7 C7         -2.1400    2.5120   -1.6670 c         1 KBT      0.589900
      8 O8         -1.7910    3.0640   -0.6200 o         1 KBT     -0.494100
      9 C9         -1.8930    3.0920   -3.0010 ca        1 KBT     -0.182600
     10 C10        -2.3860    2.4910   -4.1630 ca        1 KBT     -0.048000
     11 C11        -2.1210    3.0750   -5.4090 ca        1 KBT     -0.022000
     12 C12        -2.6180    2.4680   -6.5940 cg        1 KBT      0.225800
     13 N13        -3.0240    1.9730   -7.5660 n1        1 KBT     -0.343800
     14 C14        -1.3690    4.2550   -5.4930 ca        1 KBT     -0.061000
     15 C15        -0.8790    4.8590   -4.3300 ca        1 KBT     -0.090300
     16 C16        -0.0760    6.1010   -4.4180 c3        1 KBT     -0.059800
     17 C17        -1.1450    4.2750   -3.0880 ca        1 KBT     -0.055000
     18 C18        -4.2160    1.1280   -1.5400 cd        1 KBT     -0.218400
     19 C19        -5.0660    2.3580   -1.5140 c3        1 KBT      0.000500
     20 C20        -6.0010    2.3990   -2.7090 c3        1 KBT     -0.096600
     21 C21        -5.8500    2.4540   -0.2190 c3        1 KBT     -0.096600
     22 C22        -4.8910   -0.1850   -1.4670 c         1 KBT      0.719700
     23 O23        -6.1170   -0.3670   -1.3840 o         1 KBT     -0.605500
     24 N24        -4.0620   -1.3180   -1.4960 n         1 KBT     -0.584500
     25 C25        -2.6650   -1.2460   -1.5650 c         1 KBT      0.804500
     26 O26        -1.9760   -2.2880   -1.5620 o         1 KBT     -0.632500
     27 H1         -0.4690    1.2090    0.3080 hc        1 KBT      0.062200
     28 H1A        -0.4110   -0.5950    0.4780 hc        1 KBT      0.062200
     29 H2          1.8360   -0.6360   -0.6440 hc        1 KBT      0.040700
     30 H2A         1.7830    1.1600   -0.8320 hc        1 KBT      0.040700
     31 H3          1.7030   -0.3810    1.8560 hc        1 KBT      0.037367
     32 H3A         1.6460    1.4190    1.6690 hc        1 KBT      0.037367
     33 H3B         3.1250    0.5020    1.1630 hc        1 KBT      0.037367
     34 H4         -0.1880   -0.8320   -2.0290 h1        1 KBT      0.074700
     35 H4A        -0.2710    0.9880   -2.2020 h1        1 KBT      0.074700
     36 H10        -2.9880    1.5690   -4.1050 ha        1 KBT      0.160000
     37 H14        -1.1660    4.7090   -6.4760 ha        1 KBT      0.153000
     38 H16        -0.1530    6.6960   -3.4750 hc        1 KBT      0.054033
     39 H16A       -0.4200    6.7390   -5.2690 hc        1 KBT      0.054033
     40 H16B        1.0020    5.8460   -4.5850 hc        1 KBT      0.054033
     41 H17        -0.7710    4.7440   -2.1620 ha        1 KBT      0.162000
     42 H19        -4.3910    3.2630   -1.5730 hc        1 KBT      0.044700
     43 H20        -6.7130    1.5370   -2.6770 hc        1 KBT      0.046033
     44 H20A       -5.4200    2.3510   -3.6610 hc        1 KBT      0.046033
     45 H20B       -6.5880    3.3480   -2.6950 hc        1 KBT      0.046033
     46 H21        -5.1590    2.4540    0.6570 hc        1 KBT      0.046033
     47 H21A       -6.4420    3.4000   -0.2080 hc        1 KBT      0.046033
     48 H21B       -6.5540    1.5910   -0.1230 hc        1 KBT      0.046033
     49 HN24       -4.4680   -2.2280   -1.4370 hn        1 KBT      0.355500
@<TRIPOS>BOND
     1    1    2 1   
     2    1    4 1   
     3    1   27 1   
     4    1   28 1   
     5    2    3 1   
     6    2   29 1   
     7    2   30 1   
     8    3   31 1   
     9    3   32 1   
    10    3   33 1   
    11    4    5 1   
    12    4   34 1   
    13    4   35 1   
    14    5    6 1   
    15    5   25 1   
    16    6    7 1   
    17    6   18 2   
    18    7    8 2   
    19    7    9 1   
    20    9   10 ar  
    21    9   17 ar  
    22   10   11 ar  
    23   10   36 1   
    24   11   12 1   
    25   11   14 ar  
    26   12   13 3   
    27   14   15 ar  
    28   14   37 1   
    29   15   16 1   
    30   15   17 ar  
    31   16   38 1   
    32   16   39 1   
    33   16   40 1   
    34   17   41 1   
    35   18   19 1   
    36   18   22 1   
    37   19   20 1   
    38   19   21 1   
    39   19   42 1   
    40   20   43 1   
    41   20   44 1   
    42   20   45 1   
    43   21   46 1   
    44   21   47 1   
    45   21   48 1   
    46   22   23 2   
    47   22   24 1   
    48   24   25 1   
    49   24   49 1   
    50   25   26 2   
@<TRIPOS>SUBSTRUCTURE
     1 KBT         1 TEMP              0 ****  ****    0 ROOT
