@<TRIPOS>MOLECULE
KC6
   36    37     1     0     0
SMALL
bcc


@<TRIPOS>ATOM
      1 O01         0.0000    0.0000    0.0000 o         1 KC6     -0.747300
      2 C02         1.2140    0.0000    0.0000 c         1 KC6      0.951200
      3 C03         1.9540    0.0000    1.2830 ca        1 KC6     -0.095600
      4 C04         3.3520    0.0000    1.3050 ca        1 KC6     -0.122300
      5 C05         4.0080   -0.0010    2.5220 ca        1 KC6      0.367200
      6 N06         3.3370   -0.0020    3.6540 nb        1 KC6     -0.595000
      7 C07         2.0110   -0.0030    3.6840 cp        1 KC6      0.203300
      8 C08         1.3060   -0.0040    4.9890 cp        1 KC6      0.401300
      9 C09         2.0420   -0.0050    6.1700 ca        1 KC6     -0.082300
     10 C10         1.3630   -0.0060    7.3900 ca        1 KC6     -0.215600
     11 C11         2.1040   -0.0060    8.6740 c         1 KC6      0.382700
     12 N12         1.4290   -0.0070    9.8410 ny        1 KC6      0.113200
     13 C13         2.1620   -0.0070   11.1090 c3        1 KC6     -0.027200
     14 C14         1.1670   -0.0090   12.2720 c3        1 KC6     -0.049200
     15 N15         1.9020   -0.0090   13.5440 nz        1 KC6      0.023400
     16 O16         3.3190   -0.0050    8.6740 o         1 KC6     -0.446100
     17 C17        -0.0360   -0.0060    7.3690 ca        1 KC6     -0.273300
     18 C18        -0.6920   -0.0050    6.1510 ca        1 KC6      0.455200
     19 N19        -0.0200    0.0010    5.0190 nb        1 KC6     -0.492000
     20 C20         1.2730    0.0040    2.5030 ca        1 KC6     -0.110300
     21 O21         1.8880   -0.0040   -1.1660 o         1 KC6     -0.747300
     22 H04         3.9090   -0.1600    0.3890 ha        1 KC6      0.148000
     23 H05         5.0920   -0.0010    2.5440 h4        1 KC6     -0.018900
     24 H09         3.1090   -0.1930    6.1440 ha        1 KC6      0.162000
     25 HN12        0.8470    0.8070    9.8410 hn        1 KC6      0.266800
     26 H13         2.7830    0.8790   11.1670 hx        1 KC6      0.093200
     27 H13A        2.7860   -0.8900   11.1660 hx        1 KC6      0.093200
     28 H14         0.5450   -0.8940   12.2140 hx        1 KC6      0.084700
     29 H14A        0.5430    0.8750   12.2150 hx        1 KC6      0.084700
     30 HN15        1.2510   -0.0100   14.3050 hn        1 KC6      0.232467
     31 HN1A        2.4780   -0.8250   13.5970 hn        1 KC6      0.232467
     32 H17        -0.5910   -0.1740    8.2830 ha        1 KC6      0.079000
     33 H18        -1.7750   -0.0030    6.1290 h4        1 KC6     -0.000900
     34 H20         0.2100    0.2060    2.5290 ha        1 KC6      0.147000
     35 H122        0.8470   -0.8210    9.8410 hn        1 KC6      0.266800
     36 H153        2.4730    0.8110   13.6000 hn        1 KC6      0.232467
@<TRIPOS>BOND
     1    1    2 1   
     2    2    3 1   
     3    2   21 1   
     4    3    4 ar  
     5    3   20 ar  
     6    4    5 ar  
     7    4   22 1   
     8    5    6 ar  
     9    5   23 1   
    10    6    7 ar  
    11    7    8 1   
    12    7   20 ar  
    13    8    9 ar  
    14    8   19 ar  
    15    9   10 ar  
    16    9   24 1   
    17   10   11 1   
    18   10   17 ar  
    19   11   12 1   
    20   11   16 2   
    21   12   13 1   
    22   12   25 1   
    23   12   35 1   
    24   13   14 1   
    25   13   26 1   
    26   13   27 1   
    27   14   15 1   
    28   14   28 1   
    29   14   29 1   
    30   15   30 1   
    31   15   31 1   
    32   15   36 1   
    33   17   18 ar  
    34   17   32 1   
    35   18   19 ar  
    36   18   33 1   
    37   20   34 1   
@<TRIPOS>SUBSTRUCTURE
     1 KC6         1 TEMP              0 ****  ****    0 ROOT
