@<TRIPOS>MOLECULE
KC6
   34    35     1     0     0
SMALL
bcc


@<TRIPOS>ATOM
      1 O01        -5.2430   -1.3620    1.5620 o         1 KC6     -0.819800
      2 C02        -5.3640   -0.2440    0.9910 c         1 KC6      0.909200
      3 C03        -4.1250    0.3550    0.3350 ca        1 KC6     -0.105600
      4 C04        -4.1650    1.6250   -0.2420 ca        1 KC6     -0.204300
      5 C05        -2.9930    2.1400   -0.8270 ca        1 KC6      0.353200
      6 N06        -1.8220    1.4850   -0.8660 nb        1 KC6     -0.690000
      7 C07        -1.7910    0.2450   -0.3020 cp        1 KC6      0.279300
      8 C08        -0.4960   -0.4830   -0.3250 cp        1 KC6      0.393300
      9 C09         0.6950    0.2250   -0.0190 ca        1 KC6     -0.170300
     10 C10         1.9110   -0.4610   -0.0440 ca        1 KC6     -0.115600
     11 C11         3.1710    0.2690    0.2710 c         1 KC6      0.671700
     12 N12         4.2400    0.0580   -0.5870 n         1 KC6     -0.571900
     13 C13         5.5370    0.6180   -0.3500 c3        1 KC6      0.089000
     14 C14         6.4960   -0.3360    0.4040 c3        1 KC6      0.125800
     15 N15         7.8050    0.2440    0.5920 n3        1 KC6     -0.912800
     16 O16         3.2660    1.0630    1.2280 o         1 KC6     -0.598100
     17 C17         1.9210   -1.8270   -0.3510 ca        1 KC6     -0.252300
     18 C18         0.6910   -2.4440   -0.6310 ca        1 KC6      0.389200
     19 N19        -0.4930   -1.8050   -0.6320 nb        1 KC6     -0.637000
     20 C20        -2.9150   -0.3540    0.2990 ca        1 KC6     -0.163300
     21 O21        -6.4360    0.4200    0.9230 o         1 KC6     -0.819800
     22 H04        -5.1060    2.1950   -0.2300 ha        1 KC6      0.162000
     23 H05        -2.9880    3.1390   -1.2960 h4        1 KC6     -0.002900
     24 H09         0.6590    1.2940    0.2370 ha        1 KC6      0.175000
     25 HN12        4.1650   -0.6530   -1.2740 hn        1 KC6      0.310500
     26 H13         5.9920    0.8830   -1.3460 h1        1 KC6      0.064200
     27 H13A        5.4120    1.5640    0.2510 h1        1 KC6      0.064200
     28 H14         6.0080   -0.6300    1.3800 h1        1 KC6      0.030700
     29 H14A        6.6330   -1.2790   -0.1980 h1        1 KC6      0.030700
     30 HN15        7.7350    1.1640    0.9790 hn        1 KC6      0.347800
     31 HN1A        8.3460   -0.3280    1.2100 hn        1 KC6      0.347800
     32 H17         2.8480   -2.4120   -0.3590 ha        1 KC6      0.130000
     33 H18         0.6440   -3.5200   -0.8740 h4        1 KC6      0.017100
     34 H20        -2.8740   -1.3600    0.7450 ha        1 KC6      0.174000
@<TRIPOS>BOND
     1    1    2 1   
     2    2    3 1   
     3    2   21 1   
     4    3    4 ar  
     5    3   20 ar  
     6    4    5 ar  
     7    4   22 1   
     8    5    6 ar  
     9    5   23 1   
    10    6    7 ar  
    11    7    8 1   
    12    7   20 ar  
    13    8    9 ar  
    14    8   19 ar  
    15    9   10 ar  
    16    9   24 1   
    17   10   11 1   
    18   10   17 ar  
    19   11   12 1   
    20   11   16 2   
    21   12   13 1   
    22   12   25 1   
    23   13   14 1   
    24   13   26 1   
    25   13   27 1   
    26   14   15 1   
    27   14   28 1   
    28   14   29 1   
    29   15   30 1   
    30   15   31 1   
    31   17   18 ar  
    32   17   32 1   
    33   18   19 ar  
    34   18   33 1   
    35   20   34 1   
@<TRIPOS>SUBSTRUCTURE
     1 KC6         1 TEMP              0 ****  ****    0 ROOT
