@<TRIPOS>MOLECULE
KC6
   34    28     1     0     0
SMALL
bcc


@<TRIPOS>ATOM
      1 O01         5.8860   -2.3370   -3.0370 o         1 KC6     -0.554500
      2 C02         4.7110   -2.1920   -3.4810 c1        1 KC6      0.358000
      3 C03         3.9020   -0.9880   -3.0830 c1        1 KC6     -0.085000
      4 C04         3.8740    0.1110   -3.8920 c1        1 KC6     -0.140000
      5 C05         3.1640    1.2400   -3.5030 c1        1 KC6     -0.112000
      6 N06         2.4960    1.2490   -2.3120 n1        1 KC6     -0.159000
      7 C07         2.5220    0.1460   -1.4970 c1        1 KC6     -0.049000
      8 C08         1.8040    0.1470   -0.2890 c1        1 KC6      0.065000
      9 C09         0.4420    0.2070   -0.3050 c1        1 KC6     -0.111000
     10 C10        -0.2670    0.2290    0.8930 c1        1 KC6     -0.097000
     11 C11        -1.7950    0.3260    0.8860 c1        1 KC6      0.344000
     12 N12        -2.5350    0.3470    2.1520 n3        1 KC6     -0.375000
     13 C13        -3.8540    0.8750    2.1910 c3        1 KC6     -0.072000
     14 C14        -4.8720   -0.2690    2.5270 c3        1 KC6     -0.114000
     15 N15        -6.1960    0.2640    2.5310 n3        1 KC6     -0.334000
     16 O16        -2.3840    0.3930   -0.1510 o         1 KC6     -0.356000
     17 C17         0.4050    0.1900    2.0820 c2        1 KC6     -0.181000
     18 C18         1.7750    0.1300    2.0920 c1        1 KC6     -0.078000
     19 N19         2.4740    0.1090    0.9100 n1        1 KC6     -0.110000
     20 C20         3.2270   -0.9780   -1.8810 c2        1 KC6     -0.103000
     21 O21         4.2500   -3.0130   -4.3510 o         1 KC6     -0.554500
     22 H04         4.4460    0.1290   -4.7750 ha        1 KC6      0.162000
     23 H05         3.2370    2.0460   -4.0120 ha        1 KC6      0.135000
     24 H09        -0.0360    0.2420   -1.1610 ha        1 KC6      0.173000
     25 HN12       -2.1440    0.0770    2.8970 hn        1 KC6      0.223000
     26 H13        -4.0660    1.2490    1.3480 h1        1 KC6      0.094000
     27 H13A       -3.9070    1.5940    2.9020 h1        1 KC6      0.094000
     28 H14        -4.6680   -0.6360    3.4060 h1        1 KC6      0.097500
     29 H14A       -4.8060   -0.9730    1.8560 h1        1 KC6      0.097500
     30 HN15       -6.1780    1.0990    2.8310 hn        1 KC6      0.139500
     31 HN1A       -6.5330    0.2520    1.6900 hn        1 KC6      0.139500
     32 H17        -0.0590    0.3480    2.8810 ha        1 KC6      0.137000
     33 H18         2.2720    0.1000    2.9740 ha        1 KC6      0.154000
     34 H20         3.4150   -1.7160   -1.3210 ha        1 KC6      0.172000
@<TRIPOS>BOND
     1    1    2 1   
     2    2   21 1   
     3    3    4 1   
     4    3   20 1   
     5    4   22 1   
     6    5    6 1   
     7    5   23 1   
     8    7   20 1   
     9    8   19 1   
    10    9   10 1   
    11    9   24 1   
    12   10   17 1   
    13   11   12 1   
    14   11   16 1   
    15   12   13 1   
    16   12   25 1   
    17   13   14 1   
    18   13   26 1   
    19   13   27 1   
    20   14   15 1   
    21   14   28 1   
    22   14   29 1   
    23   15   30 1   
    24   15   31 1   
    25   17   18 1   
    26   17   32 1   
    27   18   33 1   
    28   20   34 1   
@<TRIPOS>SUBSTRUCTURE
     1 KC6         1 TEMP              0 ****  ****    0 ROOT
