@<TRIPOS>MOLECULE
KC6
   34    35     1     0     0
SMALL
bcc


@<TRIPOS>ATOM
      1 O01         0.3240    1.3250    0.1490 o         1 KC6     -0.819800
      2 C02         1.4480    0.7580    0.0760 c         1 KC6      0.909200
      3 C03         2.0440    0.1960    1.3630 ca        1 KC6     -0.105600
      4 C04         3.3180   -0.3740    1.3700 ca        1 KC6     -0.204300
      5 C05         3.8290   -0.8740    2.5830 ca        1 KC6      0.353200
      6 N06         3.1660   -0.8370    3.7490 nb        1 KC6     -0.691000
      7 C07         1.9220   -0.2800    3.7340 cp        1 KC6      0.279300
      8 C08         1.1840   -0.2240    5.0230 cp        1 KC6      0.393300
      9 C09         1.8860    0.1440    6.2000 ca        1 KC6     -0.172300
     10 C10         1.1920    0.1830    7.4110 ca        1 KC6     -0.115600
     11 C11         1.9130    0.5530    8.6630 c         1 KC6      0.675700
     12 N12         1.7340   -0.3000    9.7400 n         1 KC6     -0.578900
     13 C13         2.3040   -0.0600   11.0310 c3        1 KC6      0.090000
     14 C14         1.2420    0.2090   12.1260 c3        1 KC6      0.132800
     15 N15         1.8300    0.3390   13.4360 n3        1 KC6     -0.911800
     16 O16         2.6590    1.5470    8.7420 o         1 KC6     -0.592100
     17 C17        -0.1740   -0.1180    7.4280 ca        1 KC6     -0.252300
     18 C18        -0.7850   -0.4570    6.2100 ca        1 KC6      0.388200
     19 N19        -0.1390   -0.5250    5.0330 nb        1 KC6     -0.638000
     20 C20         1.3280    0.2390    2.5680 ca        1 KC6     -0.163300
     21 O21         2.1210    0.6230   -0.9830 o         1 KC6     -0.819800
     22 H04         3.8940   -0.4230    0.4340 ha        1 KC6      0.162000
     23 H05         4.8310   -1.3340    2.6260 h4        1 KC6     -0.002900
     24 H09         2.9560    0.3950    6.1570 ha        1 KC6      0.175000
     25 HN12        1.0950   -1.0530    9.6520 hn        1 KC6      0.308500
     26 H13         3.0000    0.8260   10.9690 h1        1 KC6      0.064200
     27 H13A        2.9110   -0.9660   11.3240 h1        1 KC6      0.064200
     28 H14         0.4640   -0.6110   12.0840 h1        1 KC6      0.026700
     29 H14A        0.7170    1.1790   11.8930 h1        1 KC6      0.026700
     30 HN15        2.4040   -0.4510   13.6550 hn        1 KC6      0.347300
     31 HN1A        1.1140    0.4280   14.1290 hn        1 KC6      0.347300
     32 H17        -0.7620   -0.0770    8.3530 ha        1 KC6      0.131000
     33 H18        -1.8630   -0.6960    6.1690 h4        1 KC6      0.016100
     34 H20         0.3190    0.6800    2.5710 ha        1 KC6      0.174000
@<TRIPOS>BOND
     1    1    2 1   
     2    2    3 1   
     3    2   21 1   
     4    3    4 ar  
     5    3   20 ar  
     6    4    5 ar  
     7    4   22 1   
     8    5    6 ar  
     9    5   23 1   
    10    6    7 ar  
    11    7    8 1   
    12    7   20 ar  
    13    8    9 ar  
    14    8   19 ar  
    15    9   10 ar  
    16    9   24 1   
    17   10   11 1   
    18   10   17 ar  
    19   11   12 1   
    20   11   16 2   
    21   12   13 1   
    22   12   25 1   
    23   13   14 1   
    24   13   26 1   
    25   13   27 1   
    26   14   15 1   
    27   14   28 1   
    28   14   29 1   
    29   15   30 1   
    30   15   31 1   
    31   17   18 ar  
    32   17   32 1   
    33   18   19 ar  
    34   18   33 1   
    35   20   34 1   
@<TRIPOS>SUBSTRUCTURE
     1 KC6         1 TEMP              0 ****  ****    0 ROOT
