@<TRIPOS>MOLECULE
KCP
   38    39     1     0     0
SMALL
bcc


@<TRIPOS>ATOM
      1 S1         -0.4120    3.5680    0.3290 ss        1 KCP     -0.318200
      2 C2          0.9010    2.7280   -0.5270 c3        1 KCP      0.048900
      3 C3          0.8280    1.2740   -0.2770 c2        1 KCP     -0.180400
      4 C3'         1.0070    0.3810   -1.4400 c3        1 KCP     -0.037900
      5 C4          0.5650    0.8150    0.9760 ce        1 KCP     -0.023200
      6 C4'         0.1990   -0.6490    1.2300 c         1 KCP      0.913800
      7 O4A        -1.0390   -0.8280    1.5010 o         1 KCP     -0.828800
      8 O4B         1.0440   -1.5650    1.1570 o         1 KCP     -0.828800
      9 N5          0.5160    1.6900    2.0870 nh        1 KCP     -0.703000
     10 C6         -0.3640    2.8400    1.9840 c3        1 KCP      0.270600
     11 C7         -1.8020    2.6150    2.4960 c3        1 KCP     -0.070500
     12 C8         -2.6330    3.9750    2.4620 c         1 KCP      0.938600
     13 O9A        -3.6820    3.9660    1.7650 o         1 KCP     -0.784800
     14 O9B        -2.1770    4.8950    3.1710 o         1 KCP     -0.784800
     15 N10        -2.5230    1.5370    1.7610 n4        1 KCP     -0.644800
     16 C11        -3.3400    0.6280    2.6060 c         1 KCP      0.581100
     17 O12        -3.4540    0.8300    3.8120 o         1 KCP     -0.484100
     18 C13        -3.9420   -0.5640    1.9000 c3        1 KCP     -0.083100
     19 C14        -4.2900   -0.3350    0.4930 cc        1 KCP     -0.161400
     20 C15        -3.4070   -0.4990   -0.5610 cd        1 KCP     -0.129000
     21 C16        -4.0380   -0.2540   -1.8190 cd        1 KCP     -0.160000
     22 C17        -5.3680    0.0760   -1.6630 cc        1 KCP     -0.165100
     23 S19        -5.8220    0.0900   -0.0590 ss        1 KCP      0.019200
     24 H21         1.8870    3.1360   -0.1940 h1        1 KCP      0.067200
     25 H22         0.7610    2.9730   -1.6080 h1        1 KCP      0.067200
     26 H3'1        1.9520    0.6430   -1.9780 hc        1 KCP      0.038700
     27 H3'2        0.1550    0.4980   -2.1570 hc        1 KCP      0.038700
     28 H3'3        1.0660   -0.6910   -1.1200 hc        1 KCP      0.038700
     29 H5          0.3400    1.1810    2.9350 hn        1 KCP      0.391800
     30 H6          0.0520    3.6440    2.6620 h2        1 KCP      0.122700
     31 H7         -1.7430    2.3240    3.5860 hx        1 KCP      0.103700
     32 H10        -1.8690    0.9240    1.2230 hn        1 KCP      0.489300
     33 H131       -3.1470   -1.3760    1.9610 hc        1 KCP      0.120700
     34 H132       -4.8350   -0.8940    2.4960 hc        1 KCP      0.120700
     35 H15        -2.3540   -0.7900   -0.4340 ha        1 KCP      0.203000
     36 H16        -3.5110   -0.3220   -2.7720 ha        1 KCP      0.154000
     37 H17        -6.0580    0.3130   -2.4700 h4        1 KCP      0.165000
     38 H102       -3.1700    2.0230    1.1050 hn        1 KCP      0.489300
@<TRIPOS>BOND
     1    1    2 1   
     2    1   10 1   
     3    2    3 1   
     4    2   24 1   
     5    2   25 1   
     6    3    4 1   
     7    3    5 2   
     8    4   26 1   
     9    4   27 1   
    10    4   28 1   
    11    5    6 1   
    12    5    9 1   
    13    6    7 1   
    14    6    8 1   
    15    9   10 1   
    16    9   29 1   
    17   10   11 1   
    18   10   30 1   
    19   11   12 1   
    20   11   15 1   
    21   11   31 1   
    22   12   13 1   
    23   12   14 1   
    24   15   16 1   
    25   15   32 1   
    26   15   38 1   
    27   16   17 2   
    28   16   18 1   
    29   18   19 1   
    30   18   33 1   
    31   18   34 1   
    32   19   20 2   
    33   19   23 1   
    34   20   21 1   
    35   20   35 1   
    36   21   22 2   
    37   21   36 1   
    38   22   23 1   
    39   22   37 1   
@<TRIPOS>SUBSTRUCTURE
     1 KCP         1 TEMP              0 ****  ****    0 ROOT
