@<TRIPOS>MOLECULE
KCP
   37    38     1     0     0
SMALL
bcc


@<TRIPOS>ATOM
      1 S1          1.9620    0.3380    1.3820 ss        1 KCP     -0.472200
      2 C2          2.1610    1.1190    2.9620 c3        1 KCP      0.106900
      3 C3          1.1900    0.6850    3.9830 c2        1 KCP     -0.333400
      4 C3'         1.6540    0.8820    5.3740 c3        1 KCP      0.000100
      5 C4         -0.0250    0.1270    3.6980 ce        1 KCP      0.127800
      6 C4'        -0.9200   -0.4120    4.8450 c         1 KCP      0.918800
      7 O4A        -1.0860   -1.6590    4.9080 o         1 KCP     -0.828300
      8 O4B        -1.4150    0.4190    5.6550 o         1 KCP     -0.828300
      9 N5         -0.5560   -0.0100    2.4300 nh        1 KCP     -0.738000
     10 C6          0.1280    0.4030    1.2500 c3        1 KCP      0.381600
     11 C7         -0.2820   -0.3880   -0.0220 c3        1 KCP     -0.062300
     12 C8         -1.8200   -0.1580   -0.2710 c         1 KCP      0.907600
     13 O9A        -2.6150   -0.8570    0.4020 o         1 KCP     -0.829300
     14 O9B        -2.1620    0.6940   -1.1470 o         1 KCP     -0.829300
     15 N10         0.5020    0.0380   -1.1680 n         1 KCP     -0.486900
     16 C11         1.0060   -0.8470   -2.0900 c         1 KCP      0.658100
     17 O12         1.2010   -2.0630   -1.8790 o         1 KCP     -0.631100
     18 C13         1.4750   -0.2470   -3.4210 c3        1 KCP     -0.092100
     19 C14         0.3750    0.0320   -4.3540 cc        1 KCP     -0.063400
     20 C15        -0.9340    0.3560   -4.0830 cd        1 KCP     -0.138000
     21 C16        -1.6880    0.5740   -5.2860 cd        1 KCP     -0.141000
     22 C17        -0.9270    0.4060   -6.4160 cc        1 KCP     -0.175100
     23 S19         0.6540   -0.0100   -6.0360 ss        1 KCP     -0.133800
     24 H21         2.1070    2.2280    2.8210 h1        1 KCP      0.028200
     25 H22         3.2040    0.8670    3.2820 h1        1 KCP      0.028200
     26 H3'1        2.0650    1.9160    5.5030 hc        1 KCP      0.012700
     27 H3'2        0.8190    0.7410    6.1060 hc        1 KCP      0.012700
     28 H3'3        2.4740    0.1600    5.6220 hc        1 KCP      0.012700
     29 H5         -1.2860   -0.6880    2.3110 hn        1 KCP      0.471800
     30 H6         -0.0870    1.4980    1.0860 h2        1 KCP      0.051700
     31 H7         -0.1130   -1.4890    0.1500 h1        1 KCP      0.097700
     32 H10         0.1890    0.9170   -1.5320 hn        1 KCP      0.306500
     33 H131        2.0510    0.6990   -3.2230 hc        1 KCP      0.061200
     34 H132        2.1880   -0.9860   -3.8780 hc        1 KCP      0.061200
     35 H15        -1.3970    0.4380   -3.0800 ha        1 KCP      0.241000
     36 H16        -2.7470    0.8390   -5.2640 ha        1 KCP      0.150000
     37 H17        -1.2690    0.5130   -7.4410 h4        1 KCP      0.146000
@<TRIPOS>BOND
     1    1    2 1   
     2    1   10 1   
     3    2    3 1   
     4    2   24 1   
     5    2   25 1   
     6    3    4 1   
     7    3    5 2   
     8    4   26 1   
     9    4   27 1   
    10    4   28 1   
    11    5    6 1   
    12    5    9 1   
    13    6    7 1   
    14    6    8 1   
    15    9   10 1   
    16    9   29 1   
    17   10   11 1   
    18   10   30 1   
    19   11   12 1   
    20   11   15 1   
    21   11   31 1   
    22   12   13 1   
    23   12   14 1   
    24   15   16 1   
    25   15   32 1   
    26   16   17 2   
    27   16   18 1   
    28   18   19 1   
    29   18   33 1   
    30   18   34 1   
    31   19   20 2   
    32   19   23 1   
    33   20   21 1   
    34   20   35 1   
    35   21   22 2   
    36   21   36 1   
    37   22   23 1   
    38   22   37 1   
@<TRIPOS>SUBSTRUCTURE
     1 KCP         1 TEMP              0 ****  ****    0 ROOT
