@<TRIPOS>MOLECULE
KCP
   38    39     1     0     0
SMALL
bcc


@<TRIPOS>ATOM
      1 S1          1.5490    1.5800   -0.6930 ss        1 KCP     -0.384200
      2 C2          2.2470    0.3290    0.3830 c3        1 KCP      0.066900
      3 C3          1.2830   -0.0780    1.4280 c2        1 KCP     -0.199400
      4 C3'         1.1580   -1.5240    1.7050 c3        1 KCP     -0.040900
      5 C4          0.5550    0.8680    2.0800 ce        1 KCP     -0.019200
      6 C4'        -0.6540    0.5330    2.9660 c         1 KCP      0.915800
      7 O4A        -1.7600    0.9450    2.4840 o         1 KCP     -0.822800
      8 O4B        -0.5190   -0.0880    4.0400 o         1 KCP     -0.822800
      9 N5          0.7850    2.2470    1.8180 nu        1 KCP     -0.691000
     10 C6          0.5580    2.6110    0.4300 c3        1 KCP      0.278600
     11 C7         -0.9310    2.5750    0.0110 c3        1 KCP     -0.062500
     12 C8         -1.2140    3.5920   -1.1720 c         1 KCP      0.923600
     13 O9A        -1.8620    3.1360   -2.1530 o         1 KCP     -0.789800
     14 O9B        -0.8040    4.7580   -0.9970 o         1 KCP     -0.789800
     15 N10        -1.3890    1.2000   -0.3440 ny        1 KCP     -0.638800
     16 C11        -2.7160    0.7630    0.2070 c         1 KCP      0.625100
     17 O12        -2.8710   -0.4530    0.2610 o         1 KCP     -0.495100
     18 C13        -3.7130    1.8350    0.5530 c3        1 KCP     -0.075100
     19 C14        -5.1020    1.3720    0.4130 cc        1 KCP     -0.118400
     20 C15        -5.7040    0.3690    1.1490 cd        1 KCP     -0.125000
     21 C16        -7.0770    0.2030    0.7910 cd        1 KCP     -0.163000
     22 C17        -7.4540    1.0890   -0.1960 cc        1 KCP     -0.185100
     23 S19        -6.1900    2.0680   -0.6660 ss        1 KCP      0.033200
     24 H21         2.5220   -0.5210   -0.2860 h1        1 KCP      0.068700
     25 H22         3.1780    0.7410    0.8450 h1        1 KCP      0.068700
     26 H3'1        0.7440   -2.0580    0.8130 hc        1 KCP      0.042033
     27 H3'2        0.4850   -1.7050    2.5820 hc        1 KCP      0.042033
     28 H3'3        2.1640   -1.9570    1.9330 hc        1 KCP      0.042033
     29 H5          0.2190    2.8170    2.4250 hn        1 KCP      0.395800
     30 H6          0.9020    3.6760    0.2750 h2        1 KCP      0.140700
     31 H7         -1.5420    2.9320    0.8930 hx        1 KCP      0.110700
     32 H10        -1.4740    1.1940   -1.3810 hn        1 KCP      0.464300
     33 H131       -3.5390    2.7480   -0.0870 hc        1 KCP      0.128200
     34 H132       -3.5030    2.1020    1.6360 hc        1 KCP      0.128200
     35 H15        -5.1890   -0.2340    1.9030 ha        1 KCP      0.178000
     36 H16        -7.7280   -0.5380    1.2560 ha        1 KCP      0.146000
     37 H17        -8.4480    1.1610   -0.6320 h4        1 KCP      0.161000
     38 H102       -0.6730    0.5140   -0.0580 hn        1 KCP      0.464300
@<TRIPOS>BOND
     1    1    2 1   
     2    1   10 1   
     3    2    3 1   
     4    2   24 1   
     5    2   25 1   
     6    3    4 1   
     7    3    5 2   
     8    4   26 1   
     9    4   27 1   
    10    4   28 1   
    11    5    6 1   
    12    5    9 1   
    13    6    7 1   
    14    6    8 1   
    15    9   10 1   
    16    9   29 1   
    17   10   11 1   
    18   10   30 1   
    19   11   12 1   
    20   11   15 1   
    21   11   31 1   
    22   12   13 1   
    23   12   14 1   
    24   15   16 1   
    25   15   32 1   
    26   15   38 1   
    27   16   17 2   
    28   16   18 1   
    29   18   19 1   
    30   18   33 1   
    31   18   34 1   
    32   19   20 2   
    33   19   23 1   
    34   20   21 1   
    35   20   35 1   
    36   21   22 2   
    37   21   36 1   
    38   22   23 1   
    39   22   37 1   
@<TRIPOS>SUBSTRUCTURE
     1 KCP         1 TEMP              0 ****  ****    0 ROOT
