@<TRIPOS>MOLECULE
KCP
   38    39     1     0     0
SMALL
bcc


@<TRIPOS>ATOM
      1 S1          1.5100    2.2170   -0.3740 ss        1 KCP     -0.384200
      2 C2          2.3170    0.8380    0.4380 c3        1 KCP      0.066900
      3 C3          1.3760    0.1080    1.3150 c2        1 KCP     -0.199400
      4 C3'         1.4110   -1.3680    1.2610 c3        1 KCP     -0.040900
      5 C4          0.5240    0.8010    2.1170 ce        1 KCP     -0.019200
      6 C4'        -0.6630    0.1500    2.8410 c         1 KCP      0.915800
      7 O4A        -1.7950    0.5400    2.4020 o         1 KCP     -0.822800
      8 O4B        -0.4890   -0.6770    3.7600 o         1 KCP     -0.822800
      9 N5          0.6010    2.2200    2.1770 nh        1 KCP     -0.691000
     10 C6          0.3750    2.8600    0.8920 c3        1 KCP      0.278600
     11 C7         -1.0880    2.7610    0.3950 c3        1 KCP     -0.062500
     12 C8         -1.4500    3.9810   -0.5500 c         1 KCP      0.923600
     13 O9A        -2.0130    3.6890   -1.6400 o         1 KCP     -0.789800
     14 O9B        -1.1830    5.1150   -0.1010 o         1 KCP     -0.789800
     15 N10        -1.3720    1.4600   -0.2770 n4        1 KCP     -0.638800
     16 C11        -2.6560    0.7720    0.0920 c         1 KCP      0.625100
     17 O12        -2.6710   -0.4340   -0.1300 o         1 KCP     -0.495100
     18 C13        -3.7800    1.6280    0.6110 c3        1 KCP     -0.075100
     19 C14        -5.1010    1.0640    0.2980 cc        1 KCP     -0.118400
     20 C15        -5.6050   -0.1360    0.7640 cd        1 KCP     -0.125000
     21 C16        -6.9390   -0.3620    0.3050 cd        1 KCP     -0.163000
     22 C17        -7.3860    0.6760   -0.4850 cc        1 KCP     -0.185100
     23 S19        -6.2300    1.8630   -0.6610 ss        1 KCP      0.033200
     24 H21         3.1800    1.2330    1.0290 h1        1 KCP      0.068700
     25 H22         2.7080    0.1940   -0.3850 h1        1 KCP      0.068700
     26 H3'1        1.0870   -1.7300    0.2530 hc        1 KCP      0.042033
     27 H3'2        0.7380   -1.8110    2.0390 hc        1 KCP      0.042033
     28 H3'3        2.4530   -1.7320    1.4430 hc        1 KCP      0.042033
     29 H5         -0.0440    2.5770    2.8630 hn        1 KCP      0.395800
     30 H6          0.5980    3.9630    0.9930 h2        1 KCP      0.140700
     31 H7         -1.7610    2.8450    1.3000 hx        1 KCP      0.110700
     32 H10        -1.4250    1.6770   -1.2920 hn        1 KCP      0.464300
     33 H131       -3.6940    2.6740    0.1970 hc        1 KCP      0.128200
     34 H132       -3.6330    1.6670    1.7360 hc        1 KCP      0.128200
     35 H15        -5.0470   -0.8340    1.3950 ha        1 KCP      0.178000
     36 H16        -7.5140   -1.2540    0.5600 ha        1 KCP      0.146000
     37 H17        -8.3690    0.7380   -0.9480 h4        1 KCP      0.161000
     38 H102       -0.5910    0.8070   -0.1090 hn        1 KCP      0.464300
@<TRIPOS>BOND
     1    1    2 1   
     2    1   10 1   
     3    2    3 1   
     4    2   24 1   
     5    2   25 1   
     6    3    4 1   
     7    3    5 2   
     8    4   26 1   
     9    4   27 1   
    10    4   28 1   
    11    5    6 1   
    12    5    9 1   
    13    6    7 1   
    14    6    8 1   
    15    9   10 1   
    16    9   29 1   
    17   10   11 1   
    18   10   30 1   
    19   11   12 1   
    20   11   15 1   
    21   11   31 1   
    22   12   13 1   
    23   12   14 1   
    24   15   16 1   
    25   15   32 1   
    26   15   38 1   
    27   16   17 2   
    28   16   18 1   
    29   18   19 1   
    30   18   33 1   
    31   18   34 1   
    32   19   20 2   
    33   19   23 1   
    34   20   21 1   
    35   20   35 1   
    36   21   22 2   
    37   21   36 1   
    38   22   23 1   
    39   22   37 1   
@<TRIPOS>SUBSTRUCTURE
     1 KCP         1 TEMP              0 ****  ****    0 ROOT
