@<TRIPOS>MOLECULE
KCP
   37    34     1     0     0
SMALL
bcc


@<TRIPOS>ATOM
      1 S1         -0.0170    2.8030    0.3390 ss        1 KCP     -0.039000
      2 C2          1.7300    2.7630    0.3680 c3        1 KCP     -0.166000
      3 C3          2.2410    2.8120    1.7670 c2        1 KCP     -0.301000
      4 C3'         3.2080    3.9390    2.2010 c3        1 KCP     -0.125000
      5 C4          1.1720    1.9820    3.0180 c1        1 KCP      0.043000
      6 C4'         1.7650    0.9200    3.9450 c1        1 KCP      0.368000
      7 O4A         2.7880    0.2730    3.5900 o         1 KCP     -0.560500
      8 O4B         1.2390    0.7010    5.0700 o         1 KCP     -0.560500
      9 N5         -0.2640    1.9680    2.7050 n3        1 KCP     -0.288000
     10 C6         -0.6650    1.8650    1.1910 c3        1 KCP     -0.039000
     11 C7         -0.2950    0.3280    0.6560 c3        1 KCP     -0.086000
     12 C8         -0.9180   -0.6460    1.5210 c2        1 KCP      0.312000
     13 O9A        -0.2330   -1.5730    2.0150 o         1 KCP     -0.529500
     14 O9B        -2.1750   -0.6420    1.6710 o         1 KCP     -0.529500
     15 N10        -0.7640    0.1590   -0.6460 n         1 KCP     -0.307000
     16 C11        -0.8880   -1.1860   -1.2070 c2        1 KCP      0.287000
     17 O12        -0.9560   -2.1500   -0.4670 o         1 KCP     -0.385000
     18 C13        -0.8690   -1.3850   -2.7070 c3        1 KCP     -0.100000
     19 C14        -1.4200   -2.7530   -3.0430 c2        1 KCP     -0.533000
     20 C15        -2.2110   -3.0880   -4.2170 c1        1 KCP     -0.192000
     21 C16        -2.4460   -4.6610   -4.2290 c1        1 KCP     -0.208000
     22 C17        -1.7900   -5.2310   -3.0640 c1        1 KCP     -0.573000
     23 S19        -1.1250   -4.0710   -2.2760 ss        1 KCP      0.957000
     24 H21         2.0740    3.3900   -0.3100 h1        1 KCP      0.079500
     25 H22         2.0710    1.9170    0.0100 h1        1 KCP      0.079500
     26 H3'1        3.6020    3.7150    3.0750 hc        1 KCP      0.054667
     27 H3'2        2.7110    4.7890    2.2730 hc        1 KCP      0.054667
     28 H3'3        3.9300    4.0350    1.5270 hc        1 KCP      0.054667
     29 H5         -0.8780    1.7510    3.3630 hn        1 KCP      0.253000
     30 H6         -1.6370    1.9970    1.1170 h2        1 KCP      0.111000
     31 H7          0.6810    0.2020    0.6700 h1        1 KCP      0.145000
     32 H10        -1.0640    0.8880   -1.1270 hn        1 KCP      0.208000
     33 H131        0.0440   -1.3150   -3.0320 hc        1 KCP      0.088500
     34 H132       -1.4200   -0.6980   -3.1330 hc        1 KCP      0.088500
     35 H15        -2.5430   -2.4520   -4.8850 DU        1 KCP      0.112667
     36 H16        -2.9460   -5.1600   -4.9060 DU        1 KCP      0.112667
     37 H17        -1.7330   -6.1850   -2.8420 DU        1 KCP      0.112667
@<TRIPOS>BOND
     1    1    2 1   
     2    1   10 1   
     3    2    3 1   
     4    2   24 1   
     5    2   25 1   
     6    3    4 1   
     7    3    5 1   
     8    4   26 1   
     9    4   27 1   
    10    4   28 1   
    11    5    9 1   
    12    6    7 1   
    13    6    8 1   
    14    9   10 1   
    15    9   29 1   
    16   10   11 1   
    17   10   30 1   
    18   11   12 1   
    19   11   15 1   
    20   11   31 1   
    21   12   13 1   
    22   12   14 1   
    23   15   16 1   
    24   15   32 1   
    25   16   17 1   
    26   16   18 1   
    27   18   19 1   
    28   18   33 1   
    29   18   34 1   
    30   19   20 1   
    31   19   23 1   
    32   20   21 1   
    33   21   22 1   
    34   22   23 1   
@<TRIPOS>SUBSTRUCTURE
     1 KCP         1 TEMP              0 ****  ****    0 ROOT
