@<TRIPOS>MOLECULE
KCQ
   27    27     1     0     0
SMALL
bcc


@<TRIPOS>ATOM
      1 OAD         1.0190    1.3810   -1.4210 o         1 KCQ     -0.711500
      2 CD2         1.8170    0.7040   -0.7340 c         1 KCQ      0.697500
      3 NAH         1.9060    0.7340    0.6280 n         1 KCQ     -0.530900
      4 CAE         2.9240   -0.1620    1.1420 c3        1 KCQ      0.079000
      5 CD1         3.5050   -0.9130   -0.0770 c3        1 KCQ     -0.093400
      6 CG          2.8460   -0.2820   -1.3170 c3        1 KCQ     -0.164700
      7 CB          2.2130   -1.3200   -2.2190 c3        1 KCQ     -0.086400
      8 CA          2.0810   -0.8730   -3.6800 c3        1 KCQ      0.002500
      9 N           1.0690    0.2170   -3.8520 n4        1 KCQ     -0.834600
     10 C           1.7420   -2.0940   -4.5600 c         1 KCQ      0.563100
     11 O           0.6510   -2.1550   -5.1260 o         1 KCQ     -0.491100
     12 CMK         2.8100   -3.1200   -4.6600 c3        1 KCQ     -0.202100
     13 HN1         0.9170    0.3990   -4.8470 hn        1 KCQ      0.474467
     14 HN2         1.3820    1.0750   -3.3630 hn        1 KCQ      0.474467
     15 HA          3.0720   -0.4550   -4.0370 hx        1 KCQ      0.121700
     16 HMK1        2.8460   -3.5260   -5.7050 hc        1 KCQ      0.095367
     17 HMK2        3.8130   -2.7100   -4.3930 hc        1 KCQ      0.095367
     18 HMK3        2.5690   -3.9730   -3.9730 hc        1 KCQ      0.095367
     19 HB1         2.8660   -2.2380   -2.2260 hc        1 KCQ      0.094700
     20 HB2         1.2120   -1.6280   -1.8140 hc        1 KCQ      0.094700
     21 HG          3.6070    0.3170   -1.8860 hc        1 KCQ      0.088700
     22 HAH         1.3750    1.3320    1.2120 hn        1 KCQ      0.361500
     23 HAE1        3.7250    0.4260    1.6700 h1        1 KCQ      0.075200
     24 HAE2        2.4660   -0.8790    1.8780 h1        1 KCQ      0.075200
     25 HD11        4.6150   -0.7940   -0.1160 hc        1 KCQ      0.076700
     26 HD12        3.2730   -2.0030   -0.0010 hc        1 KCQ      0.076700
     27 HN3         0.1770   -0.0700   -3.4290 hn        1 KCQ      0.474467
@<TRIPOS>BOND
     1    1    2 2   
     2    2    3 1   
     3    2    6 1   
     4    3    4 1   
     5    3   22 1   
     6    4    5 1   
     7    4   23 1   
     8    4   24 1   
     9    5    6 1   
    10    5   25 1   
    11    5   26 1   
    12    6    7 1   
    13    6   21 1   
    14    7    8 1   
    15    7   19 1   
    16    7   20 1   
    17    8    9 1   
    18    8   10 1   
    19    8   15 1   
    20    9   13 1   
    21    9   14 1   
    22    9   27 1   
    23   10   11 2   
    24   10   12 1   
    25   12   16 1   
    26   12   17 1   
    27   12   18 1   
@<TRIPOS>SUBSTRUCTURE
     1 KCQ         1 TEMP              0 ****  ****    0 ROOT
