@<TRIPOS>MOLECULE
KCQ
   26    26     1     0     0
SMALL
bcc


@<TRIPOS>ATOM
      1 OAD         2.3880    2.0120   -0.0930 o         1 KCQ     -0.626500
      2 CD2         2.2510    0.7800   -0.0920 c         1 KCQ      0.696500
      3 NAH         3.2070   -0.1150    0.3560 n         1 KCQ     -0.587900
      4 CAE         2.7940   -1.4900    0.2210 c3        1 KCQ      0.093000
      5 CD1         1.3590   -1.4690   -0.3540 c3        1 KCQ     -0.093400
      6 CG          1.0180    0.0090   -0.5890 c3        1 KCQ     -0.139700
      7 CB         -0.2210    0.4700    0.1460 c3        1 KCQ     -0.104400
      8 CA         -1.5060   -0.0620   -0.5160 c3        1 KCQ      0.068500
      9 N          -1.9070    0.5940   -1.7440 n3        1 KCQ     -0.898800
     10 C          -2.6100   -0.0180    0.5440 c         1 KCQ      0.569100
     11 O          -3.2970    0.9880    0.7330 o         1 KCQ     -0.522100
     12 CMK        -2.7760   -1.2770    1.3290 c3        1 KCQ     -0.200100
     13 HN1        -2.4470    1.4160   -1.5480 hn        1 KCQ      0.360800
     14 HN2        -1.1010    0.8540   -2.2790 hn        1 KCQ      0.360800
     15 HA         -1.3290   -1.1480   -0.7870 h1        1 KCQ      0.068700
     16 HMK1       -1.7800   -1.6650    1.6540 hc        1 KCQ      0.066367
     17 HMK2       -3.4150   -1.1020    2.2280 hc        1 KCQ      0.066367
     18 HMK3       -3.2670   -2.0470    0.6830 hc        1 KCQ      0.066367
     19 HB1        -0.1820    0.1110    1.2080 hc        1 KCQ      0.067700
     20 HB2        -0.2370    1.5930    0.1720 hc        1 KCQ      0.067700
     21 HG          0.9170    0.2140   -1.6880 hc        1 KCQ      0.083700
     22 HAH         4.1020    0.1420    0.6800 hn        1 KCQ      0.335500
     23 HAE1        3.4900   -2.0440   -0.4670 h1        1 KCQ      0.042700
     24 HAE2        2.8150   -2.0020    1.2220 h1        1 KCQ      0.042700
     25 HD11        1.3160   -2.0450   -1.3100 hc        1 KCQ      0.057700
     26 HD12        0.6470   -1.9390    0.3670 hc        1 KCQ      0.057700
@<TRIPOS>BOND
     1    1    2 2   
     2    2    3 1   
     3    2    6 1   
     4    3    4 1   
     5    3   22 1   
     6    4    5 1   
     7    4   23 1   
     8    4   24 1   
     9    5    6 1   
    10    5   25 1   
    11    5   26 1   
    12    6    7 1   
    13    6   21 1   
    14    7    8 1   
    15    7   19 1   
    16    7   20 1   
    17    8    9 1   
    18    8   10 1   
    19    8   15 1   
    20    9   13 1   
    21    9   14 1   
    22   10   11 2   
    23   10   12 1   
    24   12   16 1   
    25   12   17 1   
    26   12   18 1   
@<TRIPOS>SUBSTRUCTURE
     1 KCQ         1 TEMP              0 ****  ****    0 ROOT
