@<TRIPOS>MOLECULE
KCQ
   27    27     1     0     0
SMALL
bcc


@<TRIPOS>ATOM
      1 OAD         1.1650    1.4800   -1.4830 o         1 KCQ     -0.711500
      2 CD2         1.9390    0.7870   -0.7860 c         1 KCQ      0.697500
      3 NAH         2.0630    0.8670    0.5720 ns        1 KCQ     -0.530900
      4 CAE         3.0400   -0.0630    1.1010 c3        1 KCQ      0.079000
      5 CD1         3.5490   -0.8960   -0.0980 c3        1 KCQ     -0.093400
      6 CG          2.8970   -0.2800   -1.3480 c3        1 KCQ     -0.164700
      7 CB          2.1850   -1.3160   -2.1920 c3        1 KCQ     -0.086400
      8 CA          2.0430   -0.9210   -3.6670 c3        1 KCQ      0.002500
      9 N           1.0900    0.2170   -3.8630 nz        1 KCQ     -0.834600
     10 C           1.6150   -2.1560   -4.4870 c         1 KCQ      0.563100
     11 O           0.5080   -2.1770   -5.0270 o         1 KCQ     -0.491100
     12 CMK         2.6200   -3.2450   -4.5670 c3        1 KCQ     -0.202100
     13 HN1         0.1940   -0.0010   -3.4090 hn        1 KCQ      0.474467
     14 HN2         0.9250    0.3660   -4.8620 hn        1 KCQ      0.474467
     15 HA          3.0470   -0.5760   -4.0630 hx        1 KCQ      0.121700
     16 HMK1        3.6510   -2.8830   -4.3400 hc        1 KCQ      0.095367
     17 HMK2        2.3480   -4.0530   -3.8390 hc        1 KCQ      0.095367
     18 HMK3        2.6080   -3.6950   -5.5950 hc        1 KCQ      0.095367
     19 HB1         1.1780   -1.5490   -1.7520 hc        1 KCQ      0.094700
     20 HB2         2.7850   -2.2690   -2.1740 hc        1 KCQ      0.094700
     21 HG          3.6770    0.2520   -1.9580 hc        1 KCQ      0.088700
     22 HAH         1.5800    1.5190    1.1410 hn        1 KCQ      0.361500
     23 HAE1        3.8850    0.4990    1.5860 h1        1 KCQ      0.075200
     24 HAE2        2.5610   -0.7220    1.8760 h1        1 KCQ      0.075200
     25 HD11        3.2580   -1.9670    0.0300 hc        1 KCQ      0.076700
     26 HD12        4.6620   -0.8420   -0.1650 hc        1 KCQ      0.076700
     27 HN3         1.4630    1.0750   -3.4180 hn        1 KCQ      0.474467
@<TRIPOS>BOND
     1    1    2 2   
     2    2    3 1   
     3    2    6 1   
     4    3    4 1   
     5    3   22 1   
     6    4    5 1   
     7    4   23 1   
     8    4   24 1   
     9    5    6 1   
    10    5   25 1   
    11    5   26 1   
    12    6    7 1   
    13    6   21 1   
    14    7    8 1   
    15    7   19 1   
    16    7   20 1   
    17    8    9 1   
    18    8   10 1   
    19    8   15 1   
    20    9   13 1   
    21    9   14 1   
    22    9   27 1   
    23   10   11 2   
    24   10   12 1   
    25   12   16 1   
    26   12   17 1   
    27   12   18 1   
@<TRIPOS>SUBSTRUCTURE
     1 KCQ         1 TEMP              0 ****  ****    0 ROOT
