@<TRIPOS>MOLECULE
KCQ
   26    25     1     0     0
SMALL
bcc


@<TRIPOS>ATOM
      1 OAD        -1.7130    1.5790    2.2360 o         1 KCQ     -0.367000
      2 CD2        -0.5650    1.6220    1.8430 c1        1 KCQ      0.305000
      3 NAH         0.5120    1.8130    2.5970 n3        1 KCQ     -0.392000
      4 CAE         1.5890    2.3030    1.6430 c3        1 KCQ     -0.025000
      5 CD1         1.0540    2.0110    0.2040 c3        1 KCQ     -0.172000
      6 CG         -0.0480    1.1840    0.3860 c2        1 KCQ     -0.129000
      7 CB          0.2700   -0.3450    0.2540 c3        1 KCQ     -0.184000
      8 CA         -0.7100   -0.9820   -0.7040 c3        1 KCQ     -0.075000
      9 N          -1.8950   -1.3380   -0.0030 n3        1 KCQ     -0.328000
     10 C          -0.0910   -2.2210   -1.3090 c2        1 KCQ      0.235000
     11 O           0.5850   -2.9590   -0.6210 o         1 KCQ     -0.290000
     12 CMK        -0.3140   -2.5430   -2.7700 c3        1 KCQ     -0.267000
     13 HN1        -1.8750   -2.2320    0.1970 hn        1 KCQ      0.164500
     14 HN2        -2.6260   -1.1590   -0.5260 hn        1 KCQ      0.164500
     15 HA         -0.9300   -0.3480   -1.4150 h1        1 KCQ      0.100000
     16 HMK1       -1.2620   -2.7440   -2.9190 hc        1 KCQ      0.106000
     17 HMK2        0.2280   -3.3200   -3.0200 hc        1 KCQ      0.106000
     18 HMK3       -0.0540   -1.7730   -3.3180 hc        1 KCQ      0.106000
     19 HB1         1.1800   -0.4600   -0.0860 hc        1 KCQ      0.102500
     20 HB2         0.1930   -0.7710    1.1310 hc        1 KCQ      0.102500
     21 HG         -0.7280    1.3120   -0.3040 ha        1 KCQ      0.122000
     22 HAH         0.5220    1.8950    3.5050 hn        1 KCQ      0.250000
     23 HAE1        2.4230    1.8150    1.7980 h1        1 KCQ      0.083500
     24 HAE2        1.7330    3.2630    1.7610 h1        1 KCQ      0.083500
     25 HD11        1.7390    1.5530   -0.3260 hc        1 KCQ      0.098500
     26 HD12        0.7850    2.8450   -0.2340 hc        1 KCQ      0.098500
@<TRIPOS>BOND
     1    1    2 1   
     2    2    3 1   
     3    3    4 1   
     4    3   22 1   
     5    4    5 1   
     6    4   23 1   
     7    4   24 1   
     8    5    6 1   
     9    5   25 1   
    10    5   26 1   
    11    6    7 1   
    12    6   21 1   
    13    7    8 1   
    14    7   19 1   
    15    7   20 1   
    16    8    9 1   
    17    8   10 1   
    18    8   15 1   
    19    9   13 1   
    20    9   14 1   
    21   10   11 1   
    22   10   12 1   
    23   12   16 1   
    24   12   17 1   
    25   12   18 1   
@<TRIPOS>SUBSTRUCTURE
     1 KCQ         1 TEMP              0 ****  ****    0 ROOT
