@<TRIPOS>MOLECULE
KCQ
   27    27     1     0     0
SMALL
bcc


@<TRIPOS>ATOM
      1 OAD         1.0560    1.4170   -1.4640 o         1 KCQ     -0.711500
      2 CD2         1.8570    0.7520   -0.7690 c         1 KCQ      0.697500
      3 NAH         1.9670    0.8200    0.5910 n         1 KCQ     -0.530900
      4 CAE         2.9820   -0.0710    1.1150 c3        1 KCQ      0.079000
      5 CD1         3.5360   -0.8650   -0.0900 c3        1 KCQ     -0.093400
      6 CG          2.8660   -0.2630   -1.3370 c3        1 KCQ     -0.164700
      7 CB          2.2070   -1.3200   -2.1990 c3        1 KCQ     -0.086400
      8 CA          2.0580   -0.9140   -3.6710 c3        1 KCQ      0.002500
      9 N           1.0560    0.1820   -3.8590 n4        1 KCQ     -0.834600
     10 C           1.6920   -2.1560   -4.5090 c         1 KCQ      0.563100
     11 O           0.5920   -2.2210   -5.0570 o         1 KCQ     -0.491100
     12 CMK         2.7470   -3.1980   -4.5940 c3        1 KCQ     -0.202100
     13 HN1         1.3860    1.0500   -3.4010 hn        1 KCQ      0.474467
     14 HN2         0.1680   -0.0820   -3.4150 hn        1 KCQ      0.474467
     15 HA          3.0490   -0.5190   -4.0550 hx        1 KCQ      0.121700
     16 HMK1        2.5060   -4.0260   -3.8770 hc        1 KCQ      0.095367
     17 HMK2        3.7590   -2.7920   -4.3550 hc        1 KCQ      0.095367
     18 HMK3        2.7620   -3.6360   -5.6260 hc        1 KCQ      0.095367
     19 HB1         2.8510   -2.2450   -2.1880 hc        1 KCQ      0.094700
     20 HB2         1.2090   -1.6040   -1.7700 hc        1 KCQ      0.094700
     21 HG          3.6250    0.3110   -1.9350 hc        1 KCQ      0.088700
     22 HAH         1.4510    1.4420    1.1640 hn        1 KCQ      0.361500
     23 HAE1        3.7970    0.5220    1.6130 h1        1 KCQ      0.075200
     24 HAE2        2.5280   -0.7610    1.8780 h1        1 KCQ      0.075200
     25 HD11        4.6470   -0.7600   -0.1480 hc        1 KCQ      0.076700
     26 HD12        3.2940   -1.9500    0.0220 hc        1 KCQ      0.076700
     27 HN3         0.8910    0.3360   -4.8570 hn        1 KCQ      0.474467
@<TRIPOS>BOND
     1    1    2 2   
     2    2    3 1   
     3    2    6 1   
     4    3    4 1   
     5    3   22 1   
     6    4    5 1   
     7    4   23 1   
     8    4   24 1   
     9    5    6 1   
    10    5   25 1   
    11    5   26 1   
    12    6    7 1   
    13    6   21 1   
    14    7    8 1   
    15    7   19 1   
    16    7   20 1   
    17    8    9 1   
    18    8   10 1   
    19    8   15 1   
    20    9   13 1   
    21    9   14 1   
    22    9   27 1   
    23   10   11 2   
    24   10   12 1   
    25   12   16 1   
    26   12   17 1   
    27   12   18 1   
@<TRIPOS>SUBSTRUCTURE
     1 KCQ         1 TEMP              0 ****  ****    0 ROOT
