@<TRIPOS>MOLECULE
KCS
    6     5     1     0     0
SMALL
bcc


@<TRIPOS>ATOM
      1 SAA        -1.6180    0.0000    0.2680 sh        1 KCS     -0.177400
      2 CAB         0.1550    0.0000    0.2680 c         1 KCS      0.201600
      3 SAC         0.9920    0.0000    1.7180 s         1 KCS     -0.291400
      4 SAD         1.0410   -0.0000   -1.2680 sh        1 KCS     -0.177400
      5 HSAA       -2.0110   -1.0850    0.5040 hs        1 KCS      0.221800
      6 HSAD        1.4420    1.0850   -1.4900 hs        1 KCS      0.221800
@<TRIPOS>BOND
     1    1    2 1   
     2    1    5 1   
     3    2    3 2   
     4    2    4 1   
     5    4    6 1   
@<TRIPOS>SUBSTRUCTURE
     1 KCS         1 TEMP              0 ****  ****    0 ROOT
