@<TRIPOS>MOLECULE
KCS
    6     5     1     0     0
SMALL
bcc


@<TRIPOS>ATOM
      1 SAA        -1.3420    0.8280   -0.0000 sh        1 KCS     -0.177400
      2 CAB         0.0000   -0.2090    0.0000 c         1 KCS      0.201600
      3 SAC        -0.0000   -1.7500   -0.0000 s         1 KCS     -0.291400
      4 SAD         1.3420    0.8280    0.0000 sh        1 KCS     -0.177400
      5 HSAA       -2.3360   -0.0550   -0.0000 hs        1 KCS      0.221800
      6 HSAD        2.3360   -0.0550    0.0000 hs        1 KCS      0.221800
@<TRIPOS>BOND
     1    1    2 1   
     2    1    5 1   
     3    2    3 2   
     4    2    4 1   
     5    4    6 1   
@<TRIPOS>SUBSTRUCTURE
     1 KCS         1 TEMP              0 ****  ****    0 ROOT
