@<TRIPOS>MOLECULE
KCS
    6     5     1     0     0
SMALL
bcc


@<TRIPOS>ATOM
      1 SAA         0.1070    0.5640   -0.4410 sh        1 KCS     -0.177400
      2 CAB         1.6780   -0.0020   -0.1420 c         1 KCS      0.201600
      3 SAC         2.4330   -0.0220    1.2010 s         1 KCS     -0.291400
      4 SAD         2.2330   -0.5400   -1.6510 sh        1 KCS     -0.177400
      5 HSAA       -0.2470    0.9610    0.7770 hs        1 KCS      0.221800
      6 HSAD        3.4530   -0.9610   -1.3300 hs        1 KCS      0.221800
@<TRIPOS>BOND
     1    1    2 1   
     2    1    5 1   
     3    2    3 2   
     4    2    4 1   
     5    4    6 1   
@<TRIPOS>SUBSTRUCTURE
     1 KCS         1 TEMP              0 ****  ****    0 ROOT
