@<TRIPOS>MOLECULE
KCS
    6     5     1     0     0
SMALL
bcc


@<TRIPOS>ATOM
      1 SAA         0.1050    0.5520   -0.4550 sh        1 KCS     -0.177400
      2 CAB         1.6780    0.0010   -0.1420 c         1 KCS      0.201600
      3 SAC         2.4290    0.0120    1.2030 s         1 KCS     -0.291400
      4 SAD         2.2390   -0.5650   -1.6390 sh        1 KCS     -0.177400
      5 HSAA       -0.2550    0.9730    0.7540 hs        1 KCS      0.221800
      6 HSAD        3.4600   -0.9730   -1.3070 hs        1 KCS      0.221800
@<TRIPOS>BOND
     1    1    2 1   
     2    1    5 1   
     3    2    3 2   
     4    2    4 1   
     5    4    6 1   
@<TRIPOS>SUBSTRUCTURE
     1 KCS         1 TEMP              0 ****  ****    0 ROOT
