@<TRIPOS>MOLECULE
KCT
   39    44     1     0     0
SMALL
bcc


@<TRIPOS>ATOM
      1 O27        -3.3840    2.6430    0.4490 o         1 KCT     -0.808300
      2 C25        -2.1430    2.7610    0.6180 c         1 KCT      0.921600
      3 O26        -1.5770    3.2990    1.6020 o         1 KCT     -0.808300
      4 C7         -1.2320    2.2520   -0.5650 c3        1 KCT     -0.048000
      5 N6         -0.0870    3.1510   -0.8100 n         1 KCT     -0.490900
      6 C22        -0.6200    0.8890   -0.3440 ca        1 KCT      0.015700
      7 C21        -1.1930   -0.3610   -0.2230 cp        1 KCT     -0.039000
      8 C20        -2.5580   -0.8730   -0.2270 cp        1 KCT     -0.055000
      9 C8         -3.8000   -0.2660   -0.3310 ca        1 KCT     -0.063000
     10 C9         -4.9440   -1.0710   -0.2940 ca        1 KCT     -0.161000
     11 C10        -4.8530   -2.4560   -0.1530 ca        1 KCT     -0.120000
     12 C11        -3.6170   -3.0960   -0.0410 ca        1 KCT     -0.169000
     13 C19        -2.4690   -2.3070   -0.0800 ca        1 KCT     -0.047200
     14 N12        -1.1080   -2.7190   -0.0670 na        1 KCT     -0.159300
     15 C18        -0.3380   -1.5270   -0.0640 ca        1 KCT     -0.029200
     16 C17         1.0420   -1.3800   -0.0110 ca        1 KCT     -0.106200
     17 C16         1.6280   -0.0620   -0.1500 cp        1 KCT      0.027000
     18 C23         0.8040    1.0260   -0.3320 ca        1 KCT     -0.154600
     19 C5          1.1210    2.4730   -0.5390 c         1 KCT      0.698100
     20 O24         2.2430    3.0090   -0.5500 o         1 KCT     -0.659500
     21 N13         2.0550   -2.3810    0.0770 na        1 KCT     -0.145300
     22 C14         3.2860   -1.6710    0.1480 ca        1 KCT     -0.038200
     23 C15         3.0700   -0.2570   -0.0530 cp        1 KCT     -0.066000
     24 C1          4.5770   -2.1770    0.3010 ca        1 KCT     -0.166000
     25 C2          5.6440   -1.2790    0.2450 ca        1 KCT     -0.114000
     26 C3          5.4380    0.0860    0.0430 ca        1 KCT     -0.170000
     27 C4          4.1500    0.6090   -0.1090 ca        1 KCT     -0.064000
     28 H2         -1.8670    2.2370   -1.4950 h1        1 KCT      0.081700
     29 H3         -0.1830    4.0570   -0.4010 hn        1 KCT      0.312500
     30 H4         -3.8780    0.8390   -0.4070 ha        1 KCT      0.213000
     31 H5         -5.9320   -0.5950   -0.3680 ha        1 KCT      0.128000
     32 H6         -5.7710   -3.0600   -0.1230 ha        1 KCT      0.114000
     33 H7         -3.5570   -4.1860    0.0710 ha        1 KCT      0.121000
     34 H8         -0.8440   -3.4510    0.5490 hn        1 KCT      0.253700
     35 H9          1.9130   -3.1080    0.7410 hn        1 KCT      0.246700
     36 H10         4.7540   -3.2490    0.4550 ha        1 KCT      0.125000
     37 H11         6.6690   -1.6610    0.3640 ha        1 KCT      0.117000
     38 H12         6.3010    0.7650    0.0030 ha        1 KCT      0.124000
     39 H13         3.9850    1.6900   -0.2680 ha        1 KCT      0.182000
@<TRIPOS>BOND
     1    1    2 1   
     2    2    3 1   
     3    2    4 1   
     4    4    5 1   
     5    4    6 1   
     6    4   28 1   
     7    5   19 1   
     8    5   29 1   
     9    6    7 ar  
    10    6   18 ar  
    11    7    8 1   
    12    7   15 ar  
    13    8    9 ar  
    14    8   13 ar  
    15    9   10 ar  
    16    9   30 1   
    17   10   11 ar  
    18   10   31 1   
    19   11   12 ar  
    20   11   32 1   
    21   12   13 ar  
    22   12   33 1   
    23   13   14 1   
    24   14   15 1   
    25   14   34 1   
    26   15   16 ar  
    27   16   17 ar  
    28   16   21 1   
    29   17   18 ar  
    30   17   23 1   
    31   18   19 1   
    32   19   20 2   
    33   21   22 1   
    34   21   35 1   
    35   22   23 ar  
    36   22   24 ar  
    37   23   27 ar  
    38   24   25 ar  
    39   24   36 1   
    40   25   26 ar  
    41   25   37 1   
    42   26   27 ar  
    43   26   38 1   
    44   27   39 1   
@<TRIPOS>SUBSTRUCTURE
     1 KCT         1 TEMP              0 ****  ****    0 ROOT
