@<TRIPOS>MOLECULE
KCT
   39    28     1     0     0
SMALL
bcc


@<TRIPOS>ATOM
      1 O27        -4.2430    1.9780    0.5140 o         1 KCT     -0.542500
      2 C25        -2.9900    1.9830    0.6370 c1        1 KCT      0.342000
      3 O26        -2.4680    2.2110    1.7600 o         1 KCT     -0.542500
      4 C7         -2.1560    1.7530   -0.5080 c2        1 KCT     -0.083000
      5 N6         -1.4810    2.9720   -0.8560 n         1 KCT     -0.301000
      6 C22        -1.0160    0.8110   -0.1230 c1        1 KCT      0.023000
      7 C21        -1.0030   -0.4330    0.5690 c1        1 KCT     -0.038000
      8 C20        -2.0380   -1.2340    1.0520 c1        1 KCT     -0.024000
      9 C8         -3.4320   -1.0590    1.0630 c1        1 KCT     -0.132667
     10 C9         -4.2570   -2.0820    1.5070 c1        1 KCT     -0.132667
     11 C10        -3.7050   -3.2810    1.9400 c1        1 KCT     -0.132667
     12 C11        -2.3280   -3.4550    1.9290 c1        1 KCT     -0.132667
     13 C19        -1.4920   -2.4190    1.4800 c1        1 KCT     -0.024000
     14 N12        -0.1250   -2.3620    1.2670 n1        1 KCT     -0.198000
     15 C18         0.1710   -1.1320    0.7040 c1        1 KCT      0.014000
     16 C17         1.3720   -0.6140    0.1540 c1        1 KCT     -0.024000
     17 C16         1.3600    0.5870   -0.5130 c1        1 KCT     -0.024000
     18 C23         0.1410    1.3110   -0.6520 c1        1 KCT     -0.134000
     19 C5         -0.1490    2.6530   -1.1870 c2        1 KCT      0.335000
     20 O24         0.6020    3.3320   -1.8580 o         1 KCT     -0.384000
     21 N13         2.6610   -1.1200    0.1000 n1        1 KCT     -0.188000
     22 C14         3.4460   -0.2230   -0.6050 c1        1 KCT      0.004000
     23 C15         2.6500    0.8300   -0.9860 c1        1 KCT     -0.064000
     24 C1          4.7980   -0.2560   -0.9880 c1        1 KCT     -0.163000
     25 C2          5.3290    0.7750   -1.7510 c1        1 KCT     -0.132667
     26 C3          4.5240    1.8400   -2.1360 c1        1 KCT     -0.132667
     27 C4          3.1880    1.8740   -1.7580 c1        1 KCT     -0.065000
     28 H2         -2.8120    1.4140   -1.1480 h4        1 KCT      0.120000
     29 H3         -1.8560    3.8030   -0.8850 hn        1 KCT      0.227000
     30 H4         -3.8210   -0.2150    0.7580 ha        1 KCT      0.136500
     31 H5         -5.2250   -1.9600    1.5140 ha        1 KCT      0.136500
     32 H6         -4.2850   -4.0010    2.2520 ha        1 KCT      0.136500
     33 H7         -1.9400   -4.2970    2.2330 ha        1 KCT      0.136500
     34 H8          0.4780   -3.0140    1.4770 DU        1 KCT      0.202500
     35 H9          2.9460   -1.9030    0.4740 DU        1 KCT      0.202500
     36 H10         5.3680   -0.9950   -0.7020 ha        1 KCT      0.126000
     37 H11         6.2680    0.7520   -2.0170 ha        1 KCT      0.136500
     38 H12         4.8980    2.5650   -2.6720 ha        1 KCT      0.136500
     39 H13         2.6200    2.6150   -2.0390 ha        1 KCT      0.182000
@<TRIPOS>BOND
     1    1    2 1   
     2    2    3 1   
     3    4    5 1   
     4    4    6 1   
     5    4   28 1   
     6    5   19 1   
     7    5   29 1   
     8    6   18 1   
     9    7   15 1   
    10    8   13 1   
    11    9   10 1   
    12    9   30 1   
    13   10   31 1   
    14   11   12 1   
    15   11   32 1   
    16   12   33 1   
    17   14   15 1   
    18   16   17 1   
    19   18   19 1   
    20   19   20 1   
    21   21   22 1   
    22   22   24 1   
    23   23   27 1   
    24   24   36 1   
    25   25   26 1   
    26   25   37 1   
    27   26   38 1   
    28   27   39 1   
@<TRIPOS>SUBSTRUCTURE
     1 KCT         1 TEMP              0 ****  ****    0 ROOT
