@<TRIPOS>MOLECULE
KCT
   39    44     1     0     0
SMALL
bcc


@<TRIPOS>ATOM
      1 O27         0.0450    0.1760    0.0400 o         1 KCT     -0.808300
      2 C25         1.3020    0.1370    0.0940 c         1 KCT      0.921600
      3 O26         2.0010    0.2480    1.1310 o         1 KCT     -0.808300
      4 C7          2.0510    0.0180   -1.2880 c3        1 KCT     -0.048000
      5 N6          3.2620    0.8620   -1.3380 n         1 KCT     -0.490900
      6 C22         2.5290   -1.3740   -1.6260 ca        1 KCT      0.015700
      7 C21         1.8370   -2.5410   -1.8800 cp        1 KCT     -0.039000
      8 C20         0.4290   -2.9190   -1.9040 cp        1 KCT     -0.055000
      9 C8         -0.7450   -2.2270   -1.6470 ca        1 KCT     -0.063000
     10 C9         -1.9610   -2.9090   -1.7600 ca        1 KCT     -0.161000
     11 C10        -2.0090   -4.2560   -2.1180 ca        1 KCT     -0.120000
     12 C11        -0.8440   -4.9810   -2.3790 ca        1 KCT     -0.169000
     13 C19         0.3760   -4.3140   -2.2740 ca        1 KCT     -0.047200
     14 N12         1.6810   -4.8000   -2.5620 na        1 KCT     -0.159300
     15 C18         2.5720   -3.7450   -2.2350 ca        1 KCT     -0.029200
     16 C17         3.9590   -3.7260   -2.2940 ca        1 KCT     -0.106200
     17 C16         4.6700   -2.4900   -2.0350 cp        1 KCT      0.027000
     18 C23         3.9560   -1.3520   -1.7310 ca        1 KCT     -0.154600
     19 C5          4.4080    0.0460   -1.4600 c         1 KCT      0.698100
     20 O24         5.5770    0.4690   -1.4130 o         1 KCT     -0.659500
     21 N13         4.8630   -4.7620   -2.6760 na        1 KCT     -0.145300
     22 C14         6.1640   -4.2150   -2.5060 ca        1 KCT     -0.038200
     23 C15         6.0850   -2.8090   -2.1780 cp        1 KCT     -0.066000
     24 C1          7.4010   -4.8330   -2.6880 ca        1 KCT     -0.166000
     25 C2          8.5510   -4.0520   -2.5520 ca        1 KCT     -0.114000
     26 C3          8.4770   -2.6930   -2.2440 ca        1 KCT     -0.170000
     27 C4          7.2450   -2.0600   -2.0550 ca        1 KCT     -0.064000
     28 H2          1.3430    0.3810   -2.0870 h1        1 KCT      0.081700
     29 H3          3.2990    1.5670   -0.6320 hn        1 KCT      0.312500
     30 H4         -0.7090   -1.1660   -1.3260 ha        1 KCT      0.213000
     31 H5         -2.8950   -2.3690   -1.5500 ha        1 KCT      0.128000
     32 H6         -2.9810   -4.7650   -2.1930 ha        1 KCT      0.114000
     33 H7         -0.8930   -6.0410   -2.6590 ha        1 KCT      0.121000
     34 H8          1.9140   -5.7200   -2.2720 hn        1 KCT      0.253700
     35 H9          4.6990   -5.6650   -2.2930 hn        1 KCT      0.246700
     36 H10         7.4740   -5.8990   -2.9360 ha        1 KCT      0.125000
     37 H11         9.5350   -4.5230   -2.6910 ha        1 KCT      0.117000
     38 H12         9.4020   -2.1080   -2.1450 ha        1 KCT      0.124000
     39 H13         7.1840   -0.9840   -1.8100 ha        1 KCT      0.182000
@<TRIPOS>BOND
     1    1    2 1   
     2    2    3 1   
     3    2    4 1   
     4    4    5 1   
     5    4    6 1   
     6    4   28 1   
     7    5   19 1   
     8    5   29 1   
     9    6    7 ar  
    10    6   18 ar  
    11    7    8 1   
    12    7   15 ar  
    13    8    9 ar  
    14    8   13 ar  
    15    9   10 ar  
    16    9   30 1   
    17   10   11 ar  
    18   10   31 1   
    19   11   12 ar  
    20   11   32 1   
    21   12   13 ar  
    22   12   33 1   
    23   13   14 1   
    24   14   15 1   
    25   14   34 1   
    26   15   16 ar  
    27   16   17 ar  
    28   16   21 1   
    29   17   18 ar  
    30   17   23 1   
    31   18   19 1   
    32   19   20 2   
    33   21   22 1   
    34   21   35 1   
    35   22   23 ar  
    36   22   24 ar  
    37   23   27 ar  
    38   24   25 ar  
    39   24   36 1   
    40   25   26 ar  
    41   25   37 1   
    42   26   27 ar  
    43   26   38 1   
    44   27   39 1   
@<TRIPOS>SUBSTRUCTURE
     1 KCT         1 TEMP              0 ****  ****    0 ROOT
