@<TRIPOS>MOLECULE
KCT
   39    44     1     0     0
SMALL
bcc


@<TRIPOS>ATOM
      1 O27         0.0490    0.1810    0.0290 o         1 KCT     -0.808300
      2 C25         1.3060    0.1410    0.0850 c         1 KCT      0.921600
      3 O26         2.0040    0.2530    1.1220 o         1 KCT     -0.808300
      4 C7          2.0560    0.0190   -1.2970 c3        1 KCT     -0.048000
      5 N6          3.2680    0.8620   -1.3470 ns        1 KCT     -0.490900
      6 C22         2.5340   -1.3740   -1.6320 ca        1 KCT      0.015700
      7 C21         1.8410   -2.5410   -1.8850 cp        1 KCT     -0.039000
      8 C20         0.4330   -2.9180   -1.9090 cp        1 KCT     -0.055000
      9 C8         -0.7410   -2.2250   -1.6550 ca        1 KCT     -0.063000
     10 C9         -1.9580   -2.9060   -1.7670 ca        1 KCT     -0.161000
     11 C10        -2.0060   -4.2540   -2.1240 ca        1 KCT     -0.120000
     12 C11        -0.8410   -4.9800   -2.3820 ca        1 KCT     -0.169000
     13 C19         0.3790   -4.3140   -2.2770 ca        1 KCT     -0.047200
     14 N12         1.6830   -4.8010   -2.5630 na        1 KCT     -0.159300
     15 C18         2.5750   -3.7460   -2.2370 ca        1 KCT     -0.029200
     16 C17         3.9620   -3.7270   -2.2950 ca        1 KCT     -0.106200
     17 C16         4.6740   -2.4910   -2.0370 cp        1 KCT      0.027000
     18 C23         3.9610   -1.3530   -1.7360 ca        1 KCT     -0.154600
     19 C5          4.4130    0.0460   -1.4670 c         1 KCT      0.698100
     20 O24         5.5830    0.4680   -1.4200 o         1 KCT     -0.659500
     21 N13         4.8660   -4.7650   -2.6750 na        1 KCT     -0.145300
     22 C14         6.1670   -4.2180   -2.5040 ca        1 KCT     -0.038200
     23 C15         6.0890   -2.8120   -2.1790 cp        1 KCT     -0.066000
     24 C1          7.4040   -4.8370   -2.6840 ca        1 KCT     -0.166000
     25 C2          8.5540   -4.0570   -2.5490 ca        1 KCT     -0.114000
     26 C3          8.4810   -2.6980   -2.2420 ca        1 KCT     -0.170000
     27 C4          7.2490   -2.0630   -2.0560 ca        1 KCT     -0.064000
     28 H2          1.3490    0.3810   -2.0970 h1        1 KCT      0.081700
     29 H3          3.3040    1.5680   -0.6420 hn        1 KCT      0.312500
     30 H4         -0.7050   -1.1630   -1.3350 ha        1 KCT      0.213000
     31 H5         -2.8920   -2.3650   -1.5590 ha        1 KCT      0.128000
     32 H6         -2.9780   -4.7620   -2.1990 ha        1 KCT      0.114000
     33 H7         -0.8910   -6.0400   -2.6600 ha        1 KCT      0.121000
     34 H8          1.9160   -5.7210   -2.2720 hn        1 KCT      0.253700
     35 H9          4.7010   -5.6680   -2.2900 hn        1 KCT      0.246700
     36 H10         7.4760   -5.9040   -2.9300 ha        1 KCT      0.125000
     37 H11         9.5380   -4.5290   -2.6860 ha        1 KCT      0.117000
     38 H12         9.4060   -2.1130   -2.1440 ha        1 KCT      0.124000
     39 H13         7.1890   -0.9880   -1.8120 ha        1 KCT      0.182000
@<TRIPOS>BOND
     1    1    2 1   
     2    2    3 1   
     3    2    4 1   
     4    4    5 1   
     5    4    6 1   
     6    4   28 1   
     7    5   19 1   
     8    5   29 1   
     9    6    7 ar  
    10    6   18 ar  
    11    7    8 1   
    12    7   15 ar  
    13    8    9 ar  
    14    8   13 ar  
    15    9   10 ar  
    16    9   30 1   
    17   10   11 ar  
    18   10   31 1   
    19   11   12 ar  
    20   11   32 1   
    21   12   13 ar  
    22   12   33 1   
    23   13   14 1   
    24   14   15 1   
    25   14   34 1   
    26   15   16 ar  
    27   16   17 ar  
    28   16   21 1   
    29   17   18 ar  
    30   17   23 1   
    31   18   19 1   
    32   19   20 2   
    33   21   22 1   
    34   21   35 1   
    35   22   23 ar  
    36   22   24 ar  
    37   23   27 ar  
    38   24   25 ar  
    39   24   36 1   
    40   25   26 ar  
    41   25   37 1   
    42   26   27 ar  
    43   26   38 1   
    44   27   39 1   
@<TRIPOS>SUBSTRUCTURE
     1 KCT         1 TEMP              0 ****  ****    0 ROOT
