@<TRIPOS>MOLECULE
KCX
   25    24     1     0     0
SMALL
bcc


@<TRIPOS>ATOM
      1 N           2.9220    1.9000   -0.0010 n3        1 KCX     -0.894800
      2 CA          2.8380    0.4810    0.3250 c3        1 KCX      0.027500
      3 CB          1.6170   -0.2220   -0.2740 c3        1 KCX     -0.067400
      4 CG          0.3020    0.3340    0.2310 c3        1 KCX     -0.075400
      5 CD         -0.8780   -0.4440   -0.3150 c3        1 KCX     -0.087400
      6 CE         -2.2020    0.1300    0.2000 c3        1 KCX      0.084000
      7 NZ         -3.3580   -0.5950   -0.2460 n         1 KCX     -0.586900
      8 C           4.1130   -0.3370   -0.0570 c         1 KCX      0.887600
      9 O           5.0290    0.2390   -0.7180 o         1 KCX     -0.856800
     10 CX         -4.6630   -0.0210    0.0100 c         1 KCX      0.982600
     11 OXT         4.1870   -1.5350    0.3380 o         1 KCX     -0.856800
     12 OQ1        -4.7910    1.2380    0.0860 o         1 KCX     -0.860800
     13 OQ2        -5.6300   -0.8420    0.1130 o         1 KCX     -0.860800
     14 H           3.8990    2.1460   -0.0420 hn        1 KCX      0.327800
     15 HN2         2.5540    2.0460   -0.9240 hn        1 KCX      0.327800
     16 HA          2.7530    0.4280    1.4500 h1        1 KCX      0.040700
     17 HB2         1.6480   -0.1520   -1.3930 hc        1 KCX      0.040200
     18 HB3         1.7000   -1.3090   -0.0050 hc        1 KCX      0.040200
     19 HG2         0.2890    0.2980    1.3520 hc        1 KCX      0.032200
     20 HG3         0.2030    1.4120   -0.0620 hc        1 KCX      0.032200
     21 HD2        -0.8630   -0.4110   -1.4360 hc        1 KCX      0.026700
     22 HD3        -0.7840   -1.5210   -0.0150 hc        1 KCX      0.026700
     23 HE2        -2.1390    0.1680    1.3310 h1        1 KCX      0.018200
     24 HE3        -2.3110    1.1950   -0.1530 h1        1 KCX      0.018200
     25 HZ         -3.3210   -1.5640   -0.0150 hn        1 KCX      0.234500
@<TRIPOS>BOND
     1    1    2 1   
     2    1   14 1   
     3    1   15 1   
     4    2    3 1   
     5    2    8 1   
     6    2   16 1   
     7    3    4 1   
     8    3   17 1   
     9    3   18 1   
    10    4    5 1   
    11    4   19 1   
    12    4   20 1   
    13    5    6 1   
    14    5   21 1   
    15    5   22 1   
    16    6    7 1   
    17    6   23 1   
    18    6   24 1   
    19    7   10 1   
    20    7   25 1   
    21    8    9 1   
    22    8   11 1   
    23   10   12 1   
    24   10   13 1   
@<TRIPOS>SUBSTRUCTURE
     1 KCX         1 TEMP              0 ****  ****    0 ROOT
