@<TRIPOS>MOLECULE
KD0
   32    31     1     0     0
SMALL
bcc


@<TRIPOS>ATOM
      1 O4P         0.5770   -0.0540    0.6270 o         1 KD0     -0.932167
      2 P           1.8500    0.0700   -0.1650 p5        1 KD0      1.313900
      3 O2P         3.0390    0.5710    0.6120 o         1 KD0     -0.932167
      4 O3P         2.1070   -0.9910   -1.1980 o         1 KD0     -0.932167
      5 O1P         1.5200    1.4720   -1.1640 os        1 KD0     -0.568200
      6 C8          1.5120    2.6540   -0.4730 c3        1 KD0      0.207400
      7 C7          2.6210    3.5860   -1.0290 c3        1 KD0      0.056100
      8 O7          2.6090    3.5950   -2.4500 oh        1 KD0     -0.660800
      9 C6          2.4530    5.0300   -0.5220 c3        1 KD0      0.112100
     10 O6          3.0550    5.1760    0.7610 oh        1 KD0     -0.629800
     11 C5          3.0680    6.0740   -1.4720 c3        1 KD0      0.157100
     12 O5          4.4480    5.8390   -1.7200 oh        1 KD0     -0.621800
     13 C4          2.9520    7.5040   -0.9070 c3        1 KD0      0.156100
     14 O4          1.5570    7.7980   -0.8820 oh        1 KD0     -0.624800
     15 C3          3.7010    8.5170   -1.7670 c3        1 KD0     -0.217400
     16 C1          3.6250    9.9370   -1.2800 c         1 KD0      0.481100
     17 O3          2.9200   10.2640   -0.3120 o         1 KD0     -0.622100
     18 C2          4.4480   10.9590   -2.0760 c         1 KD0      0.849600
     19 O1          3.9040   11.4830   -3.0880 o         1 KD0     -0.833300
     20 O2          5.6190   11.2160   -1.6810 o         1 KD0     -0.833300
     21 H8          0.5230    3.1830   -0.6200 h1        1 KD0     -0.001300
     22 H8A         1.6930    2.4960    0.6270 h1        1 KD0     -0.001300
     23 H7          3.6230    3.1860   -0.6980 h1        1 KD0      0.056700
     24 HO7         2.2660    2.7230   -2.7110 ho        1 KD0      0.445000
     25 H6          1.3590    5.2810   -0.4160 h1        1 KD0      0.051700
     26 HO6         3.0740    4.2970    1.1660 ho        1 KD0      0.419000
     27 H5          2.5080    6.0100   -2.4480 h1        1 KD0      0.050700
     28 HO5         4.5240    4.8930   -1.9080 ho        1 KD0      0.420000
     29 H4          3.3580    7.5210    0.1420 h1        1 KD0      0.057700
     30 HO4         1.4780    8.6590   -0.4500 ho        1 KD0      0.412000
     31 H3          4.7820    8.2150   -1.8160 hc        1 KD0      0.081700
     32 H3A         3.2930    8.4990   -2.8120 hc        1 KD0      0.081700
@<TRIPOS>BOND
     1    1    2 1   
     2    2    3 1   
     3    2    4 1   
     4    2    5 1   
     5    5    6 1   
     6    6    7 1   
     7    6   21 1   
     8    6   22 1   
     9    7    8 1   
    10    7    9 1   
    11    7   23 1   
    12    8   24 1   
    13    9   10 1   
    14    9   11 1   
    15    9   25 1   
    16   10   26 1   
    17   11   12 1   
    18   11   13 1   
    19   11   27 1   
    20   12   28 1   
    21   13   14 1   
    22   13   15 1   
    23   13   29 1   
    24   14   30 1   
    25   15   16 1   
    26   15   31 1   
    27   15   32 1   
    28   16   17 2   
    29   16   18 1   
    30   18   19 1   
    31   18   20 1   
@<TRIPOS>SUBSTRUCTURE
     1 KD0         1 TEMP              0 ****  ****    0 ROOT
