@<TRIPOS>MOLECULE
KD0
   32    31     1     0     0
SMALL
bcc


@<TRIPOS>ATOM
      1 O4P         0.5750   -0.0510    0.6370 o         1 KD0     -0.932167
      2 P           1.8630    0.0730   -0.1300 p5        1 KD0      1.313900
      3 O2P         3.0330    0.5880    0.6660 o         1 KD0     -0.932167
      4 O3P         2.1470   -0.9960   -1.1460 o         1 KD0     -0.932167
      5 O1P         1.5460    1.4640   -1.1490 os        1 KD0     -0.568200
      6 C8          1.5180    2.6520   -0.4700 c3        1 KD0      0.207400
      7 C7          2.6320    3.5840   -1.0130 c3        1 KD0      0.056100
      8 O7          2.6490    3.5790   -2.4340 oh        1 KD0     -0.660800
      9 C6          2.4470    5.0320   -0.5240 c3        1 KD0      0.112100
     10 O6          3.0230    5.1950    0.7690 oh        1 KD0     -0.629800
     11 C5          3.0750    6.0710   -1.4730 c3        1 KD0      0.157100
     12 O5          4.4600    5.8410   -1.6920 oh        1 KD0     -0.621800
     13 C4          2.9390    7.5060   -0.9240 c3        1 KD0      0.156100
     14 O4          1.5420    7.7920   -0.9280 oh        1 KD0     -0.624800
     15 C3          3.6990    8.5150   -1.7800 c3        1 KD0     -0.217400
     16 C1          3.6050    9.9390   -1.3090 c         1 KD0      0.481100
     17 O3          2.8800   10.2710   -0.3580 o         1 KD0     -0.622100
     18 C2          4.4380   10.9570   -2.0990 c         1 KD0      0.849600
     19 O1          3.9100   11.4690   -3.1270 o         1 KD0     -0.832800
     20 O2          5.5990   11.2260   -1.6840 o         1 KD0     -0.832800
     21 H8          0.5290    3.1740   -0.6410 h1        1 KD0     -0.001300
     22 H8A         1.6780    2.5060    0.6350 h1        1 KD0     -0.001300
     23 H7          3.6300    3.1930   -0.6590 h1        1 KD0      0.056700
     24 HO7         2.3150    2.7030   -2.6940 ho        1 KD0      0.445000
     25 H6          1.3500    5.2780   -0.4420 h1        1 KD0      0.051700
     26 HO6         3.0380    4.3210    1.1830 ho        1 KD0      0.419000
     27 H5          2.5330    5.9940   -2.4590 h1        1 KD0      0.050700
     28 HO5         4.5450    4.8940   -1.8680 ho        1 KD0      0.420000
     29 H4          3.3250    7.5350    0.1320 h1        1 KD0      0.057700
     30 HO4         1.4500    8.6560   -0.5070 ho        1 KD0      0.412000
     31 H3          4.7820    8.2190   -1.8060 hc        1 KD0      0.081700
     32 H3A         3.3110    8.4840   -2.8330 hc        1 KD0      0.081700
@<TRIPOS>BOND
     1    1    2 1   
     2    2    3 1   
     3    2    4 1   
     4    2    5 1   
     5    5    6 1   
     6    6    7 1   
     7    6   21 1   
     8    6   22 1   
     9    7    8 1   
    10    7    9 1   
    11    7   23 1   
    12    8   24 1   
    13    9   10 1   
    14    9   11 1   
    15    9   25 1   
    16   10   26 1   
    17   11   12 1   
    18   11   13 1   
    19   11   27 1   
    20   12   28 1   
    21   13   14 1   
    22   13   15 1   
    23   13   29 1   
    24   14   30 1   
    25   15   16 1   
    26   15   31 1   
    27   15   32 1   
    28   16   17 2   
    29   16   18 1   
    30   18   19 1   
    31   18   20 1   
@<TRIPOS>SUBSTRUCTURE
     1 KD0         1 TEMP              0 ****  ****    0 ROOT
