@<TRIPOS>MOLECULE
KD0
   32    31     1     0     0
SMALL
bcc


@<TRIPOS>ATOM
      1 O4P        -1.2100   -5.6590    1.4920 o         1 KD0     -0.931167
      2 P           0.1140   -5.2410    2.0630 p5        1 KD0      1.314900
      3 O2P        -0.0470   -4.9300    3.5130 o         1 KD0     -0.931167
      4 O3P         1.1170   -6.3700    1.8960 o         1 KD0     -0.931167
      5 O1P         0.6350   -3.9530    1.3020 os        1 KD0     -0.567200
      6 C8         -0.1780   -2.7700    1.3210 c3        1 KD0      0.193400
      7 C7          0.5780   -1.6190    0.6440 c3        1 KD0      0.077100
      8 O7          1.0390   -2.0370   -0.6040 oh        1 KD0     -0.647800
      9 C6         -0.3420   -0.4470    0.4700 c3        1 KD0      0.112100
     10 O6         -0.9490   -0.1480    1.6890 oh        1 KD0     -0.650800
     11 C5          0.4690    0.7750   -0.0160 c3        1 KD0      0.140100
     12 O5          0.9910    1.4580    1.0890 oh        1 KD0     -0.611800
     13 C4         -0.4260    1.6960   -0.7960 c3        1 KD0      0.123100
     14 O4         -0.7560    1.1030   -2.0120 oh        1 KD0     -0.614800
     15 C3          0.3060    3.0260   -1.0570 c3        1 KD0     -0.220400
     16 C1         -0.6270    3.9840   -1.8040 c         1 KD0      0.479100
     17 O3         -1.8200    3.9490   -1.5970 o         1 KD0     -0.620100
     18 C2         -0.0420    5.0470   -2.7500 c         1 KD0      0.850600
     19 O1          0.0110    4.8270   -3.9810 o         1 KD0     -0.831800
     20 O2          0.3100    6.1630   -2.2980 o         1 KD0     -0.831800
     21 H8         -0.3820   -2.5240    2.2630 h1        1 KD0      0.001700
     22 H8A        -1.0180   -2.9410    0.8370 h1        1 KD0      0.001700
     23 H7          1.3340   -1.3580    1.1970 h1        1 KD0      0.046700
     24 HO7         1.8780   -2.3040   -0.5340 ho        1 KD0      0.443000
     25 H6         -1.0320   -0.6680   -0.1940 h1        1 KD0      0.064700
     26 HO6        -1.8250   -0.2750    1.6230 ho        1 KD0      0.429000
     27 H5          1.1980    0.4750   -0.5830 h1        1 KD0      0.096700
     28 HO5         1.8800    1.4440    1.0540 ho        1 KD0      0.405000
     29 H4         -1.2450    1.8680   -0.2840 h1        1 KD0      0.039700
     30 HO4        -1.6330    1.1470   -2.1340 ho        1 KD0      0.410000
     31 H3          0.5680    3.4240   -0.2090 hc        1 KD0      0.080700
     32 H3A         1.1060    2.8590   -1.6010 hc        1 KD0      0.080700
@<TRIPOS>BOND
     1    1    2 1   
     2    2    3 1   
     3    2    4 1   
     4    2    5 1   
     5    5    6 1   
     6    6    7 1   
     7    6   21 1   
     8    6   22 1   
     9    7    8 1   
    10    7    9 1   
    11    7   23 1   
    12    8   24 1   
    13    9   10 1   
    14    9   11 1   
    15    9   25 1   
    16   10   26 1   
    17   11   12 1   
    18   11   13 1   
    19   11   27 1   
    20   12   28 1   
    21   13   14 1   
    22   13   15 1   
    23   13   29 1   
    24   14   30 1   
    25   15   16 1   
    26   15   31 1   
    27   15   32 1   
    28   16   17 2   
    29   16   18 1   
    30   18   19 1   
    31   18   20 1   
@<TRIPOS>SUBSTRUCTURE
     1 KD0         1 TEMP              0 ****  ****    0 ROOT
