@<TRIPOS>MOLECULE
KD0
   32    31     1     0     0
SMALL
bcc


@<TRIPOS>ATOM
      1 O4P        -5.6120   -0.9530    0.2910 o         1 KD0     -0.932167
      2 P          -4.9620    0.4040    0.3170 p5        1 KD0      1.313900
      3 O2P        -4.4330    0.8830   -1.0100 o         1 KD0     -0.932167
      4 O3P        -5.5900    1.4330    1.2130 o         1 KD0     -0.932167
      5 O1P        -3.4550    0.0700    1.1490 os        1 KD0     -0.568200
      6 C8         -2.5530   -0.6280    0.3930 c3        1 KD0      0.208400
      7 C7         -1.2740    0.2280    0.1950 c3        1 KD0      0.069100
      8 O7         -0.8400    0.7840    1.4310 oh        1 KD0     -0.664800
      9 C6         -0.1130   -0.6080   -0.3620 c3        1 KD0      0.105100
     10 O6         -0.4460   -1.1980   -1.6110 oh        1 KD0     -0.630800
     11 C5          1.1660    0.2430   -0.5480 c3        1 KD0      0.083100
     12 O5          1.5100    0.3670   -1.9160 oh        1 KD0     -0.606800
     13 C4          2.3500   -0.3430    0.2510 c3        1 KD0      0.119100
     14 O4          1.9830   -0.5650    1.6060 oh        1 KD0     -0.618800
     15 C3          3.5740    0.5680    0.1790 c3        1 KD0     -0.209400
     16 C1          4.8940   -0.1400    0.0400 c         1 KD0      0.485100
     17 O3          4.9840   -1.3510   -0.2020 o         1 KD0     -0.604100
     18 C2          6.1280    0.7610    0.1890 c         1 KD0      0.845600
     19 O1          6.6060    1.2810   -0.8590 o         1 KD0     -0.835800
     20 O2          6.5960    0.9430    1.3470 o         1 KD0     -0.835800
     21 H8         -2.2400   -1.5720    0.9310 h1        1 KD0      0.000700
     22 H8A        -2.9680   -0.8920   -0.6180 h1        1 KD0      0.000700
     23 H7         -1.5060    1.0770   -0.5070 h1        1 KD0      0.061700
     24 HO7        -1.6480    0.8920    1.9610 ho        1 KD0      0.448000
     25 H6          0.1040   -1.4730    0.3260 h1        1 KD0      0.073700
     26 HO6        -1.1370   -0.6530   -2.0130 ho        1 KD0      0.426000
     27 H5          0.9730    1.3000   -0.2070 h1        1 KD0      0.083700
     28 HO5         1.4730   -0.5200   -2.2990 ho        1 KD0      0.405000
     29 H4          2.6150   -1.3630   -0.1490 h1        1 KD0      0.073700
     30 HO4         1.2910    0.0740    1.8330 ho        1 KD0      0.421000
     31 H3          3.4790    1.2490   -0.7100 hc        1 KD0      0.074700
     32 H3A         3.6230    1.2020    1.1040 hc        1 KD0      0.074700
@<TRIPOS>BOND
     1    1    2 1   
     2    2    3 1   
     3    2    4 1   
     4    2    5 1   
     5    5    6 1   
     6    6    7 1   
     7    6   21 1   
     8    6   22 1   
     9    7    8 1   
    10    7    9 1   
    11    7   23 1   
    12    8   24 1   
    13    9   10 1   
    14    9   11 1   
    15    9   25 1   
    16   10   26 1   
    17   11   12 1   
    18   11   13 1   
    19   11   27 1   
    20   12   28 1   
    21   13   14 1   
    22   13   15 1   
    23   13   29 1   
    24   14   30 1   
    25   15   16 1   
    26   15   31 1   
    27   15   32 1   
    28   16   17 2   
    29   16   18 1   
    30   18   19 1   
    31   18   20 1   
@<TRIPOS>SUBSTRUCTURE
     1 KD0         1 TEMP              0 ****  ****    0 ROOT
