@<TRIPOS>MOLECULE
KD5
   26    24     1     0     0
SMALL
bcc


@<TRIPOS>ATOM
      1 O5         -0.2810    0.2190   -1.1130 oh        1 KD5     -0.337000
      2 C4          1.6590   -1.0820   -0.4050 c3        1 KD5      0.013000
      3 C5          0.8370    0.2010   -0.2450 c3        1 KD5     -0.047000
      4 C6          3.0090    0.9190    1.5040 c1        1 KD5     -0.009000
      5 O6          3.6990    1.5700    2.3780 oh        1 KD5     -0.154500
      6 C7          3.5220   -0.3980    1.0010 c3        1 KD5     -0.207000
      7 O7          2.4630   -1.3170    0.7460 os        1 KD5     -0.258000
      8 C8          4.4640   -1.0500    1.9870 c1        1 KD5     -0.009000
      9 H1         -0.7730   -0.5970   -0.9620 ho        1 KD5      0.188000
     10 H2          1.6840   -0.9480   -2.5480 hc        1 KD5      0.105500
     11 H4          1.4390    1.1060   -0.5230 h1        1 KD5      0.103500
     12 H5          0.5040    0.2990    0.8230 h1        1 KD5      0.103500
     13 H6          4.5100    1.1180    2.7120 ho        1 KD5      0.223500
     14 H7          4.1230   -0.2110    0.0520 h1        1 KD5      0.177000
     15 H8          4.4710   -2.7280    1.0260 ho        1 KD5      0.223500
     16 H9          2.6440   -3.9050    0.9880 ha        1 KD5      0.002000
     17 H10         2.6500   -3.6840    0.3460 ha        1 KD5      0.002000
     18 C3          2.4260   -1.0850   -1.7180 c3        1 KD5     -0.246000
     19 C2          3.1780   -2.3810   -1.9160 c2        1 KD5      0.179000
     20 C1          4.7020   -2.2430   -1.8520 c2        1 KD5      0.328000
     21 O2          2.5740   -3.4460   -2.0860 o         1 KD5     -0.336000
     22 OH          5.1980   -2.0600   -0.6980 o         1 KD5     -0.553500
     23 O1          5.3540   -2.2620   -2.9220 o         1 KD5     -0.553500
     24 H3          3.1450   -0.2270   -1.7580 hc        1 KD5      0.105500
     25 H11         0.9720   -1.9830   -0.3870 h1        1 KD5      0.110000
     26 O8          4.8070   -2.2750    1.8450 oh        1 KD5     -0.154500
@<TRIPOS>BOND
     1    1    3 1   
     2    1    9 1   
     3    2    3 1   
     4    2    7 1   
     5    2   18 1   
     6    2   25 1   
     7    3   11 1   
     8    3   12 1   
     9    4    5 1   
    10    4    6 1   
    11    5   13 1   
    12    6    7 1   
    13    6    8 1   
    14    6   14 1   
    15    8   26 1   
    16   10   18 1   
    17   15   26 1   
    18   16   17 1   
    19   18   19 1   
    20   18   24 1   
    21   19   20 1   
    22   19   21 1   
    23   20   22 1   
    24   20   23 1   
@<TRIPOS>SUBSTRUCTURE
     1 KD5         1 TEMP              0 ****  ****    0 ROOT
