@<TRIPOS>MOLECULE
KD5
   26    26     1     0     0
SMALL
bcc


@<TRIPOS>ATOM
      1 O5         -2.4810    1.0420   -0.3030 oh        1 KD5     -0.625800
      2 C4         -0.5050   -0.0580   -0.7640 c3        1 KD5      0.120100
      3 C5         -0.9540    1.0290   -0.2520 c3        1 KD5      0.097100
      4 C6         -0.4820    1.0140    1.1710 c3        1 KD5      0.116100
      5 O6          0.5200    1.9160    1.3460 oh        1 KD5     -0.600800
      6 C7          0.0510   -0.4540    1.4290 c3        1 KD5      0.100100
      7 O7         -0.3540   -1.1060    0.4490 os        1 KD5     -0.433600
      8 O8         -0.1480   -2.3860    2.9040 oh        1 KD5     -0.610800
      9 C8         -0.5530   -1.0250    2.7460 c3        1 KD5      0.121400
     10 H1         -2.7610    1.8470   -0.5150 ho        1 KD5      0.450000
     11 H2         -1.1360   -0.4010   -1.4240 h1        1 KD5      0.063700
     12 H4         -0.5900    1.8000   -0.7210 h1        1 KD5      0.066700
     13 H5         -1.2230    1.2140    1.7730 h1        1 KD5      0.060700
     14 H6          0.2700    2.5280    1.9720 ho        1 KD5      0.409000
     15 H7          1.0000   -0.4630    1.4660 h1        1 KD5      0.086700
     16 H8         -0.2890   -2.6410    3.7390 ho        1 KD5      0.418000
     17 H9         -1.5280   -0.9780    2.7040 h1        1 KD5      0.044700
     18 H10        -0.2320   -0.4940    3.5140 h1        1 KD5      0.044700
     19 C3          0.8520    0.1920   -1.4190 c3        1 KD5     -0.208400
     20 C2          1.0510   -0.7960   -2.5670 c         1 KD5      0.475100
     21 C1          1.9220   -0.4230   -3.7380 c         1 KD5      0.862600
     22 O2          0.5650   -1.8960   -2.5060 o         1 KD5     -0.619100
     23 OH          1.4010    0.0070   -4.7900 o         1 KD5     -0.803800
     24 O1          3.1630   -0.6370   -3.6920 o         1 KD5     -0.803800
     25 H3          0.8810    1.0970   -1.7630 hc        1 KD5      0.084700
     26 H11         1.5630    0.0700   -0.7580 hc        1 KD5      0.084700
@<TRIPOS>BOND
     1    1    3 1   
     2    1   10 1   
     3    2    3 1   
     4    2    7 1   
     5    2   11 1   
     6    2   19 1   
     7    3    4 1   
     8    3   12 1   
     9    4    5 1   
    10    4    6 1   
    11    4   13 1   
    12    5   14 1   
    13    6    7 1   
    14    6    9 1   
    15    6   15 1   
    16    8    9 1   
    17    8   16 1   
    18    9   17 1   
    19    9   18 1   
    20   19   20 1   
    21   19   25 1   
    22   19   26 1   
    23   20   21 1   
    24   20   22 2   
    25   21   23 1   
    26   21   24 1   
@<TRIPOS>SUBSTRUCTURE
     1 KD5         1 TEMP              0 ****  ****    0 ROOT
