@<TRIPOS>MOLECULE
KD5
   26    24     1     0     0
SMALL
bcc


@<TRIPOS>ATOM
      1 O5          0.2530    0.8580   -1.0430 oh        1 KD5     -0.303000
      2 C4          1.8130   -0.8390   -0.2740 c3        1 KD5      0.011000
      3 C5          1.2920    0.6080   -0.1140 c3        1 KD5     -0.089000
      4 C6          0.8210    0.8760    1.2900 c1        1 KD5     -0.012000
      5 O6          1.6440    0.8340    2.2750 oh        1 KD5     -0.155000
      6 C7          2.9200   -2.2400    1.3420 c3        1 KD5     -0.150000
      7 O7          2.8700   -0.9710    0.6840 os        1 KD5     -0.328000
      8 C8          4.3360   -2.5260    1.7660 c1        1 KD5     -0.001000
      9 H1         -0.5490    0.4550   -0.6870 ho        1 KD5      0.207000
     10 H2          1.6070   -0.6950   -2.4200 hc        1 KD5      0.119000
     11 H4          2.1110    1.3280   -0.4070 h1        1 KD5      0.130000
     12 H5          4.6360    0.6460    1.7290 ha        1 KD5      0.003000
     13 H6          2.5770    0.5810    2.0700 ho        1 KD5      0.199000
     14 H7          4.7430   -0.0240    1.7630 ha        1 KD5      0.003000
     15 H8          5.0920   -1.9330    0.0710 ho        1 KD5      0.253000
     16 H9          2.2610   -2.1780    2.2480 h1        1 KD5      0.110500
     17 H10         2.5610   -3.0690    0.6700 h1        1 KD5      0.110500
     18 C3          2.3600   -1.0630   -1.6740 c3        1 KD5     -0.242000
     19 C2          2.6510   -2.5200   -1.9430 c2        1 KD5      0.171000
     20 C1          4.0370   -2.7750   -2.5550 c2        1 KD5      0.332000
     21 O2          1.8390   -3.4000   -1.6370 o         1 KD5     -0.348000
     22 OH          5.0170   -2.6340   -1.7660 o         1 KD5     -0.544000
     23 O1          4.1100   -3.0570   -3.7730 o         1 KD5     -0.544000
     24 H3          3.3060   -0.4750   -1.8030 hc        1 KD5      0.119000
     25 H11         0.9840   -1.5690   -0.0620 h1        1 KD5      0.106000
     26 O8          5.3150   -2.2750    0.9770 oh        1 KD5     -0.158000
@<TRIPOS>BOND
     1    1    3 1   
     2    1    9 1   
     3    2    3 1   
     4    2    7 1   
     5    2   18 1   
     6    2   25 1   
     7    3    4 1   
     8    3   11 1   
     9    4    5 1   
    10    5   13 1   
    11    6    7 1   
    12    6    8 1   
    13    6   16 1   
    14    6   17 1   
    15    8   26 1   
    16   10   18 1   
    17   12   14 1   
    18   15   26 1   
    19   18   19 1   
    20   18   24 1   
    21   19   20 1   
    22   19   21 1   
    23   20   22 1   
    24   20   23 1   
@<TRIPOS>SUBSTRUCTURE
     1 KD5         1 TEMP              0 ****  ****    0 ROOT
