@<TRIPOS>MOLECULE
KD5
   26    26     1     0     0
SMALL
bcc


@<TRIPOS>ATOM
      1 O5          1.3330   -1.9060   -1.2200 oh        1 KD5     -0.622800
      2 C4          0.2540    0.0760   -0.2750 c3        1 KD5      0.115100
      3 C5          1.1250   -1.1740   -0.0280 c3        1 KD5      0.137100
      4 C6          2.4980   -0.6300    0.4230 c3        1 KD5      0.113100
      5 O6          2.8180   -1.2470    1.6580 oh        1 KD5     -0.583800
      6 C7          2.3010    0.8890    0.5790 c3        1 KD5      0.065100
      7 O7          0.9410    1.2130    0.2840 os        1 KD5     -0.428600
      8 C8          3.2010    1.6790   -0.3720 c3        1 KD5      0.118400
      9 H1          0.4550   -2.2020   -1.5130 ho        1 KD5      0.448000
     10 H2          0.1570    0.2590   -1.3810 h1        1 KD5      0.064700
     11 H4          0.6770   -1.8360    0.7610 h1        1 KD5      0.082700
     12 H5          3.2880   -0.8670   -0.3400 h1        1 KD5      0.060700
     13 H6          3.6730   -0.8930    1.9280 ho        1 KD5      0.392000
     14 H7          2.4720    1.2200    1.6400 h1        1 KD5      0.071700
     15 H8          2.0520    3.2260   -0.2680 ho        1 KD5      0.420000
     16 H9          4.2810    1.5060   -0.1240 h1        1 KD5      0.043700
     17 H10         2.9990    1.3760   -1.4340 h1        1 KD5      0.043700
     18 C3         -1.1190   -0.0090    0.3630 c3        1 KD5     -0.207400
     19 C2         -2.0180   -1.0290   -0.2890 c         1 KD5      0.476100
     20 C1         -3.4760   -0.9730    0.2010 c         1 KD5      0.861600
     21 O2         -1.5870   -1.8260   -1.1350 o         1 KD5     -0.618100
     22 OH         -4.2400   -0.1700   -0.3930 o         1 KD5     -0.804300
     23 O1         -3.7710   -1.7060    1.1790 o         1 KD5     -0.804300
     24 H3         -1.0340   -0.2660    1.4510 hc        1 KD5      0.083700
     25 H11        -1.6230    0.9920    0.2920 hc        1 KD5      0.083700
     26 O8          3.0060    3.0710   -0.2270 oh        1 KD5     -0.610800
@<TRIPOS>BOND
     1    1    3 1   
     2    1    9 1   
     3    2    3 1   
     4    2    7 1   
     5    2   10 1   
     6    2   18 1   
     7    3    4 1   
     8    3   11 1   
     9    4    5 1   
    10    4    6 1   
    11    4   12 1   
    12    5   13 1   
    13    6    7 1   
    14    6    8 1   
    15    6   14 1   
    16    8   16 1   
    17    8   17 1   
    18    8   26 1   
    19   15   26 1   
    20   18   19 1   
    21   18   24 1   
    22   18   25 1   
    23   19   20 1   
    24   19   21 2   
    25   20   22 1   
    26   20   23 1   
@<TRIPOS>SUBSTRUCTURE
     1 KD5         1 TEMP              0 ****  ****    0 ROOT
