@<TRIPOS>MOLECULE
KDA
   36    36     1     0     0
SMALL
bcc


@<TRIPOS>ATOM
      1 C1          0.5590   -1.3030   -2.1710 c         1 KDA      0.938600
      2 O1A        -0.3220   -2.1610   -2.4290 o         1 KDA     -0.805300
      3 O1B         1.7520   -1.3150   -2.5550 o         1 KDA     -0.805300
      4 C2          0.0750   -0.0790   -1.2880 c3        1 KDA      0.202600
      5 C3         -1.2610    0.4430   -1.8290 c3        1 KDA     -0.127400
      6 C4         -2.0640    1.2410   -0.8120 c3        1 KDA      0.113100
      7 O4         -3.3890    1.4630   -1.2690 oh        1 KDA     -0.610800
      8 C5         -2.0850    0.5080    0.5420 c3        1 KDA      0.087100
      9 O5         -2.7950   -0.7120    0.4230 oh        1 KDA     -0.618800
     10 C6         -0.6310    0.2830    0.9780 c3        1 KDA      0.085100
     11 O6          0.0100   -0.5810    0.0440 os        1 KDA     -0.428600
     12 C7         -0.5610   -0.4040    2.3490 c3        1 KDA      0.104100
     13 O7         -0.8560    0.5240    3.3820 oh        1 KDA     -0.609800
     14 C8          0.8100   -1.0440    2.5950 c3        1 KDA      0.099400
     15 O8          1.2520   -0.7970    3.9180 oh        1 KDA     -0.615800
     16 O2          0.9350    1.0450   -1.2080 os        1 KDA     -0.461600
     17 C9          2.3160    0.7490   -0.9870 c3        1 KDA      0.165600
     18 C10         2.8890    1.8630   -0.1800 c2        1 KDA     -0.148200
     19 C11         4.1820    1.9520    0.1240 c2        1 KDA     -0.266000
     20 H31        -1.0550    1.0800   -2.7260 hc        1 KDA      0.078200
     21 H32        -1.8530   -0.4520   -2.1650 hc        1 KDA      0.078200
     22 H4         -1.6310    2.2700   -0.6820 h1        1 KDA      0.074700
     23 HO4        -3.8240    0.6000   -1.2810 ho        1 KDA      0.407000
     24 H5         -2.6490    1.0970    1.3140 h1        1 KDA      0.079700
     25 HO5        -2.2380   -1.3120   -0.1000 ho        1 KDA      0.434000
     26 H6         -0.0920    1.2700    1.0120 h1        1 KDA      0.052700
     27 H7         -1.3830   -1.1710    2.4220 h1        1 KDA      0.090700
     28 HO7        -0.1150    1.1420    3.4280 ho        1 KDA      0.404000
     29 H81         0.7590   -2.1470    2.4010 h1        1 KDA      0.068200
     30 H82         1.5980   -0.5910    1.9340 h1        1 KDA      0.068200
     31 HO8         0.5180   -1.0080    4.5080 ho        1 KDA      0.399000
     32 H91         2.8130    0.6700   -1.9920 h1        1 KDA      0.074200
     33 H92         2.4280   -0.2340   -0.4550 h1        1 KDA      0.074200
     34 H10         2.1620    2.6240    0.1510 ha        1 KDA      0.118000
     35 H111        4.5900    2.7780    0.7200 ha        1 KDA      0.100500
     36 H112        4.9180    1.2060   -0.2000 ha        1 KDA      0.100500
@<TRIPOS>BOND
     1    1    2 1   
     2    1    3 1   
     3    1    4 1   
     4    4    5 1   
     5    4   11 1   
     6    4   16 1   
     7    5    6 1   
     8    5   20 1   
     9    5   21 1   
    10    6    7 1   
    11    6    8 1   
    12    6   22 1   
    13    7   23 1   
    14    8    9 1   
    15    8   10 1   
    16    8   24 1   
    17    9   25 1   
    18   10   11 1   
    19   10   12 1   
    20   10   26 1   
    21   12   13 1   
    22   12   14 1   
    23   12   27 1   
    24   13   28 1   
    25   14   15 1   
    26   14   29 1   
    27   14   30 1   
    28   15   31 1   
    29   16   17 1   
    30   17   18 1   
    31   17   32 1   
    32   17   33 1   
    33   18   19 2   
    34   18   34 1   
    35   19   35 1   
    36   19   36 1   
@<TRIPOS>SUBSTRUCTURE
     1 KDA         1 TEMP              0 ****  ****    0 ROOT
