@<TRIPOS>MOLECULE
KDA
   36    34     1     0     0
SMALL
bcc


@<TRIPOS>ATOM
      1 C1          2.6300   -0.1860    0.6220 c1        1 KDA      0.356000
      2 O1A         3.3180   -0.8910    1.4030 os        1 KDA     -0.543000
      3 O1B         3.1900    0.6830   -0.1010 o         1 KDA     -0.539000
      4 C2          1.1090   -0.2840    0.6500 c3        1 KDA      0.110000
      5 C3          0.5780   -0.2990    2.0780 c3        1 KDA     -0.205000
      6 C4         -0.8990   -0.2700    2.1460 c3        1 KDA      0.001000
      7 O4         -1.3080   -0.1280    3.5580 oh        1 KDA     -0.339000
      8 C5         -1.4840    0.8400    1.3670 c3        1 KDA     -0.023000
      9 O5         -1.1450    2.1110    2.0300 oh        1 KDA     -0.348000
     10 C6         -0.9900    0.8890   -0.0270 c3        1 KDA      0.004000
     11 O6          0.4640    0.8730   -0.1140 os        1 KDA     -0.293000
     12 C7         -1.5010    2.1490   -0.6840 c3        1 KDA      0.001000
     13 O7         -2.6880    2.5530   -0.0630 oh        1 KDA     -0.337000
     14 C8         -1.7690    1.8790   -2.1710 c3        1 KDA     -0.063000
     15 O8         -2.1570    3.0950   -2.8130 oh        1 KDA     -0.349000
     16 O2          0.9010   -1.4930    0.0140 os        1 KDA     -0.316000
     17 C9          1.9880   -1.8990   -0.8200 c3        1 KDA      0.012000
     18 C10         1.6890   -3.2520   -1.4200 c2        1 KDA     -0.142000
     19 C11         2.6230   -3.8720   -2.2030 c1        1 KDA     -0.270000
     20 H31         0.9310    0.4800    2.5540 hc        1 KDA      0.117000
     21 H32         0.9000   -1.1180    2.5260 hc        1 KDA      0.117000
     22 H4         -1.2390   -1.0970    1.8080 h1        1 KDA      0.115000
     23 HO4        -1.7310   -0.8710    3.8230 ho        1 KDA      0.205000
     24 H5         -2.4400    0.7410    1.3530 h1        1 KDA      0.124000
     25 HO5        -1.8340    2.3910    2.4970 ho        1 KDA      0.231000
     26 H6         -1.3440    0.1130   -0.5130 h1        1 KDA      0.104000
     27 H7         -0.8400    2.8460   -0.6000 h1        1 KDA      0.091000
     28 HO7        -2.8780    3.3590   -0.3040 ho        1 KDA      0.204000
     29 H81        -2.4750    1.2310   -2.2580 h1        1 KDA      0.115500
     30 H82        -0.9680    1.5390   -2.5860 h1        1 KDA      0.115500
     31 HO8        -2.2610    2.9490   -3.6970 ho        1 KDA      0.196000
     32 H91         2.7730   -1.9520   -0.3060 h1        1 KDA      0.112500
     33 H92         2.1110   -1.2460   -1.5370 h1        1 KDA      0.112500
     34 H10         0.8020   -3.6970   -1.2440 ha        1 KDA      0.121000
     35 H111        3.5130   -3.4240   -2.3800 DU        1 KDA      0.107000
     36 H112        2.4320   -4.7440   -2.5900 ha        1 KDA      0.092000
@<TRIPOS>BOND
     1    1    3 1   
     2    1    4 1   
     3    4    5 1   
     4    4   11 1   
     5    4   16 1   
     6    5    6 1   
     7    5   20 1   
     8    5   21 1   
     9    6    7 1   
    10    6    8 1   
    11    6   22 1   
    12    7   23 1   
    13    8    9 1   
    14    8   10 1   
    15    8   24 1   
    16    9   25 1   
    17   10   11 1   
    18   10   12 1   
    19   10   26 1   
    20   12   13 1   
    21   12   14 1   
    22   12   27 1   
    23   13   28 1   
    24   14   15 1   
    25   14   29 1   
    26   14   30 1   
    27   15   31 1   
    28   16   17 1   
    29   17   18 1   
    30   17   32 1   
    31   17   33 1   
    32   18   19 1   
    33   18   34 1   
    34   19   36 1   
@<TRIPOS>SUBSTRUCTURE
     1 KDA         1 TEMP              0 ****  ****    0 ROOT
