@<TRIPOS>MOLECULE
KDB
   25    25     1     0     0
SMALL
bcc


@<TRIPOS>ATOM
      1 O2          1.3830   -0.2320   -0.1640 oh        1 KDB     -0.647800
      2 C2         -0.0200   -0.1100   -0.0590 c3        1 KDB      0.223800
      3 C1         -0.4770    0.0550    1.4460 c         1 KDB      0.931600
      4 O1B        -1.6730   -0.1660    1.7400 o         1 KDB     -0.807300
      5 O1A         0.4520    0.3720    2.2390 o         1 KDB     -0.807300
      6 C3         -0.6560   -1.2900   -0.7330 c2        1 KDB     -0.112200
      7 C4         -1.2240   -1.2000   -1.9380 c2        1 KDB     -0.205200
      8 C5         -1.2400    0.0730   -2.7000 c3        1 KDB     -0.056200
      9 C6         -0.2200    1.0590   -2.1360 c3        1 KDB      0.152100
     10 O6         -0.2960    1.1290   -0.7120 os        1 KDB     -0.431600
     11 C7         -0.4980    2.4880   -2.6270 c3        1 KDB      0.109100
     12 O7         -0.4480    2.4730   -4.0490 oh        1 KDB     -0.610800
     13 C8          0.5340    3.4610   -2.0520 c3        1 KDB      0.086400
     14 O8          0.2180    4.7920   -2.4290 oh        1 KDB     -0.625800
     15 HO2         1.7560    0.1840    0.6310 ho        1 KDB      0.434000
     16 H3         -0.6430   -2.2150   -0.1400 ha        1 KDB      0.132000
     17 H4         -1.7310   -2.0520   -2.4100 ha        1 KDB      0.103000
     18 H5         -2.2690    0.5200   -2.6460 hc        1 KDB      0.044200
     19 H5A        -1.0060   -0.1050   -3.7820 hc        1 KDB      0.044200
     20 H6          0.8180    0.7470   -2.4360 h1        1 KDB      0.052700
     21 H7         -1.5310    2.8040   -2.3070 h1        1 KDB      0.041700
     22 HO7        -0.3280    3.3920   -4.3220 ho        1 KDB      0.401000
     23 H8          0.5760    3.3510   -0.9360 h1        1 KDB      0.075200
     24 H8A         1.5470    3.2710   -2.4960 h1        1 KDB      0.075200
     25 HO8        -0.5760    5.0400   -1.9420 ho        1 KDB      0.397000
@<TRIPOS>BOND
     1    1    2 1   
     2    1   15 1   
     3    2    3 1   
     4    2    6 1   
     5    2   10 1   
     6    3    4 1   
     7    3    5 1   
     8    6    7 2   
     9    6   16 1   
    10    7    8 1   
    11    7   17 1   
    12    8    9 1   
    13    8   18 1   
    14    8   19 1   
    15    9   10 1   
    16    9   11 1   
    17    9   20 1   
    18   11   12 1   
    19   11   13 1   
    20   11   21 1   
    21   12   22 1   
    22   13   14 1   
    23   13   23 1   
    24   13   24 1   
    25   14   25 1   
@<TRIPOS>SUBSTRUCTURE
     1 KDB         1 TEMP              0 ****  ****    0 ROOT
