@<TRIPOS>MOLECULE
KDB
   25    25     1     0     0
SMALL
bcc


@<TRIPOS>ATOM
      1 O2          1.2930   -0.3700   -0.1930 oh        1 KDB     -0.647800
      2 C2         -0.1010   -0.1650   -0.0910 c3        1 KDB      0.223800
      3 C1         -0.5540   -0.0160    1.4170 c         1 KDB      0.931600
      4 O1B        -1.7640   -0.1700    1.6990 o         1 KDB     -0.807300
      5 O1A         0.3870    0.2180    2.2220 o         1 KDB     -0.807300
      6 C3         -0.8050   -1.2820   -0.8020 c2        1 KDB     -0.112200
      7 C4         -1.3600   -1.1200   -2.0060 c2        1 KDB     -0.205200
      8 C5         -1.2920    0.1730   -2.7300 c3        1 KDB     -0.056200
      9 C6         -0.2150    1.0760   -2.1320 c3        1 KDB      0.152100
     10 O6         -0.2950    1.1090   -0.7070 os        1 KDB     -0.431600
     11 C7         -0.4000    2.5340   -2.5810 c3        1 KDB      0.109100
     12 O7         -0.3430    2.5580   -4.0030 oh        1 KDB     -0.610800
     13 C8          0.6870    3.4230   -1.9720 c3        1 KDB      0.086400
     14 O8          0.4580    4.7820   -2.3110 oh        1 KDB     -0.625800
     15 HO2         1.6860   -0.0030    0.6150 ho        1 KDB      0.434000
     16 H3         -0.8540   -2.2220   -0.2370 ha        1 KDB      0.132000
     17 H4         -1.9160   -1.9250   -2.5060 ha        1 KDB      0.103000
     18 H5         -1.0630    0.0140   -3.8160 hc        1 KDB      0.044200
     19 H5A        -2.2900    0.6830   -2.6660 hc        1 KDB      0.044200
     20 H6          0.8030    0.7090   -2.4370 h1        1 KDB      0.052700
     21 H7         -1.4140    2.9040   -2.2560 h1        1 KDB      0.041700
     22 HO7        -0.1640    3.4750   -4.2470 ho        1 KDB      0.401000
     23 H8          0.7160    3.2780   -0.8610 h1        1 KDB      0.075200
     24 H8A         1.6880    3.1840   -2.4180 h1        1 KDB      0.075200
     25 HO8        -0.3220    5.0640   -1.8200 ho        1 KDB      0.397000
@<TRIPOS>BOND
     1    1    2 1   
     2    1   15 1   
     3    2    3 1   
     4    2    6 1   
     5    2   10 1   
     6    3    4 1   
     7    3    5 1   
     8    6    7 2   
     9    6   16 1   
    10    7    8 1   
    11    7   17 1   
    12    8    9 1   
    13    8   18 1   
    14    8   19 1   
    15    9   10 1   
    16    9   11 1   
    17    9   20 1   
    18   11   12 1   
    19   11   13 1   
    20   11   21 1   
    21   12   22 1   
    22   13   14 1   
    23   13   23 1   
    24   13   24 1   
    25   14   25 1   
@<TRIPOS>SUBSTRUCTURE
     1 KDB         1 TEMP              0 ****  ****    0 ROOT
