@<TRIPOS>MOLECULE
KDB
   25    24     1     0     0
SMALL
bcc


@<TRIPOS>ATOM
      1 O2          1.8580   -1.3350    1.5640 oh        1 KDB     -0.375000
      2 C2          0.4510   -1.3020    1.5350 c3        1 KDB      0.126000
      3 C1          0.1370   -1.2710    2.9990 c2        1 KDB      0.351000
      4 O1B        -0.6750   -0.4220    3.4510 o         1 KDB     -0.542000
      5 O1A         0.6850   -2.0950    3.7780 o         1 KDB     -0.542000
      6 C3         -0.0750   -2.4990    0.9250 c2        1 KDB     -0.108000
      7 C4         -0.3360   -2.4170   -0.7150 c1        1 KDB     -0.201000
      8 C5         -0.6830   -1.1370   -1.2160 c2        1 KDB     -0.139000
      9 C6          0.0450    0.0910   -0.3730 c3        1 KDB      0.041000
     10 O6         -0.0750    0.0460    0.8070 os        1 KDB     -0.288000
     11 C7         -0.5750    1.4770   -0.8820 c3        1 KDB     -0.002000
     12 O7         -1.1430    1.2990   -2.1220 oh        1 KDB     -0.338000
     13 C8          0.4980    2.4960   -0.9720 c3        1 KDB     -0.064000
     14 O8         -0.0670    3.7470   -1.2960 oh        1 KDB     -0.353000
     15 HO2         2.1620   -0.6130    1.9840 ho        1 KDB      0.233000
     16 H3          0.0580   -3.3650    1.3550 ha        1 KDB      0.132000
     17 H4         -0.5870   -3.2200   -1.2100 ha        1 KDB      0.103000
     18 H5         -1.6610   -1.0780   -1.2250 ha        1 KDB      0.083500
     19 H5A        -0.4820   -1.0390   -2.1690 ha        1 KDB      0.083500
     20 H6          1.0000    0.0830   -0.5850 h1        1 KDB      0.092000
     21 H7         -1.2580    1.7790   -0.2520 h1        1 KDB      0.081000
     22 HO7        -1.9590    1.6520   -2.1290 ho        1 KDB      0.200000
     23 H8          1.1370    2.2360   -1.6680 h1        1 KDB      0.114500
     24 H8A         0.9610    2.5590   -0.1110 h1        1 KDB      0.114500
     25 HO8         0.5820    4.3280   -1.4740 ho        1 KDB      0.196000
@<TRIPOS>BOND
     1    1    2 1   
     2    1   15 1   
     3    2    3 1   
     4    2    6 1   
     5    2   10 1   
     6    3    4 1   
     7    3    5 1   
     8    6    7 1   
     9    6   16 1   
    10    7   17 1   
    11    8    9 1   
    12    8   18 1   
    13    8   19 1   
    14    9   10 1   
    15    9   11 1   
    16    9   20 1   
    17   11   12 1   
    18   11   13 1   
    19   11   21 1   
    20   12   22 1   
    21   13   14 1   
    22   13   23 1   
    23   13   24 1   
    24   14   25 1   
@<TRIPOS>SUBSTRUCTURE
     1 KDB         1 TEMP              0 ****  ****    0 ROOT
