@<TRIPOS>MOLECULE
KDB
   25    25     1     0     0
SMALL
bcc


@<TRIPOS>ATOM
      1 O2          1.3580   -0.1950   -1.8130 oh        1 KDB     -0.648800
      2 C2          1.4510   -0.2270   -0.4050 c3        1 KDB      0.220800
      3 C1          2.5580    0.7690    0.1290 c         1 KDB      0.932600
      4 O1B         2.9810    0.6250    1.2980 o         1 KDB     -0.805300
      5 O1A         2.9470    1.6150   -0.7210 o         1 KDB     -0.805300
      6 C3          1.6920   -1.6430    0.0290 c2        1 KDB     -0.109200
      7 C4          0.7280   -2.3980    0.5630 c2        1 KDB     -0.208200
      8 C5         -0.6530   -1.8860    0.7390 c3        1 KDB     -0.059200
      9 C6         -0.8820   -0.6440   -0.1210 c3        1 KDB      0.121100
     10 O6          0.1870    0.2870    0.0210 os        1 KDB     -0.419600
     11 C7         -2.1570    0.0990    0.3040 c3        1 KDB      0.104100
     12 O7         -3.3040   -0.7200    0.1270 oh        1 KDB     -0.614800
     13 C8         -2.3260    1.4050   -0.4830 c3        1 KDB      0.098400
     14 O8         -3.6440    1.5320   -0.9870 oh        1 KDB     -0.619800
     15 HO2         1.7100    0.6670   -2.0930 ho        1 KDB      0.436000
     16 H3          2.7270   -1.9880   -0.0990 ha        1 KDB      0.133000
     17 H4          0.9160   -3.4180    0.9250 ha        1 KDB      0.104000
     18 H5         -1.4080   -2.6660    0.4580 hc        1 KDB      0.041700
     19 H5A        -0.8150   -1.6320    1.8210 hc        1 KDB      0.041700
     20 H6         -0.9640   -0.9480   -1.2030 h1        1 KDB      0.042700
     21 H7         -2.1310    0.3040    1.4090 h1        1 KDB      0.080700
     22 HO7        -3.3700   -0.9110   -0.8180 ho        1 KDB      0.403000
     23 H8         -2.0770    2.2810    0.1700 h1        1 KDB      0.065200
     24 H8A        -1.6630    1.4230   -1.3890 h1        1 KDB      0.065200
     25 HO8        -4.2480    1.3280   -0.2620 ho        1 KDB      0.399000
@<TRIPOS>BOND
     1    1    2 1   
     2    1   15 1   
     3    2    3 1   
     4    2    6 1   
     5    2   10 1   
     6    3    4 1   
     7    3    5 1   
     8    6    7 2   
     9    6   16 1   
    10    7    8 1   
    11    7   17 1   
    12    8    9 1   
    13    8   18 1   
    14    8   19 1   
    15    9   10 1   
    16    9   11 1   
    17    9   20 1   
    18   11   12 1   
    19   11   13 1   
    20   11   21 1   
    21   12   22 1   
    22   13   14 1   
    23   13   23 1   
    24   13   24 1   
    25   14   25 1   
@<TRIPOS>SUBSTRUCTURE
     1 KDB         1 TEMP              0 ****  ****    0 ROOT
