@<TRIPOS>MOLECULE
KDD
   25    24     1     0     0
SMALL
bcc


@<TRIPOS>ATOM
      1 O1A         0.9030   -0.0770    0.4770 o         1 KDD     -0.505000
      2 C1          1.8140    0.6720    0.0590 c2        1 KDD      0.375000
      3 O1B         2.1750    1.7910    0.4850 o         1 KDD     -0.505000
      4 C2          2.6000    0.1400   -1.1930 c2        1 KDD      0.159000
      5 O6          3.8620   -0.1530   -0.8250 os        1 KDD     -0.161000
      6 C6          4.7520   -0.7990   -1.7070 cx        1 KDD     -0.057000
      7 C7          6.0710   -0.0760   -1.9180 cx        1 KDD     -0.067000
      8 C8          6.0060   -1.2980   -1.0130 cx        1 KDD     -0.067000
      9 O8          6.2020   -1.1490    0.3530 oh        1 KDD     -0.294500
     10 O7          6.6380   -0.2210   -3.1860 oh        1 KDD     -0.294500
     11 C5          3.6110    0.2220   -4.3400 c3        1 KDD     -0.198000
     12 C3          1.9690   -0.0510   -2.4080 c2        1 KDD     -0.343000
     13 C4          2.3730   -0.1720   -3.7080 c1        1 KDD     -0.255000
     14 H6          4.0760   -0.6760   -4.8240 hc        1 KDD      0.072667
     15 H7          4.2700   -1.3770   -2.5160 h1        1 KDD      0.164000
     16 H8          6.2090    0.9300   -1.4780 h1        1 KDD      0.138000
     17 H8A         6.4610   -2.2550   -1.3350 h1        1 KDD      0.138000
     18 HO8         5.5500   -0.5100    0.6800 ho        1 KDD      0.215000
     19 HO7         7.5920   -0.1470   -3.0570 ho        1 KDD      0.215000
     20 H5          4.3850    0.7040   -3.6850 hc        1 KDD      0.072667
     21 H5A         3.3540    0.9500   -5.1570 hc        1 KDD      0.072667
     22 H3          0.8610   -0.0680   -2.2810 ha        1 KDD      0.159000
     23 O61         0.1540   -1.1990   -5.2010 oh        1 KDD     -0.463000
     24 H4          1.0430   -0.8390   -4.9940 ho        1 KDD      0.215500
     25 H12        -0.2660   -1.2080   -4.3390 ho        1 KDD      0.215500
@<TRIPOS>BOND
     1    1    2 1   
     2    2    3 1   
     3    2    4 1   
     4    4    5 1   
     5    4   12 1   
     6    5    6 1   
     7    6    7 1   
     8    6    8 1   
     9    6   15 1   
    10    7    8 1   
    11    7   10 1   
    12    7   16 1   
    13    8    9 1   
    14    8   17 1   
    15    9   18 1   
    16   10   19 1   
    17   11   13 1   
    18   11   14 1   
    19   11   20 1   
    20   11   21 1   
    21   12   13 1   
    22   12   22 1   
    23   23   24 1   
    24   23   25 1   
@<TRIPOS>SUBSTRUCTURE
     1 KDD         1 TEMP              0 ****  ****    0 ROOT
