@<TRIPOS>MOLECULE
KDD
   25    23     1     0     0
SMALL
bcc


@<TRIPOS>ATOM
      1 O1A         1.0640   -1.4900    0.0910 o         1 KDD     -0.806300
      2 C1          2.1500   -0.8590    0.0410 c         1 KDD      0.933800
      3 O1B         2.8410   -0.4920    1.0250 o         1 KDD     -0.806300
      4 C2          2.6500   -0.4850   -1.3670 ce        1 KDD      0.056900
      5 O6          4.0300   -0.5500   -1.4570 os        1 KDD     -0.228200
      6 C6          4.5970   -0.1590   -2.6740 c2        1 KDD     -0.043100
      7 C7          5.8650    0.3000   -2.5840 c2        1 KDD     -0.028900
      8 C8          5.4980   -0.0390    1.5750 c         1 KDD      0.574700
      9 O8          6.6730    0.2650    1.8040 o         1 KDD     -0.611100
     10 O7          6.6670    0.6490   -3.6430 oh        1 KDD     -0.513100
     11 C5          3.7940   -0.3300   -3.9090 c3        1 KDD     -0.078200
     12 C3          1.8510   -0.1350   -2.3890 c2        1 KDD     -0.365200
     13 C4          2.3800    0.2380   -3.7260 c3        1 KDD      0.201300
     14 H6          2.9280   -1.3450   -6.3210 ha        1 KDD     -0.000500
     15 H7          2.7960   -1.7960   -6.8100 ha        1 KDD     -0.000500
     16 H8          6.4160    0.4060   -1.6360 h4        1 KDD      0.184000
     17 H8A         4.7690   -0.2390    2.3890 h4        1 KDD      0.016200
     18 HO8         5.0880   -0.1310    0.5450 h4        1 KDD      0.016200
     19 HO7         6.1460    0.6180   -4.4570 ho        1 KDD      0.400000
     20 H5          4.2760    0.1660   -4.7880 hc        1 KDD      0.046200
     21 H5A         3.7160   -1.4270   -4.1440 hc        1 KDD      0.046200
     22 H3          0.7610   -0.1200   -2.2540 ha        1 KDD      0.159000
     23 O61         1.5500   -0.2130   -4.7890 oh        1 KDD     -0.618800
     24 H4          2.3970    1.3590   -3.8540 h1        1 KDD      0.060700
     25 H12         1.2520   -1.1010   -4.5600 ho        1 KDD      0.403000
@<TRIPOS>BOND
     1    1    2 1   
     2    2    3 1   
     3    2    4 1   
     4    4    5 1   
     5    4   12 2   
     6    5    6 1   
     7    6    7 2   
     8    6   11 1   
     9    7   10 1   
    10    7   16 1   
    11    8    9 2   
    12    8   17 1   
    13    8   18 1   
    14   10   19 1   
    15   11   13 1   
    16   11   20 1   
    17   11   21 1   
    18   12   13 1   
    19   12   22 1   
    20   13   23 1   
    21   13   24 1   
    22   14   15 1   
    23   23   25 1   
@<TRIPOS>SUBSTRUCTURE
     1 KDD         1 TEMP              0 ****  ****    0 ROOT
