@<TRIPOS>MOLECULE
KDD
   25    25     1     0     0
SMALL
bcc


@<TRIPOS>ATOM
      1 O1A        -2.9850    1.8560   -0.7770 o         1 KDD     -0.799800
      2 C1         -2.5240    1.3060    0.2520 c         1 KDD      0.933800
      3 O1B        -2.7930    1.5950    1.4450 o         1 KDD     -0.799800
      4 C2         -1.5440    0.1320    0.0380 ce        1 KDD      0.084900
      5 O6         -0.2390    0.5690   -0.0110 os        1 KDD     -0.316900
      6 C6          0.7640   -0.4540    0.0580 c3        1 KDD      0.105100
      7 C7          2.0650    0.2040   -0.4280 c3        1 KDD      0.103100
      8 C8          2.3720    1.4860    0.3580 c3        1 KDD      0.097400
      9 O8          3.6960    1.4670    0.8600 oh        1 KDD     -0.615800
     10 O7          3.1550   -0.6990   -0.3230 oh        1 KDD     -0.609800
     11 C5          0.4170   -1.6770   -0.7720 c3        1 KDD     -0.131400
     12 C3         -1.9050   -1.1600   -0.0850 c2        1 KDD     -0.399200
     13 C4         -0.9310   -2.2540   -0.3370 c3        1 KDD      0.203300
     14 H6          0.8710   -0.7540    1.1400 h1        1 KDD      0.038700
     15 H7          1.9890    0.4220   -1.5290 h1        1 KDD      0.082700
     16 H8          2.2180    2.3830   -0.2970 h1        1 KDD      0.067700
     17 H8A         1.7160    1.5780    1.2650 h1        1 KDD      0.067700
     18 HO8         4.2790    1.2560    0.1190 ho        1 KDD      0.400000
     19 HO7         3.2620   -0.9050    0.6140 ho        1 KDD      0.406000
     20 H5          0.3540   -1.3930   -1.8530 hc        1 KDD      0.054700
     21 H5A         1.2260   -2.4410   -0.6500 hc        1 KDD      0.054700
     22 H3         -2.9610   -1.4450   -0.0220 ha        1 KDD      0.144000
     23 O61        -0.7580   -3.1060    0.7940 oh        1 KDD     -0.627800
     24 H4         -1.3110   -2.9520   -1.1380 h1        1 KDD      0.054700
     25 H12        -0.8110   -2.5490    1.5790 ho        1 KDD      0.402000
@<TRIPOS>BOND
     1    1    2 1   
     2    2    3 1   
     3    2    4 1   
     4    4    5 1   
     5    4   12 2   
     6    5    6 1   
     7    6    7 1   
     8    6   11 1   
     9    6   14 1   
    10    7    8 1   
    11    7   10 1   
    12    7   15 1   
    13    8    9 1   
    14    8   16 1   
    15    8   17 1   
    16    9   18 1   
    17   10   19 1   
    18   11   13 1   
    19   11   20 1   
    20   11   21 1   
    21   12   13 1   
    22   12   22 1   
    23   13   23 1   
    24   13   24 1   
    25   23   25 1   
@<TRIPOS>SUBSTRUCTURE
     1 KDD         1 TEMP              0 ****  ****    0 ROOT
