@<TRIPOS>MOLECULE
KDE
   36    36     1     0     0
SMALL
bcc


@<TRIPOS>ATOM
      1 O1A        -2.7100   -0.0920    1.9160 o         1 KDE     -0.803300
      2 C1         -1.7460    0.6720    1.6690 c         1 KDE      0.936600
      3 O1B        -1.2550    1.5370    2.4350 o         1 KDE     -0.803300
      4 C2         -1.0760    0.5750    0.2360 c3        1 KDE      0.207600
      5 O2         -1.7090   -0.2440   -0.7290 os        1 KDE     -0.459600
      6 C9         -2.1640   -1.5140   -0.2570 c3        1 KDE      0.165600
      7 C10        -2.0330   -2.4840   -1.3810 c2        1 KDE     -0.148200
      8 C11        -2.4470   -3.7470   -1.3050 c2        1 KDE     -0.266000
      9 C3         -0.9740    1.9740   -0.3780 c3        1 KDE     -0.123400
     10 C4          0.0010    2.0320   -1.5440 c3        1 KDE      0.115100
     11 O4          0.2090    3.3660   -1.9740 oh        1 KDE     -0.610800
     12 C5          1.3430    1.3880   -1.1490 c3        1 KDE      0.089100
     13 O5          1.9920    2.1910   -0.1790 oh        1 KDE     -0.609800
     14 C6          1.0810   -0.0400   -0.6570 c3        1 KDE      0.081100
     15 O6          0.1920   -0.0380    0.4550 os        1 KDE     -0.444600
     16 C7          2.3650   -0.7150   -0.1540 c3        1 KDE      0.117100
     17 O7          2.7480   -0.2650    1.1340 oh        1 KDE     -0.615800
     18 C8          2.1830   -2.2370   -0.1160 c3        1 KDE      0.099400
     19 O8          3.3280   -2.8750    0.4160 oh        1 KDE     -0.616800
     20 H9         -1.5630   -1.8420    0.6330 h1        1 KDE      0.074200
     21 H9A        -3.2360   -1.3940    0.0610 h1        1 KDE      0.074200
     22 H10        -1.5680   -2.0800   -2.2960 ha        1 KDE      0.119000
     23 H11        -2.9140   -4.1620   -0.4030 ha        1 KDE      0.101000
     24 H11A       -2.3450   -4.4490   -2.1410 ha        1 KDE      0.101000
     25 H3         -1.9910    2.2910   -0.7190 hc        1 KDE      0.077700
     26 H3A        -0.6420    2.6700    0.4390 hc        1 KDE      0.077700
     27 H4         -0.4260    1.5030   -2.4400 h1        1 KDE      0.076700
     28 HO4         0.6780    3.8160   -1.2580 ho        1 KDE      0.408000
     29 H5          2.0420    1.3840   -2.0290 h1        1 KDE      0.065700
     30 HO5         1.6070    1.9640    0.6810 ho        1 KDE      0.430000
     31 H6          0.6280   -0.6380   -1.4960 h1        1 KDE      0.058700
     32 H7          3.2300   -0.4380   -0.8180 h1        1 KDE      0.072700
     33 HO7         1.9500   -0.2130    1.6810 ho        1 KDE      0.435000
     34 H8          1.2810   -2.4920    0.5030 h1        1 KDE      0.052700
     35 H8A         2.0660   -2.6510   -1.1500 h1        1 KDE      0.052700
     36 HO8         3.5840   -2.3760    1.2050 ho        1 KDE      0.413000
@<TRIPOS>BOND
     1    1    2 1   
     2    2    3 1   
     3    2    4 1   
     4    4    5 1   
     5    4    9 1   
     6    4   15 1   
     7    5    6 1   
     8    6    7 1   
     9    6   20 1   
    10    6   21 1   
    11    7    8 2   
    12    7   22 1   
    13    8   23 1   
    14    8   24 1   
    15    9   10 1   
    16    9   25 1   
    17    9   26 1   
    18   10   11 1   
    19   10   12 1   
    20   10   27 1   
    21   11   28 1   
    22   12   13 1   
    23   12   14 1   
    24   12   29 1   
    25   13   30 1   
    26   14   15 1   
    27   14   16 1   
    28   14   31 1   
    29   16   17 1   
    30   16   18 1   
    31   16   32 1   
    32   17   33 1   
    33   18   19 1   
    34   18   34 1   
    35   18   35 1   
    36   19   36 1   
@<TRIPOS>SUBSTRUCTURE
     1 KDE         1 TEMP              0 ****  ****    0 ROOT
