@<TRIPOS>MOLECULE
KDE
   36    36     1     0     0
SMALL
bcc


@<TRIPOS>ATOM
      1 O1A         0.9690    1.6230   -0.1740 o         1 KDE     -0.801300
      2 C1          1.5180    0.5050   -0.0150 c         1 KDE      0.932600
      3 O1B         1.6180   -0.4140   -0.8630 o         1 KDE     -0.801300
      4 C2          2.1520    0.2150    1.4070 c3        1 KDE      0.203600
      5 O2          1.2280    0.1790    2.4830 os        1 KDE     -0.464600
      6 C9          0.1730    1.1420    2.3980 c3        1 KDE      0.157600
      7 C10        -0.5080    1.1630    3.7220 c2        1 KDE     -0.144200
      8 C11        -1.4850    2.0160    4.0220 c2        1 KDE     -0.262000
      9 C3          2.9240   -1.1040    1.4390 c3        1 KDE     -0.110400
     10 C4          3.7680   -1.2420    2.6980 c3        1 KDE      0.115100
     11 O4          4.5900   -2.3960    2.6440 oh        1 KDE     -0.610800
     12 C5          4.6360    0.0130    2.9170 c3        1 KDE      0.093100
     13 O5          5.6660    0.0500    1.9450 oh        1 KDE     -0.610800
     14 C6          3.7340    1.2520    2.8980 c3        1 KDE      0.072100
     15 O6          2.9980    1.3290    1.6820 os        1 KDE     -0.446600
     16 C7          4.5240    2.5710    2.9620 c3        1 KDE      0.115100
     17 O7          5.2580    2.7820    1.7720 oh        1 KDE     -0.600800
     18 C8          3.5750    3.7480    3.2200 c3        1 KDE      0.112400
     19 O8          2.9010    4.1520    2.0500 oh        1 KDE     -0.616800
     20 H9          0.5980    2.1470    2.1290 h1        1 KDE      0.070200
     21 H9A        -0.5360    0.8300    1.5820 h1        1 KDE      0.070200
     22 H10        -0.1500    0.4110    4.4450 ha        1 KDE      0.122000
     23 H11        -1.8500    2.7700    3.3120 ha        1 KDE      0.102500
     24 H11A       -1.9840    2.0150    4.9980 ha        1 KDE      0.102500
     25 H3          3.5760   -1.1330    0.5270 hc        1 KDE      0.076200
     26 H3A         2.1950   -1.9480    1.3660 hc        1 KDE      0.076200
     27 H4          3.1060   -1.4020    3.5940 h1        1 KDE      0.074700
     28 HO4         5.2410   -2.2370    1.9460 ho        1 KDE      0.408000
     29 H5          5.1750   -0.0650    3.9020 h1        1 KDE      0.059700
     30 HO5         5.3300    0.5540    1.1900 ho        1 KDE      0.427000
     31 H6          3.0200    1.1850    3.7660 h1        1 KDE      0.057700
     32 H7          5.2990    2.5000    3.7730 h1        1 KDE      0.068700
     33 HO7         4.6100    2.9120    1.0620 ho        1 KDE      0.430000
     34 H8          2.8400    3.4800    4.0250 h1        1 KDE      0.036700
     35 H8A         4.1640    4.6520    3.5320 h1        1 KDE      0.036700
     36 HO8         2.4210    3.3850    1.6920 ho        1 KDE      0.448000
@<TRIPOS>BOND
     1    1    2 1   
     2    2    3 1   
     3    2    4 1   
     4    4    5 1   
     5    4    9 1   
     6    4   15 1   
     7    5    6 1   
     8    6    7 1   
     9    6   20 1   
    10    6   21 1   
    11    7    8 2   
    12    7   22 1   
    13    8   23 1   
    14    8   24 1   
    15    9   10 1   
    16    9   25 1   
    17    9   26 1   
    18   10   11 1   
    19   10   12 1   
    20   10   27 1   
    21   11   28 1   
    22   12   13 1   
    23   12   14 1   
    24   12   29 1   
    25   13   30 1   
    26   14   15 1   
    27   14   16 1   
    28   14   31 1   
    29   16   17 1   
    30   16   18 1   
    31   16   32 1   
    32   17   33 1   
    33   18   19 1   
    34   18   34 1   
    35   18   35 1   
    36   19   36 1   
@<TRIPOS>SUBSTRUCTURE
     1 KDE         1 TEMP              0 ****  ****    0 ROOT
