@<TRIPOS>MOLECULE
KDE
   36    36     1     0     0
SMALL
bcc


@<TRIPOS>ATOM
      1 O1A         0.9490    1.5260   -0.1870 o         1 KDE     -0.801300
      2 C1          1.5070    0.4170    0.0060 c         1 KDE      0.932600
      3 O1B         1.6080   -0.5290   -0.8110 o         1 KDE     -0.801300
      4 C2          2.1510    0.1800    1.4330 c3        1 KDE      0.203600
      5 O2          1.2330    0.1730    2.5150 os        1 KDE     -0.464600
      6 C9          0.1710    1.1250    2.4050 c3        1 KDE      0.157600
      7 C10        -0.5020    1.1870    3.7320 c2        1 KDE     -0.144200
      8 C11        -1.4840    2.0420    4.0080 c2        1 KDE     -0.262000
      9 C3          2.9330   -1.1330    1.5050 c3        1 KDE     -0.110400
     10 C4          3.7840   -1.2240    2.7630 c3        1 KDE      0.115100
     11 O4          4.6140   -2.3730    2.7420 oh        1 KDE     -0.610800
     12 C5          4.6450    0.0450    2.9350 c3        1 KDE      0.093100
     13 O5          5.6690    0.0560    1.9560 oh        1 KDE     -0.610800
     14 C6          3.7340    1.2760    2.8800 c3        1 KDE      0.072100
     15 O6          2.9910    1.3070    1.6660 os        1 KDE     -0.446600
     16 C7          4.5160    2.6010    2.8950 c3        1 KDE      0.115100
     17 O7          5.2420    2.7780    1.6940 oh        1 KDE     -0.600800
     18 C8          3.5600    3.7800    3.1190 c3        1 KDE      0.112400
     19 O8          2.8770    4.1400    1.9400 oh        1 KDE     -0.616800
     20 H9          0.5880    2.1230    2.0990 h1        1 KDE      0.070200
     21 H9A        -0.5400    0.7820    1.6040 h1        1 KDE      0.070200
     22 H10        -0.1340    0.4620    4.4770 ha        1 KDE      0.122000
     23 H11        -1.8590    2.7680    3.2760 ha        1 KDE      0.102500
     24 H11A       -1.9780    2.0690    4.9870 ha        1 KDE      0.102500
     25 H3          3.5790   -1.1880    0.5910 hc        1 KDE      0.076200
     26 H3A         2.2090   -1.9840    1.4640 hc        1 KDE      0.076200
     27 H4          3.1290   -1.3580    3.6670 h1        1 KDE      0.074700
     28 HO4         5.2600   -2.2330    2.0360 ho        1 KDE      0.408000
     29 H5          5.1900    0.0030    3.9180 h1        1 KDE      0.059700
     30 HO5         5.3250    0.5320    1.1870 ho        1 KDE      0.427000
     31 H6          3.0260    1.2330    3.7540 h1        1 KDE      0.057700
     32 H7          5.2960    2.5630    3.7030 h1        1 KDE      0.068700
     33 HO7         4.5890    2.8800    0.9840 ho        1 KDE      0.430000
     34 H8          2.8310    3.5340    3.9370 h1        1 KDE      0.036700
     35 H8A         4.1450    4.6980    3.3970 h1        1 KDE      0.036700
     36 HO8         2.4000    3.3580    1.6110 ho        1 KDE      0.448000
@<TRIPOS>BOND
     1    1    2 1   
     2    2    3 1   
     3    2    4 1   
     4    4    5 1   
     5    4    9 1   
     6    4   15 1   
     7    5    6 1   
     8    6    7 1   
     9    6   20 1   
    10    6   21 1   
    11    7    8 2   
    12    7   22 1   
    13    8   23 1   
    14    8   24 1   
    15    9   10 1   
    16    9   25 1   
    17    9   26 1   
    18   10   11 1   
    19   10   12 1   
    20   10   27 1   
    21   11   28 1   
    22   12   13 1   
    23   12   14 1   
    24   12   29 1   
    25   13   30 1   
    26   14   15 1   
    27   14   16 1   
    28   14   31 1   
    29   16   17 1   
    30   16   18 1   
    31   16   32 1   
    32   17   33 1   
    33   18   19 1   
    34   18   34 1   
    35   18   35 1   
    36   19   36 1   
@<TRIPOS>SUBSTRUCTURE
     1 KDE         1 TEMP              0 ****  ****    0 ROOT
