@<TRIPOS>MOLECULE
KDF
   21    21     1     0     0
SMALL
bcc


@<TRIPOS>ATOM
      1 O1B         2.5590    2.0520   -0.4760 oh        1 KDF     -0.621800
      2 C1          2.3140    0.7260   -0.9010 c3        1 KDF      0.126400
      3 C2          1.6670   -0.1030    0.2100 c3        1 KDF      0.071100
      4 O2          0.5130    0.6010    0.6750 os        1 KDF     -0.439600
      5 C3          1.2110   -1.4850   -0.3070 c3        1 KDF      0.123100
      6 O3          1.5360   -2.5010    0.6250 oh        1 KDF     -0.619800
      7 C4         -0.3030   -1.3370   -0.4830 c3        1 KDF     -0.129400
      8 O5         -0.9940   -0.6620    1.7060 oh        1 KDF     -0.648800
      9 C6         -1.7960    0.7800   -0.1430 c         1 KDF      0.924600
     10 O6A        -1.7900    1.0160   -1.3760 o         1 KDF     -0.812800
     11 C5         -0.6830   -0.1620    0.4270 c3        1 KDF      0.196600
     12 O6B        -2.6310    1.2000    0.7030 o         1 KDF     -0.812800
     13 H1B         1.7220    2.3850   -0.1190 ho        1 KDF      0.429000
     14 H1C1        1.6500    0.7360   -1.8060 h1        1 KDF      0.040200
     15 H1C2        3.3210    0.3090   -1.1640 h1        1 KDF      0.040200
     16 H2          2.3630   -0.2000    1.0850 h1        1 KDF      0.058700
     17 H3          1.7380   -1.7800   -1.2500 h1        1 KDF      0.066700
     18 HA          1.0090   -2.3220    1.4170 ho        1 KDF      0.418000
     19 H4C1       -0.5620   -1.0670   -1.5370 hc        1 KDF      0.077200
     20 H4C2       -0.8430   -2.2660   -0.1870 hc        1 KDF      0.077200
     21 H5         -1.5980   -0.0180    2.1110 ho        1 KDF      0.437000
@<TRIPOS>BOND
     1    1    2 1   
     2    1   13 1   
     3    2    3 1   
     4    2   14 1   
     5    2   15 1   
     6    3    4 1   
     7    3    5 1   
     8    3   16 1   
     9    4   11 1   
    10    5    6 1   
    11    5    7 1   
    12    5   17 1   
    13    6   18 1   
    14    7   11 1   
    15    7   19 1   
    16    7   20 1   
    17    8   11 1   
    18    8   21 1   
    19    9   10 1   
    20    9   11 1   
    21    9   12 1   
@<TRIPOS>SUBSTRUCTURE
     1 KDF         1 TEMP              0 ****  ****    0 ROOT
