@<TRIPOS>MOLECULE
KDF
   21    21     1     0     0
SMALL
bcc


@<TRIPOS>ATOM
      1 O1B         0.2960   -0.4980   -0.2460 oh        1 KDF     -0.621800
      2 C1          1.6870   -0.2730   -0.1280 c3        1 KDF      0.126400
      3 C2          2.0460    0.2770    1.2520 c3        1 KDF      0.071100
      4 O2          1.4940   -0.5990    2.2380 os        1 KDF     -0.439600
      5 C3          3.5750    0.3320    1.4600 c3        1 KDF      0.123100
      6 O3          3.9530    1.5460    2.0850 oh        1 KDF     -0.619800
      7 C4          3.8760   -0.8820    2.3450 c3        1 KDF     -0.129400
      8 O5          2.4620   -0.4820    4.2330 oh        1 KDF     -0.648800
      9 C6          2.2430   -2.7280    3.2090 c         1 KDF      0.924600
     10 O6A         2.5970   -3.5090    2.2920 o         1 KDF     -0.812800
     11 C5          2.5390   -1.2020    3.0250 c3        1 KDF      0.196600
     12 O6B         1.6900   -3.0420    4.2970 o         1 KDF     -0.812800
     13 H1B         0.0400   -1.0390    0.5160 ho        1 KDF      0.429000
     14 H1C1        2.2420   -1.2320   -0.3140 h1        1 KDF      0.040200
     15 H1C2        1.9340    0.4760   -0.9250 h1        1 KDF      0.040200
     16 H2          1.5740    1.2830    1.4100 h1        1 KDF      0.058700
     17 H3          4.1360    0.3210    0.4910 h1        1 KDF      0.066700
     18 HA          3.5620    1.5300    2.9700 ho        1 KDF      0.418000
     19 H4C1        4.6660   -0.6540    3.0970 hc        1 KDF      0.077200
     20 H4C2        4.1800   -1.7640    1.7290 hc        1 KDF      0.077200
     21 H5          1.8630   -0.9820    4.8110 ho        1 KDF      0.437000
@<TRIPOS>BOND
     1    1    2 1   
     2    1   13 1   
     3    2    3 1   
     4    2   14 1   
     5    2   15 1   
     6    3    4 1   
     7    3    5 1   
     8    3   16 1   
     9    4   11 1   
    10    5    6 1   
    11    5    7 1   
    12    5   17 1   
    13    6   18 1   
    14    7   11 1   
    15    7   19 1   
    16    7   20 1   
    17    8   11 1   
    18    8   21 1   
    19    9   10 1   
    20    9   11 1   
    21    9   12 1   
@<TRIPOS>SUBSTRUCTURE
     1 KDF         1 TEMP              0 ****  ****    0 ROOT
