@<TRIPOS>MOLECULE
KDF
   21    21     1     0     0
SMALL
bcc


@<TRIPOS>ATOM
      1 O1B         0.2980   -0.5710   -0.2520 oh        1 KDF     -0.621800
      2 C1          1.6800   -0.2970   -0.1300 c3        1 KDF      0.126400
      3 C2          2.0160    0.2620    1.2530 c3        1 KDF      0.071100
      4 O2          1.4930   -0.6360    2.2350 os        1 KDF     -0.439600
      5 C3          3.5420    0.3690    1.4650 c3        1 KDF      0.123100
      6 O3          3.8750    1.5950    2.0940 oh        1 KDF     -0.619800
      7 C4          3.8830   -0.8350    2.3480 c3        1 KDF     -0.129400
      8 O5          2.4500   -0.4900    4.2330 oh        1 KDF     -0.648800
      9 C6          2.3130   -2.7400    3.2030 c         1 KDF      0.924600
     10 O6A         2.6970   -3.5060    2.2850 o         1 KDF     -0.812800
     11 C5          2.5560   -1.2040    3.0240 c3        1 KDF      0.196600
     12 O6B         1.7680   -3.0750    4.2880 o         1 KDF     -0.812800
     13 H1B         0.0600   -1.1220    0.5080 ho        1 KDF      0.429000
     14 H1C1        2.2690   -1.2350   -0.3160 h1        1 KDF      0.040200
     15 H1C2        1.9030    0.4620   -0.9240 h1        1 KDF      0.040200
     16 H2          1.5080    1.2500    1.4120 h1        1 KDF      0.058700
     17 H3          4.1050    0.3810    0.4970 h1        1 KDF      0.066700
     18 HA          3.4820    1.5630    2.9780 ho        1 KDF      0.418000
     19 H4C1        4.6620   -0.5810    3.1030 hc        1 KDF      0.077200
     20 H4C2        4.2200   -1.7040    1.7310 hc        1 KDF      0.077200
     21 H5          1.8670   -1.0120    4.8080 ho        1 KDF      0.437000
@<TRIPOS>BOND
     1    1    2 1   
     2    1   13 1   
     3    2    3 1   
     4    2   14 1   
     5    2   15 1   
     6    3    4 1   
     7    3    5 1   
     8    3   16 1   
     9    4   11 1   
    10    5    6 1   
    11    5    7 1   
    12    5   17 1   
    13    6   18 1   
    14    7   11 1   
    15    7   19 1   
    16    7   20 1   
    17    8   11 1   
    18    8   21 1   
    19    9   10 1   
    20    9   11 1   
    21    9   12 1   
@<TRIPOS>SUBSTRUCTURE
     1 KDF         1 TEMP              0 ****  ****    0 ROOT
