@<TRIPOS>MOLECULE
KDG
   21    20     1     0     0
SMALL
bcc


@<TRIPOS>ATOM
      1 O1B        -0.0900   -0.0130    4.3810 oh        1 KDG     -0.601800
      2 C1          0.5470    0.3940    3.1790 c3        1 KDG      0.098400
      3 C2         -0.3220   -0.0900    2.0090 c3        1 KDG      0.119100
      4 O2         -1.2850    0.8890    1.6820 oh        1 KDG     -0.603800
      5 C3          0.5870   -0.4590    0.8190 c3        1 KDG      0.109100
      6 O3          1.3120   -1.6390    1.1360 oh        1 KDG     -0.603800
      7 C4         -0.1890   -0.6100   -0.4810 c3        1 KDG     -0.237400
      8 O5          0.0680    1.7440   -0.8520 o         1 KDG     -0.611100
      9 C5         -0.1880    0.6340   -1.3380 c         1 KDG      0.479100
     10 C6         -0.5300    0.3730   -2.8160 c         1 KDG      0.860600
     11 O6A         0.4180    0.0000   -3.5540 o         1 KDG     -0.805300
     12 O6B        -1.7330    0.5120   -3.1560 o         1 KDG     -0.805300
     13 H1B         0.3490    0.4610    5.0950 ho        1 KDG      0.386000
     14 H1C1        0.6460    1.5110    3.1460 h1        1 KDG      0.032200
     15 H1C2        1.5650   -0.0800    3.1240 h1        1 KDG      0.032200
     16 H2         -0.9210   -0.9860    2.3380 h1        1 KDG      0.073700
     17 HA         -0.8820    1.5080    1.0530 ho        1 KDG      0.432000
     18 H3          1.3840    0.3300    0.6950 h1        1 KDG      0.088700
     19 HB          0.6900   -2.3740    1.0920 ho        1 KDG      0.393000
     20 H4C1        0.2650   -1.4370   -1.0910 hc        1 KDG      0.081700
     21 H4C2       -1.2600   -0.8710   -0.2730 hc        1 KDG      0.081700
@<TRIPOS>BOND
     1    1    2 1   
     2    1   13 1   
     3    2    3 1   
     4    2   14 1   
     5    2   15 1   
     6    3    4 1   
     7    3    5 1   
     8    3   16 1   
     9    4   17 1   
    10    5    6 1   
    11    5    7 1   
    12    5   18 1   
    13    6   19 1   
    14    7    9 1   
    15    7   20 1   
    16    7   21 1   
    17    8    9 2   
    18    9   10 1   
    19   10   11 1   
    20   10   12 1   
@<TRIPOS>SUBSTRUCTURE
     1 KDG         1 TEMP              0 ****  ****    0 ROOT
