@<TRIPOS>MOLECULE
KDG
   21    20     1     0     0
SMALL
bcc


@<TRIPOS>ATOM
      1 O1B        -0.0370    0.2990    0.1830 oh        1 KDG     -0.624800
      2 C1          1.3630    0.0900    0.0410 c3        1 KDG      0.093400
      3 C2          1.9520    0.0800    1.4550 c3        1 KDG      0.144100
      4 O2          1.3850   -0.9750    2.2190 oh        1 KDG     -0.597800
      5 C3          3.4710   -0.1720    1.4070 c3        1 KDG      0.161100
      6 O3          3.9790    0.6730    0.3800 oh        1 KDG     -0.641800
      7 C4          4.1050    0.1210    2.7580 c3        1 KDG     -0.231400
      8 O5          6.2300   -0.4090    1.7870 o         1 KDG     -0.613100
      9 C5          5.5840   -0.1630    2.8160 c         1 KDG      0.473100
     10 C6          6.1860   -0.0780    4.2290 c         1 KDG      0.859600
     11 O6A         6.5440    1.0650    4.6190 o         1 KDG     -0.808800
     12 O6B         6.2380   -1.1430    4.8960 o         1 KDG     -0.808800
     13 H1B        -0.4000    0.3240   -0.7080 ho        1 KDG      0.395000
     14 H1C1        1.5510   -0.8940   -0.4630 h1        1 KDG      0.043700
     15 H1C2        1.8250    0.9180   -0.5580 h1        1 KDG      0.043700
     16 H2          1.7380    1.0650    1.9540 h1        1 KDG      0.048700
     17 HA          0.4300   -0.8350    2.2000 ho        1 KDG      0.407000
     18 H3          3.6630   -1.2450    1.1240 h1        1 KDG      0.051700
     19 HB          4.9440    0.6050    0.4260 ho        1 KDG      0.439000
     20 H4C1        3.9640    1.2010    3.0280 hc        1 KDG      0.083700
     21 H4C2        3.5950   -0.5040    3.5380 hc        1 KDG      0.083700
@<TRIPOS>BOND
     1    1    2 1   
     2    1   13 1   
     3    2    3 1   
     4    2   14 1   
     5    2   15 1   
     6    3    4 1   
     7    3    5 1   
     8    3   16 1   
     9    4   17 1   
    10    5    6 1   
    11    5    7 1   
    12    5   18 1   
    13    6   19 1   
    14    7    9 1   
    15    7   20 1   
    16    7   21 1   
    17    8    9 2   
    18    9   10 1   
    19   10   11 1   
    20   10   12 1   
@<TRIPOS>SUBSTRUCTURE
     1 KDG         1 TEMP              0 ****  ****    0 ROOT
