@<TRIPOS>MOLECULE
KDG
   21    20     1     0     0
SMALL
bcc


@<TRIPOS>ATOM
      1 O1B         0.0910    0.6600    0.6070 oh        1 KDG     -0.627800
      2 C1          1.5110    0.5860    0.5540 c3        1 KDG      0.094400
      3 C2          1.9230   -0.5830    1.4500 c3        1 KDG      0.146100
      4 O2          1.3950   -1.8090    0.9620 oh        1 KDG     -0.602800
      5 C3          3.4540   -0.7360    1.5060 c3        1 KDG      0.158100
      6 O3          3.9650   -0.4060    0.2210 oh        1 KDG     -0.630800
      7 C4          4.0380    0.1620    2.5880 c3        1 KDG     -0.237400
      8 O5          6.2190   -0.6110    1.9600 o         1 KDG     -0.605100
      9 C5          5.5270    0.0120    2.7760 c         1 KDG      0.473100
     10 C6          6.0620    0.7090    4.0390 c         1 KDG      0.859600
     11 O6A         6.4590    1.8950    3.9070 o         1 KDG     -0.807800
     12 O6B         6.0160    0.0520    5.1120 o         1 KDG     -0.807800
     13 H1B        -0.1660    1.3770    0.0180 ho        1 KDG      0.396000
     14 H1C1        1.8480    0.4010   -0.5000 h1        1 KDG      0.049200
     15 H1C2        1.9660    1.5370    0.9360 h1        1 KDG      0.049200
     16 H2          1.5280   -0.4130    2.4920 h1        1 KDG      0.044700
     17 HA          0.4600   -1.6490    0.7840 ho        1 KDG      0.404000
     18 H3          3.6990   -1.8130    1.7320 h1        1 KDG      0.059700
     19 HB          4.9250   -0.5210    0.2740 ho        1 KDG      0.434000
     20 H4C1        3.8420    1.2390    2.3420 hc        1 KDG      0.076200
     21 H4C2        3.5500   -0.0660    3.5720 hc        1 KDG      0.076200
@<TRIPOS>BOND
     1    1    2 1   
     2    1   13 1   
     3    2    3 1   
     4    2   14 1   
     5    2   15 1   
     6    3    4 1   
     7    3    5 1   
     8    3   16 1   
     9    4   17 1   
    10    5    6 1   
    11    5    7 1   
    12    5   18 1   
    13    6   19 1   
    14    7    9 1   
    15    7   20 1   
    16    7   21 1   
    17    8    9 2   
    18    9   10 1   
    19   10   11 1   
    20   10   12 1   
@<TRIPOS>SUBSTRUCTURE
     1 KDG         1 TEMP              0 ****  ****    0 ROOT
