@<TRIPOS>MOLECULE
KDG
   21    20     1     0     0
SMALL
bcc


@<TRIPOS>ATOM
      1 O1B        -3.1710    0.0350   -1.8410 oh        1 KDG     -0.624800
      2 C1         -1.7620    0.0810   -1.7950 c3        1 KDG      0.093400
      3 C2         -1.3010   -0.0010   -0.3580 c3        1 KDG      0.144100
      4 O2         -1.7950   -1.1820    0.2270 oh        1 KDG     -0.597800
      5 C3          0.2090   -0.0110   -0.3120 c3        1 KDG      0.161100
      6 O3          0.7000    1.2350   -0.7480 oh        1 KDG     -0.641800
      7 C4          0.6700   -0.2660    1.1050 c3        1 KDG     -0.231400
      8 O5          2.7810   -0.8980    0.2420 o         1 KDG     -0.613100
      9 C5          2.1800   -0.3410    1.1390 c         1 KDG      0.473100
     10 C6          2.9430    0.2760    2.2900 c         1 KDG      0.859600
     11 O6A         3.2080   -0.4110    3.3110 o         1 KDG     -0.808800
     12 O6B         3.3140    1.4780    2.2270 o         1 KDG     -0.808800
     13 H1B        -3.4460    0.2040   -2.6690 ho        1 KDG      0.395000
     14 H1C1       -1.4490    0.9200   -2.1910 h1        1 KDG      0.043700
     15 H1C2       -1.3940   -0.6750   -2.2990 h1        1 KDG      0.043700
     16 H2         -1.6370    0.7730    0.1370 h1        1 KDG      0.048700
     17 HA         -2.4160   -0.9780    0.8300 ho        1 KDG      0.407000
     18 H3          0.5490   -0.7170   -0.8970 h1        1 KDG      0.051700
     19 HB          1.1580    1.1260   -1.5020 ho        1 KDG      0.439000
     20 H4C1        0.2940   -1.1110    1.4230 hc        1 KDG      0.083700
     21 H4C2        0.3670    0.4630    1.6830 hc        1 KDG      0.083700
@<TRIPOS>BOND
     1    1    2 1   
     2    1   13 1   
     3    2    3 1   
     4    2   14 1   
     5    2   15 1   
     6    3    4 1   
     7    3    5 1   
     8    3   16 1   
     9    4   17 1   
    10    5    6 1   
    11    5    7 1   
    12    5   18 1   
    13    6   19 1   
    14    7    9 1   
    15    7   20 1   
    16    7   21 1   
    17    8    9 2   
    18    9   10 1   
    19   10   11 1   
    20   10   12 1   
@<TRIPOS>SUBSTRUCTURE
     1 KDG         1 TEMP              0 ****  ****    0 ROOT
