@<TRIPOS>MOLECULE
KDH
   51    54     1     0     0
SMALL
bcc


@<TRIPOS>ATOM
      1 O1          1.1170    3.3920   -2.3900 oh        1 KDH     -0.488100
      2 C3          0.2790    3.4200   -1.3050 ca        1 KDH      0.150100
      3 C6          0.0570    4.5950   -0.5670 ca        1 KDH     -0.085900
      4 O7          0.7530    5.7520   -0.8720 oh        1 KDH     -0.518100
      5 C9         -0.8000    4.5650    0.5490 ca        1 KDH      0.150100
      6 O10        -1.0330    5.6790    1.3150 oh        1 KDH     -0.488100
      7 C12        -1.4650    3.3830    0.8970 ca        1 KDH     -0.160000
      8 C14        -1.2490    2.2280    0.1350 ca        1 KDH     -0.028300
      9 C15        -1.9750    0.9760    0.5270 c3        1 KDH      0.192400
     10 C20        -2.9020   -0.9530   -0.5000 ca        1 KDH      0.194100
     11 C21        -3.6070   -1.4440   -1.6050 ca        1 KDH     -0.213000
     12 C24        -4.1960   -2.7120   -1.5010 ca        1 KDH      0.184100
     13 C26        -4.1050   -3.4710   -0.3280 ca        1 KDH     -0.274000
     14 C29        -3.3900   -2.9460    0.7570 ca        1 KDH      0.197100
     15 C31        -2.7650   -1.6860    0.6930 ca        1 KDH     -0.259300
     16 C33        -1.1590    0.0750    1.4670 c3        1 KDH      0.133100
     17 C38         2.2870   -1.0860    0.7200 ca        1 KDH     -0.101600
     18 C39         3.4240   -1.5230    1.4130 ca        1 KDH     -0.125000
     19 C41         2.2820   -0.9870   -0.6730 ca        1 KDH     -0.125000
     20 C01        -1.9750   -1.1610    1.8340 c3        1 KDH     -0.046100
     21 O01        -2.3280    0.2910   -0.6870 os        1 KDH     -0.305900
     22 O02        -4.8750   -3.1590   -2.6090 oh        1 KDH     -0.491100
     23 O03        -3.3510   -3.7490    1.8720 oh        1 KDH     -0.495100
     24 C4         -0.3800    2.2310   -0.9560 ca        1 KDH     -0.160000
     25 O35         0.0350   -0.3020    0.7600 os        1 KDH     -0.416900
     26 O37         0.9620   -0.7970    2.7380 o         1 KDH     -0.553000
     27 C43         3.4360   -1.3360   -1.3910 ca        1 KDH      0.093100
     28 O44         3.3800   -1.2270   -2.7580 oh        1 KDH     -0.498600
     29 C46         4.5890   -1.7770   -0.7120 ca        1 KDH      0.054100
     30 O47         5.6830   -2.1000   -1.4790 oh        1 KDH     -0.507100
     31 C49         4.5700   -1.8650    0.6940 ca        1 KDH      0.093100
     32 O50         5.7360   -2.3050    1.2860 oh        1 KDH     -0.498600
     33 HO1         1.6140    4.2270   -2.3990 ho        1 KDH      0.433000
     34 H21        -3.6900   -0.8560   -2.5280 ha        1 KDH      0.170000
     35 H33        -0.8750    0.6440    2.3960 h1        1 KDH      0.088700
     36 H4         -0.2090    1.3120   -1.5380 ha        1 KDH      0.164500
     37 HO7         0.2090    6.2290   -1.5190 ho        1 KDH      0.414000
     38 H01        -2.6640   -0.8910    2.6800 hc        1 KDH      0.063700
     39 H01A       -1.2620   -1.9450    2.2100 hc        1 KDH      0.063700
     40 HO03       -2.8400   -3.3020    2.5610 ho        1 KDH      0.425000
     41 HO10       -0.4000    6.3620    1.0400 ho        1 KDH      0.433000
     42 H12        -2.1450    3.3820    1.7600 ha        1 KDH      0.164500
     43 H15        -2.9320    1.2360    1.0680 h1        1 KDH      0.070700
     44 H26        -4.5760   -4.4580   -0.2440 ha        1 KDH      0.154000
     45 H39         3.4030   -1.5910    2.5120 ha        1 KDH      0.172000
     46 H41         1.3870   -0.6390   -1.2150 ha        1 KDH      0.172000
     47 HO02       -5.2260   -4.0400   -2.4100 ho        1 KDH      0.424000
     48 HO44        4.2430   -1.4900   -3.1170 ho        1 KDH      0.439000
     49 HO47        6.3940   -2.3820   -0.8820 ho        1 KDH      0.451000
     50 HO50        5.5960   -2.3170    2.2440 ho        1 KDH      0.439000
     51 C36         1.0970   -0.7370    1.5110 c         1 KDH      0.656700
@<TRIPOS>BOND
     1    1    2 1   
     2    1   33 1   
     3    2    3 ar  
     4    2   24 ar  
     5    3    4 1   
     6    3    5 ar  
     7    4   37 1   
     8    5    6 1   
     9    5    7 ar  
    10    6   41 1   
    11    7    8 ar  
    12    7   42 1   
    13    8    9 1   
    14    8   24 ar  
    15    9   16 1   
    16    9   21 1   
    17    9   43 1   
    18   10   11 ar  
    19   10   15 ar  
    20   10   21 1   
    21   11   12 ar  
    22   11   34 1   
    23   12   13 ar  
    24   12   22 1   
    25   13   14 ar  
    26   13   44 1   
    27   14   15 ar  
    28   14   23 1   
    29   15   20 1   
    30   16   20 1   
    31   16   25 1   
    32   16   35 1   
    33   17   18 ar  
    34   17   19 ar  
    35   17   51 1   
    36   18   31 ar  
    37   18   45 1   
    38   19   27 ar  
    39   19   46 1   
    40   20   38 1   
    41   20   39 1   
    42   22   47 1   
    43   23   40 1   
    44   24   36 1   
    45   25   51 1   
    46   26   51 2   
    47   27   28 1   
    48   27   29 ar  
    49   28   48 1   
    50   29   30 1   
    51   29   31 ar  
    52   30   49 1   
    53   31   32 1   
    54   32   50 1   
@<TRIPOS>SUBSTRUCTURE
     1 KDH         1 TEMP              0 ****  ****    0 ROOT
