@<TRIPOS>MOLECULE
KDH
   51    53     1     0     0
SMALL
bcc


@<TRIPOS>ATOM
      1 O1          0.0240   -0.0400    0.1750 oh        1 KDH     -0.492100
      2 C3          1.3980   -0.1340    0.0970 ca        1 KDH      0.090600
      3 C6          2.0730   -0.2790    1.3240 ca        1 KDH      0.097100
      4 O7          1.4360   -0.3250    2.5380 oh        1 KDH     -0.469100
      5 C9          3.4820   -0.3830    1.3090 ca        1 KDH      0.090600
      6 O10         4.1040   -0.5210    2.5270 oh        1 KDH     -0.492100
      7 C12         4.1830   -0.3450    0.0990 ca        1 KDH     -0.180000
      8 C14         3.4890   -0.1940   -1.1060 ca        1 KDH     -0.059300
      9 C15         4.2610   -0.1490   -2.3890 c3        1 KDH      0.199400
     10 C20         4.0800   -0.9650   -4.6110 ca        1 KDH      0.199100
     11 C21         3.6940   -2.0440   -5.4180 ca        1 KDH     -0.274000
     12 C24         4.1530   -2.0810   -6.7400 ca        1 KDH      0.184100
     13 C26         4.9890   -1.0820   -7.2570 ca        1 KDH     -0.216000
     14 C29         5.3540   -0.0190   -6.4200 ca        1 KDH      0.192100
     15 C31         4.9000    0.0710   -5.0890 ca        1 KDH     -0.262300
     16 C33         4.4480    1.2730   -2.9390 c3        1 KDH      0.130100
     17 C38         1.6960    3.6020   -3.5170 cg        1 KDH     -0.131200
     18 C39         0.7180    6.9940   -3.1000 c2        1 KDH     -0.209000
     19 C41         0.5810    3.9860   -3.7340 ch        1 KDH     -0.046300
     20 C01         5.2600    1.2250   -4.2290 c3        1 KDH     -0.046100
     21 O01         3.5640   -0.9880   -3.3280 os        1 KDH     -0.308900
     22 O02         3.8180   -3.0990   -7.6010 oh        1 KDH     -0.490100
     23 O03         6.1770    0.9180   -6.9970 oh        1 KDH     -0.491100
     24 C4          2.0980   -0.0900   -1.1130 ca        1 KDH     -0.180000
     25 O35         3.1350    1.8050   -3.1950 os        1 KDH     -0.411900
     26 O37         4.0320    3.8640   -3.1060 o         1 KDH     -0.523000
     27 C43        -0.7270    4.4040   -4.0030 cf        1 KDH      0.053400
     28 O44        -1.6900    3.4150   -4.1940 oh        1 KDH     -0.516100
     29 C46        -1.1830    5.6920   -4.0590 ce        1 KDH      0.157100
     30 O47        -2.4940    5.9580   -4.3730 oh        1 KDH     -0.507100
     31 C49        -0.4280    6.9190   -3.7990 ce        1 KDH      0.087100
     32 O50        -0.9210    8.0920   -4.3450 oh        1 KDH     -0.505100
     33 HO1        -0.3160    0.0710   -0.7250 ho        1 KDH      0.425500
     34 H21         3.0470   -2.8310   -5.0100 ha        1 KDH      0.154000
     35 H33         4.9670    1.9160   -2.1750 h1        1 KDH      0.090700
     36 H4          1.5670    0.0280   -2.0700 ha        1 KDH      0.148500
     37 HO7         0.4830   -0.2410    2.3730 ho        1 KDH      0.435000
     38 H01         5.0910    2.1910   -4.7810 hc        1 KDH      0.064200
     39 H01A        6.3510    1.1720   -3.9600 hc        1 KDH      0.064200
     40 HO03        6.3870    1.5970   -6.3390 ho        1 KDH      0.424000
     41 HO10        5.0560   -0.6010    2.3620 ho        1 KDH      0.425500
     42 H12         5.2780   -0.4370    0.1030 ha        1 KDH      0.148500
     43 H15         5.2940   -0.5820   -2.2400 h1        1 KDH      0.067700
     44 H26         5.3510   -1.1290   -8.2930 ha        1 KDH      0.171000
     45 H39         1.2180    7.9580   -2.9400 ha        1 KDH      0.143000
     46 H41         1.2060    6.1100   -2.6760 ha        1 KDH      0.143000
     47 HO02        3.2500   -3.7210   -7.1220 ho        1 KDH      0.424000
     48 HO44       -1.3260    2.7850   -4.8340 ho        1 KDH      0.428000
     49 HO47       -2.9530    5.1240   -4.5740 ho        1 KDH      0.457000
     50 HO50       -1.8810    8.0110   -4.4490 ho        1 KDH      0.435000
     51 C36         3.0230    3.1720   -3.2630 c         1 KDH      0.678300
@<TRIPOS>BOND
     1    1    2 1   
     2    1   33 1   
     3    2    3 ar  
     4    2   24 ar  
     5    3    4 1   
     6    3    5 ar  
     7    4   37 1   
     8    5    6 1   
     9    5    7 ar  
    10    6   41 1   
    11    7    8 ar  
    12    7   42 1   
    13    8    9 1   
    14    8   24 ar  
    15    9   16 1   
    16    9   21 1   
    17    9   43 1   
    18   10   11 ar  
    19   10   15 ar  
    20   10   21 1   
    21   11   12 ar  
    22   11   34 1   
    23   12   13 ar  
    24   12   22 1   
    25   13   14 ar  
    26   13   44 1   
    27   14   15 ar  
    28   14   23 1   
    29   15   20 1   
    30   16   20 1   
    31   16   25 1   
    32   16   35 1   
    33   17   19 3   
    34   17   51 1   
    35   18   31 2   
    36   18   45 1   
    37   18   46 1   
    38   19   27 1   
    39   20   38 1   
    40   20   39 1   
    41   22   47 1   
    42   23   40 1   
    43   24   36 1   
    44   25   51 1   
    45   26   51 2   
    46   27   28 1   
    47   27   29 2   
    48   28   48 1   
    49   29   30 1   
    50   29   31 1   
    51   30   49 1   
    52   31   32 1   
    53   32   50 1   
@<TRIPOS>SUBSTRUCTURE
     1 KDH         1 TEMP              0 ****  ****    0 ROOT
