@<TRIPOS>MOLECULE
KDI
   61    63     1     0     0
SMALL
bcc


@<TRIPOS>ATOM
      1 C1          0.0630    0.0540   -0.5040 c3        1 KDI      0.159100
      2 N2          1.4840   -0.0250   -0.2620 n3        1 KDI     -0.731600
      3 C3          1.8200   -0.0990    1.1490 c3        1 KDI      0.162300
      4 C4          2.2420    0.9900   -0.9720 c3        1 KDI      0.162300
      5 C5          3.7610    0.8730   -0.7290 c3        1 KDI      0.218300
      6 N6          4.1110    0.7760    0.6710 n3        1 KDI     -0.828500
      7 S7          5.3000    1.6120    1.3370 sy        1 KDI      1.489200
      8 O8          5.7780    0.9940    2.5020 o         1 KDI     -0.622300
      9 O9          6.2130    2.0740    0.3740 o         1 KDI     -0.622300
     10 C10         4.5030    3.0720    1.9150 ca        1 KDI     -0.238500
     11 C11         3.8450    3.0820    3.1470 ca        1 KDI     -0.030500
     12 C12         3.3310    4.2640    3.6730 ca        1 KDI     -0.094000
     13 C13         3.4750    5.4680    2.9580 cp        1 KDI     -0.200500
     14 C14         4.1030    5.4550    1.7020 ca        1 KDI     -0.094000
     15 C15         4.6140    4.2620    1.1940 ca        1 KDI     -0.030500
     16 C16         3.0080    6.7160    3.5490 cp        1 KDI      0.491500
     17 C17         3.0100    6.8620    4.9990 ca        1 KDI      0.387900
     18 N18         2.6170    7.9750    5.6040 nb        1 KDI     -0.597000
     19 C19         2.2010    9.0190    4.8110 ca        1 KDI      0.383900
     20 C20         2.1900    8.8990    3.3940 ca        1 KDI      0.267500
     21 N21         2.5940    7.7500    2.7840 nb        1 KDI     -0.665000
     22 C22         1.7270   10.0180    2.5210 c         1 KDI      0.463600
     23 O23         1.3280   11.0970    2.9500 o         1 KDI     -0.448100
     24 N24         1.7520    9.8020    1.0450 n4        1 KDI     -0.646800
     25 C25         1.2690   10.9890    0.2540 c3        1 KDI      0.113800
     26 C27         0.4480   12.6080   -4.2370 c3        1 KDI      0.110700
     27 C30         1.3140   10.7060   -1.2380 c3        1 KDI     -0.127400
     28 N31         1.7920   10.2410    5.5210 n4        1 KDI     -0.815300
     29 C6          3.3400   -0.2130    1.3920 c3        1 KDI      0.218300
     30 C28         0.8150   11.9360   -1.9950 c3        1 KDI      0.139400
     31 O29         0.8640   11.5630   -3.3640 os        1 KDI     -0.418600
     32 H11C       -0.1180   -0.0060   -1.6100 h1        1 KDI      0.040367
     33 H12C       -0.4360   -0.8210   -0.0100 h1        1 KDI      0.040367
     34 H13C       -0.4020    1.0010   -0.1130 h1        1 KDI      0.040367
     35 H31C        1.4230    0.7890    1.7240 h1        1 KDI      0.038450
     36 H32C        1.3390   -1.0260    1.5710 h1        1 KDI      0.038450
     37 H41C        2.0630    0.8470   -2.0750 h1        1 KDI      0.038450
     38 H42C        1.9060    2.0340   -0.7000 h1        1 KDI      0.038450
     39 H61C        3.5350   -0.1030    2.4970 h1        1 KDI      0.071200
     40 H62C        3.6800   -1.2410    1.0730 h1        1 KDI      0.071200
     41 H51C        4.2670    1.7760   -1.1770 h1        1 KDI      0.071200
     42 H52C        4.1430   -0.0460   -1.2620 h1        1 KDI      0.071200
     43 H11         3.7600    2.1440    3.7290 ha        1 KDI      0.183500
     44 H15         5.1450    4.2610    0.2220 ha        1 KDI      0.183500
     45 H12         2.8050    4.2380    4.6400 ha        1 KDI      0.141000
     46 H14         4.2290    6.3830    1.1230 ha        1 KDI      0.141000
     47 H17         3.3630    6.0360    5.6580 h4        1 KDI      0.110100
     48 H311        0.8970   10.5810    5.1410 hn        1 KDI      0.491467
     49 H312        2.5100   10.9690    5.3860 hn        1 KDI      0.491467
     50 H24         1.1640    8.9840    0.8180 hn        1 KDI      0.487300
     51 H251        0.2150   11.2180    0.5860 hx        1 KDI      0.118700
     52 H252        1.9270   11.8670    0.5140 hx        1 KDI      0.118700
     53 H301        2.3580   10.4760   -1.5820 hc        1 KDI      0.088700
     54 H302        0.6620    9.8330   -1.5100 hc        1 KDI      0.088700
     55 H271        1.1190   13.4950   -4.1320 h1        1 KDI      0.056033
     56 H272        0.5460   12.1550   -5.2570 h1        1 KDI      0.056033
     57 H273       -0.6120   12.8920   -4.0290 h1        1 KDI      0.056033
     58 H281       -0.2380   12.1900   -1.7000 h1        1 KDI      0.045200
     59 H282        1.4800   12.8200   -1.8080 h1        1 KDI      0.045200
     60 H242        2.7180    9.5760    0.7570 hn        1 KDI      0.487300
     61 H313        1.6870   10.0590    6.5350 hn        1 KDI      0.491467
@<TRIPOS>BOND
     1    1    2 1   
     2    1   32 1   
     3    1   33 1   
     4    1   34 1   
     5    2    3 1   
     6    2    4 1   
     7    3   29 1   
     8    3   35 1   
     9    3   36 1   
    10    4    5 1   
    11    4   37 1   
    12    4   38 1   
    13    5    6 1   
    14    5   41 1   
    15    5   42 1   
    16    6    7 1   
    17    6   29 1   
    18    7    8 2   
    19    7    9 2   
    20    7   10 1   
    21   10   11 ar  
    22   10   15 ar  
    23   11   12 ar  
    24   11   43 1   
    25   12   13 ar  
    26   12   45 1   
    27   13   14 ar  
    28   13   16 1   
    29   14   15 ar  
    30   14   46 1   
    31   15   44 1   
    32   16   17 ar  
    33   16   21 ar  
    34   17   18 ar  
    35   17   47 1   
    36   18   19 ar  
    37   19   20 ar  
    38   19   28 1   
    39   20   21 ar  
    40   20   22 1   
    41   22   23 2   
    42   22   24 1   
    43   24   25 1   
    44   24   50 1   
    45   24   60 1   
    46   25   27 1   
    47   25   51 1   
    48   25   52 1   
    49   26   31 1   
    50   26   55 1   
    51   26   56 1   
    52   26   57 1   
    53   27   30 1   
    54   27   53 1   
    55   27   54 1   
    56   28   48 1   
    57   28   49 1   
    58   28   61 1   
    59   29   39 1   
    60   29   40 1   
    61   30   31 1   
    62   30   58 1   
    63   30   59 1   
@<TRIPOS>SUBSTRUCTURE
     1 KDI         1 TEMP              0 ****  ****    0 ROOT
