@<TRIPOS>MOLECULE
KDI
   59    61     1     0     0
SMALL
bcc


@<TRIPOS>ATOM
      1 C1         -3.3930   -2.7920   -3.2950 c3        1 KDI      0.157100
      2 N2         -4.2080   -2.3610   -2.1830 n3        1 KDI     -0.728600
      3 C3         -4.5660   -0.9530   -2.2690 c3        1 KDI      0.152800
      4 C4         -3.6280   -2.7190   -0.8970 c3        1 KDI      0.152800
      5 C5         -4.4700   -2.2270    0.3000 c3        1 KDI      0.227300
      6 N6         -4.8430   -0.8390    0.2090 n3        1 KDI     -0.814500
      7 S7         -4.6040    0.2250    1.4130 sy        1 KDI      1.507200
      8 O8         -5.5150    1.2970    1.2870 o         1 KDI     -0.649800
      9 O9         -4.5790   -0.4580    2.6500 o         1 KDI     -0.649800
     10 C10        -3.0490    0.8240    1.1150 ca        1 KDI     -0.375500
     11 C11        -2.8640    1.9820    0.3490 ca        1 KDI     -0.019500
     12 C12        -1.5920    2.4980    0.1240 ca        1 KDI     -0.142000
     13 C13        -0.4690    1.8600    0.6720 cp        1 KDI     -0.061500
     14 C14        -0.6430    0.7020    1.4420 ca        1 KDI     -0.142000
     15 C15        -1.9220    0.1980    1.6580 ca        1 KDI     -0.019500
     16 C16         0.8680    2.4210    0.4450 cp        1 KDI      0.251500
     17 C17         1.0490    3.8400    0.4650 ca        1 KDI      0.379900
     18 N18         2.2260    4.4290    0.2690 nb        1 KDI     -0.715000
     19 C19         3.3170    3.6060    0.0300 ca        1 KDI      0.615900
     20 C20         3.1310    2.1650    0.0280 ca        1 KDI      0.165500
     21 N21         1.9230    1.6030    0.2310 nb        1 KDI     -0.577000
     22 C22         4.3150    1.2560   -0.1640 c         1 KDI      0.586600
     23 O23         5.4300    1.5530    0.3210 o         1 KDI     -0.634100
     24 N24         4.1390    0.1320   -0.9400 n         1 KDI     -0.533900
     25 C25         5.1620   -0.8740   -1.0630 c3        1 KDI      0.080000
     26 C27         6.5560   -5.4100   -0.0870 c3        1 KDI      0.116700
     27 C30         4.8300   -2.1940   -0.3690 c3        1 KDI     -0.111400
     28 N31         4.5280    4.1790   -0.2630 nh        1 KDI     -0.931500
     29 C6         -5.4040   -0.4700   -1.0660 c3        1 KDI      0.227300
     30 C28         5.9700   -3.1730   -0.5830 c3        1 KDI      0.131400
     31 O29         5.5560   -4.4090   -0.0040 os        1 KDI     -0.421600
     32 H11C       -2.3880   -2.2880   -3.3340 h1        1 KDI      0.034033
     33 H12C       -3.2330   -3.9000   -3.2170 h1        1 KDI      0.034033
     34 H13C       -3.9390   -2.5720   -4.2490 h1        1 KDI      0.034033
     35 H31C       -3.6540   -0.2950   -2.3670 h1        1 KDI      0.038450
     36 H32C       -5.1900   -0.8160   -3.1960 h1        1 KDI      0.038450
     37 H41C       -3.5820   -3.8420   -0.8430 h1        1 KDI      0.038450
     38 H42C       -2.5750   -2.3240   -0.7890 h1        1 KDI      0.038450
     39 H61C       -5.4920    0.6520   -1.1220 h1        1 KDI      0.060950
     40 H62C       -6.4400   -0.9090   -1.1490 h1        1 KDI      0.060950
     41 H51C       -5.4070   -2.8540    0.3630 h1        1 KDI      0.060950
     42 H52C       -3.8750   -2.3900    1.2440 h1        1 KDI      0.060950
     43 H11        -3.7470    2.4980   -0.0690 ha        1 KDI      0.153500
     44 H15        -2.0560   -0.7020    2.2850 ha        1 KDI      0.153500
     45 H12        -1.4690    3.4040   -0.4880 ha        1 KDI      0.148000
     46 H14         0.2290    0.1930    1.8810 ha        1 KDI      0.148000
     47 H17         0.1950    4.5140    0.6640 h4        1 KDI      0.041100
     48 H311        4.6380    5.1590   -0.1410 hn        1 KDI      0.450800
     49 H312        5.3410    3.6080   -0.1910 hn        1 KDI      0.450800
     50 H24         3.2150   -0.1470   -1.1790 hn        1 KDI      0.323500
     51 H251        5.3100   -1.0700   -2.1650 h1        1 KDI      0.064700
     52 H252        6.1290   -0.4690   -0.6470 h1        1 KDI      0.064700
     53 H301        4.6780   -2.0370    0.7300 hc        1 KDI      0.061700
     54 H302        3.8830   -2.6330   -0.7790 hc        1 KDI      0.061700
     55 H271        6.0940   -6.3060    0.3970 h1        1 KDI      0.034033
     56 H272        6.8090   -5.6270   -1.1540 h1        1 KDI      0.034033
     57 H273        7.4760   -5.0950    0.4660 h1        1 KDI      0.034033
     58 H281        6.1760   -3.3240   -1.6770 h1        1 KDI      0.028700
     59 H282        6.9080   -2.8140   -0.0820 h1        1 KDI      0.028700
@<TRIPOS>BOND
     1    1    2 1   
     2    1   32 1   
     3    1   33 1   
     4    1   34 1   
     5    2    3 1   
     6    2    4 1   
     7    3   29 1   
     8    3   35 1   
     9    3   36 1   
    10    4    5 1   
    11    4   37 1   
    12    4   38 1   
    13    5    6 1   
    14    5   41 1   
    15    5   42 1   
    16    6    7 1   
    17    6   29 1   
    18    7    8 2   
    19    7    9 2   
    20    7   10 1   
    21   10   11 ar  
    22   10   15 ar  
    23   11   12 ar  
    24   11   43 1   
    25   12   13 ar  
    26   12   45 1   
    27   13   14 ar  
    28   13   16 1   
    29   14   15 ar  
    30   14   46 1   
    31   15   44 1   
    32   16   17 ar  
    33   16   21 ar  
    34   17   18 ar  
    35   17   47 1   
    36   18   19 ar  
    37   19   20 ar  
    38   19   28 1   
    39   20   21 ar  
    40   20   22 1   
    41   22   23 2   
    42   22   24 1   
    43   24   25 1   
    44   24   50 1   
    45   25   27 1   
    46   25   51 1   
    47   25   52 1   
    48   26   31 1   
    49   26   55 1   
    50   26   56 1   
    51   26   57 1   
    52   27   30 1   
    53   27   53 1   
    54   27   54 1   
    55   28   48 1   
    56   28   49 1   
    57   29   39 1   
    58   29   40 1   
    59   30   31 1   
    60   30   58 1   
    61   30   59 1   
@<TRIPOS>SUBSTRUCTURE
     1 KDI         1 TEMP              0 ****  ****    0 ROOT
