@<TRIPOS>MOLECULE
KDI
   59    56     1     0     0
SMALL
bcc


@<TRIPOS>ATOM
      1 C1          1.5820   -6.2220    5.3360 c3        1 KDI     -0.119000
      2 N2          0.3680   -6.3100    4.5530 n3        1 KDI     -0.254000
      3 C3          0.6780   -6.1200    3.1730 c3        1 KDI     -0.084000
      4 C4         -0.5830   -5.3630    5.0380 c3        1 KDI     -0.084000
      5 C5         -1.8320   -5.2950    4.1650 c3        1 KDI     -0.009500
      6 N6         -1.5210   -5.1050    2.7850 n3        1 KDI     -0.834000
      7 S7         -2.6980   -4.4830    1.7330 s4        1 KDI      2.062800
      8 O8         -2.9490   -5.3820    0.6440 o         1 KDI     -0.537900
      9 O9         -3.9920   -4.4410    2.3640 o         1 KDI     -0.537900
     10 C10        -2.2010   -2.8310    1.1300 c1        1 KDI     -0.820000
     11 C11        -2.2600   -1.7330    1.9920 c2        1 KDI     -0.019000
     12 C12        -2.0630   -0.4490    1.4980 c1        1 KDI     -0.154000
     13 C13        -1.8060   -0.2530    0.1410 c1        1 KDI      0.046000
     14 C14        -1.7470   -1.3420   -0.7160 c1        1 KDI     -0.130000
     15 C15        -1.9450   -2.6380   -0.2190 c1        1 KDI     -0.021000
     16 C16        -1.7940    1.1680   -0.4320 c2        1 KDI     -0.120000
     17 C17        -2.9780    1.7510   -0.8590 c2        1 KDI     -0.020000
     18 N18        -2.9580    2.9660   -1.4480 n1        1 KDI     -0.189000
     19 C19        -1.7850    3.6130   -1.6230 c1        1 KDI      0.159000
     20 C20        -0.6010    3.0290   -1.1960 c1        1 KDI     -0.186000
     21 N21        -0.6220    1.8150   -0.6070 n1        1 KDI     -0.050000
     22 C22         0.7520    3.7400   -1.4580 c2        1 KDI      0.376000
     23 O23         1.7920    3.2260   -1.0820 o         1 KDI     -0.401000
     24 N24         0.7710    5.0760   -2.0380 n         1 KDI     -0.354000
     25 C25         2.0340    5.6710   -2.4480 c3        1 KDI     -0.029000
     26 C27         4.7790    6.5250   -6.3120 c3        1 KDI     -0.073000
     27 C30         2.0800    5.7730   -3.9690 c3        1 KDI     -0.181000
     28 N31        -1.7480    4.8200   -2.3780 n3        1 KDI     -0.329000
     29 C6         -0.5670   -6.0530    2.3020 c3        1 KDI     -0.009500
     30 C28         3.4610    6.2500   -4.4080 c3        1 KDI     -0.020000
     31 O29         3.5030    6.3340   -5.7980 os        1 KDI     -0.279000
     32 H11C        1.8390   -7.1210    5.6460 h1        1 KDI      0.073667
     33 H12C        2.3010   -5.8480    4.7840 h1        1 KDI      0.073667
     34 H13C        1.4300   -5.6410    6.1100 h1        1 KDI      0.073667
     35 H31C        1.1790   -5.2850    3.0730 h1        1 KDI      0.077750
     36 H32C        1.2400   -6.8670    2.8680 h1        1 KDI      0.077750
     37 H41C       -0.8450   -5.6140    5.9470 h1        1 KDI      0.077750
     38 H42C       -0.1650   -4.4800    5.0620 h1        1 KDI      0.077750
     39 H61C       -0.9850   -6.9410    2.2790 h1        1 KDI      0.100000
     40 H62C       -0.3040   -5.8030    1.3920 h1        1 KDI      0.100000
     41 H51C       -2.3360   -6.1310    4.2650 h1        1 KDI      0.100000
     42 H52C       -2.3890   -4.5520    4.4680 h1        1 KDI      0.100000
     43 H11        -2.4410   -1.8680    2.9430 ha        1 KDI      0.153000
     44 H15        -1.9030   -3.4010   -0.8210 ha        1 KDI      0.153000
     45 H12        -2.1050    0.3230    2.1050 ha        1 KDI      0.141000
     46 H14        -1.5660   -1.2050   -1.6710 ha        1 KDI      0.155000
     47 H17        -3.8280    1.2830   -0.7330 h4        1 KDI      0.178000
     48 H311       -1.0320    4.9970   -2.9250 hn        1 KDI      0.246000
     49 H312       -2.4520    5.4080   -2.3390 hn        1 KDI      0.246000
     50 H24         0.0070    5.5660   -2.0720 hn        1 KDI      0.242000
     51 H251        2.7730    5.1130   -2.1380 h1        1 KDI      0.099000
     52 H252        2.1150    6.5670   -2.0580 h1        1 KDI      0.099000
     53 H301        1.8990    4.8920   -4.3610 hc        1 KDI      0.100500
     54 H302        1.4010    6.4120   -4.2740 hc        1 KDI      0.100500
     55 H271        4.7420    6.5180   -7.2880 h1        1 KDI      0.073000
     56 H272        5.1290    7.3890   -6.0040 h1        1 KDI      0.073000
     57 H273        5.3660    5.8060   -6.0030 h1        1 KDI      0.073000
     58 H281        4.1410    5.6140   -4.0980 h1        1 KDI      0.069000
     59 H282        3.6390    7.1330   -4.0210 h1        1 KDI      0.069000
@<TRIPOS>BOND
     1    1    2 1   
     2    1   32 1   
     3    1   33 1   
     4    1   34 1   
     5    2    3 1   
     6    2    4 1   
     7    3   29 1   
     8    3   35 1   
     9    3   36 1   
    10    4    5 1   
    11    4   37 1   
    12    4   38 1   
    13    5    6 1   
    14    5   41 1   
    15    5   42 1   
    16    6    7 1   
    17    6   29 1   
    18    7    8 1   
    19    7    9 1   
    20   10   11 1   
    21   10   15 1   
    22   11   12 1   
    23   11   43 1   
    24   12   45 1   
    25   13   14 1   
    26   13   16 1   
    27   14   46 1   
    28   15   44 1   
    29   16   17 1   
    30   16   21 1   
    31   17   18 1   
    32   17   47 1   
    33   19   20 1   
    34   19   28 1   
    35   20   22 1   
    36   22   23 1   
    37   22   24 1   
    38   24   25 1   
    39   24   50 1   
    40   25   27 1   
    41   25   51 1   
    42   25   52 1   
    43   26   31 1   
    44   26   55 1   
    45   26   56 1   
    46   26   57 1   
    47   27   30 1   
    48   27   53 1   
    49   27   54 1   
    50   28   48 1   
    51   28   49 1   
    52   29   39 1   
    53   29   40 1   
    54   30   31 1   
    55   30   58 1   
    56   30   59 1   
@<TRIPOS>SUBSTRUCTURE
     1 KDI         1 TEMP              0 ****  ****    0 ROOT
