@<TRIPOS>MOLECULE
KDI
   60    62     1     0     0
SMALL
bcc


@<TRIPOS>ATOM
      1 C1          0.1220    0.9370   -0.9590 c3        1 KDI      0.159100
      2 N2          1.4610    0.5620   -0.5670 n3        1 KDI     -0.729600
      3 C3          1.5930    0.3590    0.8670 c3        1 KDI      0.158300
      4 C4          2.4770    1.4500   -1.1100 c3        1 KDI      0.158300
      5 C5          3.9060    1.0530   -0.6840 c3        1 KDI      0.223800
      6 N6          4.0410    0.8320    0.7350 n3        1 KDI     -0.821500
      7 S7          5.2340    1.4660    1.6180 sy        1 KDI      1.500200
      8 O8          5.4490    0.6950    2.7770 o         1 KDI     -0.637300
      9 O9          6.3410    1.7710    0.8020 o         1 KDI     -0.637300
     10 C10         4.5910    2.9710    2.1460 ca        1 KDI     -0.324500
     11 C11         3.8060    3.0440    3.3000 ca        1 KDI     -0.018500
     12 C12         3.3500    4.2690    3.7790 ca        1 KDI     -0.130500
     13 C13         3.6840    5.4490    3.1000 cp        1 KDI     -0.121500
     14 C14         4.4600    5.3870    1.9380 ca        1 KDI     -0.130500
     15 C15         4.9090    4.1520    1.4710 ca        1 KDI     -0.018500
     16 C16         3.2430    6.7420    3.6420 cp        1 KDI      0.334500
     17 C17         3.3610    6.9580    5.0850 ca        1 KDI      0.425900
     18 N18         3.0070    8.0740    5.6740 nb        1 KDI     -0.685000
     19 C19         2.4880    9.1120    4.8710 ca        1 KDI      0.682900
     20 C20         2.3720    8.8920    3.4420 ca        1 KDI      0.049500
     21 N21         2.7610    7.6990    2.8650 nb        1 KDI     -0.622000
     22 C22         1.8390    9.9270    2.5730 c         1 KDI      0.487600
     23 O23         1.4420   11.0520    2.8750 o         1 KDI     -0.497100
     24 N24         1.7540    9.5860    1.0960 n4        1 KDI     -0.653800
     25 C25         1.1950   10.6900    0.2630 c3        1 KDI      0.107800
     26 C27        -0.0100   12.0300   -4.2300 c3        1 KDI      0.112700
     27 C30         1.1220   10.3110   -1.2080 c3        1 KDI     -0.118400
     28 N31         2.1260   10.2580    5.4880 nh        1 KDI     -0.897500
     29 C6          3.0260   -0.0320    1.2860 c3        1 KDI      0.223800
     30 C28         0.5460   11.4820   -1.9960 c3        1 KDI      0.136400
     31 O29         0.5000   11.0400   -3.3470 os        1 KDI     -0.419600
     32 H11C       -0.5930    0.1560   -0.5890 h1        1 KDI      0.035700
     33 H12C       -0.1970    1.9370   -0.5530 h1        1 KDI      0.035700
     34 H13C        0.0710    0.9730   -2.0780 h1        1 KDI      0.035700
     35 H31C        0.9100   -0.4880    1.1570 h1        1 KDI      0.036950
     36 H32C        1.2770    1.2730    1.4500 h1        1 KDI      0.036950
     37 H41C        2.4250    1.3840   -2.2330 h1        1 KDI      0.036950
     38 H42C        2.2930    2.5250   -0.8170 h1        1 KDI      0.036950
     39 H61C        3.0870   -0.0070    2.4120 h1        1 KDI      0.065450
     40 H62C        3.2240   -1.0910    0.9470 h1        1 KDI      0.065450
     41 H51C        4.1950    0.1080   -1.2300 h1        1 KDI      0.065450
     42 H52C        4.6130    1.8720   -1.0020 h1        1 KDI      0.065450
     43 H11         3.5650    2.1170    3.8520 ha        1 KDI      0.166500
     44 H15         5.5480    4.1060    0.5690 ha        1 KDI      0.166500
     45 H12         2.7290    4.3040    4.6880 ha        1 KDI      0.141500
     46 H14         4.7360    6.3060    1.4010 ha        1 KDI      0.141500
     47 H17         3.7750    6.1540    5.7290 h4        1 KDI      0.074100
     48 H311        2.2290   10.3560    6.4760 hn        1 KDI      0.477300
     49 H312        1.7580   11.0240    4.9710 hn        1 KDI      0.477300
     50 H24         2.6960    9.3500    0.7620 hn        1 KDI      0.466300
     51 H251        0.1680   10.9380    0.6600 hx        1 KDI      0.111700
     52 H252        1.8500   11.5980    0.4070 hx        1 KDI      0.111700
     53 H301        2.1380   10.0660   -1.6160 hc        1 KDI      0.079200
     54 H302        0.4660    9.4140   -1.3640 hc        1 KDI      0.079200
     55 H271        0.0180   11.5350   -5.2340 h1        1 KDI      0.048367
     56 H272        0.6420   12.9380   -4.2190 h1        1 KDI      0.048367
     57 H273       -1.0580   12.3010   -3.9520 h1        1 KDI      0.048367
     58 H281       -0.4870   11.7390   -1.6400 h1        1 KDI      0.041200
     59 H282        1.2040   12.3870   -1.9090 h1        1 KDI      0.041200
     60 H242        1.1690    8.7480    0.9900 hn        1 KDI      0.466300
@<TRIPOS>BOND
     1    1    2 1   
     2    1   32 1   
     3    1   33 1   
     4    1   34 1   
     5    2    3 1   
     6    2    4 1   
     7    3   29 1   
     8    3   35 1   
     9    3   36 1   
    10    4    5 1   
    11    4   37 1   
    12    4   38 1   
    13    5    6 1   
    14    5   41 1   
    15    5   42 1   
    16    6    7 1   
    17    6   29 1   
    18    7    8 2   
    19    7    9 2   
    20    7   10 1   
    21   10   11 ar  
    22   10   15 ar  
    23   11   12 ar  
    24   11   43 1   
    25   12   13 ar  
    26   12   45 1   
    27   13   14 ar  
    28   13   16 1   
    29   14   15 ar  
    30   14   46 1   
    31   15   44 1   
    32   16   17 ar  
    33   16   21 ar  
    34   17   18 ar  
    35   17   47 1   
    36   18   19 ar  
    37   19   20 ar  
    38   19   28 1   
    39   20   21 ar  
    40   20   22 1   
    41   22   23 2   
    42   22   24 1   
    43   24   25 1   
    44   24   50 1   
    45   24   60 1   
    46   25   27 1   
    47   25   51 1   
    48   25   52 1   
    49   26   31 1   
    50   26   55 1   
    51   26   56 1   
    52   26   57 1   
    53   27   30 1   
    54   27   53 1   
    55   27   54 1   
    56   28   48 1   
    57   28   49 1   
    58   29   39 1   
    59   29   40 1   
    60   30   31 1   
    61   30   58 1   
    62   30   59 1   
@<TRIPOS>SUBSTRUCTURE
     1 KDI         1 TEMP              0 ****  ****    0 ROOT
