@<TRIPOS>MOLECULE
KDI
   60    62     1     0     0
SMALL
bcc


@<TRIPOS>ATOM
      1 C1          0.1400    0.9470   -0.9910 c3        1 KDI      0.159100
      2 N2          1.4750    0.5700   -0.5890 n3        1 KDI     -0.729600
      3 C3          1.5950    0.3640    0.8460 c3        1 KDI      0.158300
      4 C4          2.4960    1.4580   -1.1210 c3        1 KDI      0.158300
      5 C5          3.9210    1.0590   -0.6840 c3        1 KDI      0.223800
      6 N6          4.0440    0.8340    0.7350 n3        1 KDI     -0.821500
      7 S7          5.2310    1.4650    1.6290 sy        1 KDI      1.500200
      8 O8          5.4360    0.6910    2.7880 o         1 KDI     -0.637300
      9 O9          6.3450    1.7710    0.8220 o         1 KDI     -0.637300
     10 C10         4.5860    2.9700    2.1550 ca        1 KDI     -0.324500
     11 C11         3.7930    3.0410    3.3050 ca        1 KDI     -0.018500
     12 C12         3.3340    4.2660    3.7830 ca        1 KDI     -0.130500
     13 C13         3.6740    5.4460    3.1080 cp        1 KDI     -0.121500
     14 C14         4.4570    5.3860    1.9500 ca        1 KDI     -0.130500
     15 C15         4.9080    4.1520    1.4840 ca        1 KDI     -0.018500
     16 C16         3.2290    6.7390    3.6490 cp        1 KDI      0.334500
     17 C17         3.3390    6.9530    5.0930 ca        1 KDI      0.425900
     18 N18         2.9820    8.0680    5.6820 nb        1 KDI     -0.685000
     19 C19         2.4670    9.1060    4.8780 ca        1 KDI      0.682900
     20 C20         2.3590    8.8890    3.4480 ca        1 KDI      0.049500
     21 N21         2.7510    7.6960    2.8710 nb        1 KDI     -0.622000
     22 C22         1.8300    9.9250    2.5770 c         1 KDI      0.487600
     23 O23         1.4310   11.0490    2.8790 o         1 KDI     -0.497100
     24 N24         1.7520    9.5850    1.0990 ny        1 KDI     -0.653800
     25 C25         1.1970   10.6910    0.2650 c3        1 KDI      0.107800
     26 C27         0.0150   12.0360   -4.2330 c3        1 KDI      0.112700
     27 C30         1.1310   10.3130   -1.2070 c3        1 KDI     -0.118400
     28 N31         2.1020   10.2510    5.4940 nv        1 KDI     -0.897500
     29 C6          3.0230   -0.0300    1.2760 c3        1 KDI      0.223800
     30 C28         0.5590   11.4850   -1.9960 c3        1 KDI      0.136400
     31 O29         0.5210   11.0450   -3.3480 os        1 KDI     -0.419600
     32 H11C       -0.5800    0.1660   -0.6290 h1        1 KDI      0.035700
     33 H12C        0.0980    0.9850   -2.1110 h1        1 KDI      0.035700
     34 H13C       -0.1820    1.9460   -0.5850 h1        1 KDI      0.035700
     35 H31C        0.9080   -0.4830    1.1290 h1        1 KDI      0.036950
     36 H32C        1.2750    1.2780    1.4280 h1        1 KDI      0.036950
     37 H41C        2.4540    1.3940   -2.2450 h1        1 KDI      0.036950
     38 H42C        2.3110    2.5330   -0.8280 h1        1 KDI      0.036950
     39 H61C        3.2240   -1.0880    0.9360 h1        1 KDI      0.065450
     40 H62C        3.0750   -0.0060    2.4020 h1        1 KDI      0.065450
     41 H51C        4.6320    1.8770   -0.9950 h1        1 KDI      0.065450
     42 H52C        4.2140    0.1140   -1.2290 h1        1 KDI      0.065450
     43 H11         3.5490    2.1130    3.8540 ha        1 KDI      0.166500
     44 H15         5.5520    4.1070    0.5870 ha        1 KDI      0.166500
     45 H12         2.7080    4.2990    4.6880 ha        1 KDI      0.141500
     46 H14         4.7360    6.3060    1.4170 ha        1 KDI      0.141500
     47 H17         3.7500    6.1480    5.7390 h4        1 KDI      0.074100
     48 H311        2.1990   10.3490    6.4830 hn        1 KDI      0.477300
     49 H312        1.7370   11.0190    4.9760 hn        1 KDI      0.477300
     50 H24         2.6970    9.3500    0.7700 hn        1 KDI      0.466300
     51 H251        1.8510   11.5980    0.4130 hx        1 KDI      0.111700
     52 H252        0.1680   10.9370    0.6570 hx        1 KDI      0.111700
     53 H301        2.1500   10.0690   -1.6100 hc        1 KDI      0.079200
     54 H302        0.4770    9.4160   -1.3680 hc        1 KDI      0.079200
     55 H271        0.6660   12.9440   -4.2170 h1        1 KDI      0.048367
     56 H272        0.0490   11.5430   -5.2370 h1        1 KDI      0.048367
     57 H273       -1.0340   12.3070   -3.9600 h1        1 KDI      0.048367
     58 H281       -0.4760   11.7400   -1.6450 h1        1 KDI      0.041200
     59 H282        1.2160   12.3910   -1.9050 h1        1 KDI      0.041200
     60 H242        1.1690    8.7470    0.9890 hn        1 KDI      0.466300
@<TRIPOS>BOND
     1    1    2 1   
     2    1   32 1   
     3    1   33 1   
     4    1   34 1   
     5    2    3 1   
     6    2    4 1   
     7    3   29 1   
     8    3   35 1   
     9    3   36 1   
    10    4    5 1   
    11    4   37 1   
    12    4   38 1   
    13    5    6 1   
    14    5   41 1   
    15    5   42 1   
    16    6    7 1   
    17    6   29 1   
    18    7    8 2   
    19    7    9 2   
    20    7   10 1   
    21   10   11 ar  
    22   10   15 ar  
    23   11   12 ar  
    24   11   43 1   
    25   12   13 ar  
    26   12   45 1   
    27   13   14 ar  
    28   13   16 1   
    29   14   15 ar  
    30   14   46 1   
    31   15   44 1   
    32   16   17 ar  
    33   16   21 ar  
    34   17   18 ar  
    35   17   47 1   
    36   18   19 ar  
    37   19   20 ar  
    38   19   28 1   
    39   20   21 ar  
    40   20   22 1   
    41   22   23 2   
    42   22   24 1   
    43   24   25 1   
    44   24   50 1   
    45   24   60 1   
    46   25   27 1   
    47   25   51 1   
    48   25   52 1   
    49   26   31 1   
    50   26   55 1   
    51   26   56 1   
    52   26   57 1   
    53   27   30 1   
    54   27   53 1   
    55   27   54 1   
    56   28   48 1   
    57   28   49 1   
    58   29   39 1   
    59   29   40 1   
    60   30   31 1   
    61   30   58 1   
    62   30   59 1   
@<TRIPOS>SUBSTRUCTURE
     1 KDI         1 TEMP              0 ****  ****    0 ROOT
