@<TRIPOS>MOLECULE
KDM
   33    33     1     0     0
SMALL
bcc


@<TRIPOS>ATOM
      1 C1          1.5410    1.0000   -0.8370 c3        1 KDM      0.219600
      2 C10         1.7180    1.9740    0.3800 c         1 KDM      0.900600
      3 C2          2.5610   -0.1420   -0.8470 c3        1 KDM     -0.108400
      4 C3          2.2170   -1.1500    0.2380 c3        1 KDM      0.090100
      5 C4          0.7790   -1.6470    0.0420 c3        1 KDM      0.122100
      6 C5         -0.1650   -0.4300    0.0770 c3        1 KDM      0.124100
      7 C6         -1.6030   -0.8780   -0.2390 c3        1 KDM      0.119100
      8 C7         -2.6310    0.1030    0.3580 c3        1 KDM      0.109100
      9 C9         -4.0500   -0.3500   -0.0130 c3        1 KDM      0.097400
     10 O4          0.3830   -2.5330    1.0810 oh        1 KDM     -0.618800
     11 O8          1.7390    3.1990    0.0870 o         1 KDM     -0.813300
     12 O9          1.8420    1.4800    1.5300 o         1 KDM     -0.813300
     13 O3          3.0570   -2.3020    0.1710 oh        1 KDM     -0.633800
     14 O5          0.1920    0.5000   -0.9350 os        1 KDM     -0.461600
     15 O6         -1.8220   -1.0400   -1.6270 oh        1 KDM     -0.613800
     16 O7         -2.5090    0.1950    1.7660 oh        1 KDM     -0.580800
     17 O10        -4.8540    0.8150   -0.1240 oh        1 KDM     -0.591800
     18 O1          1.6270    1.6720   -2.0680 oh        1 KDM     -0.613800
     19 H21C        2.5670   -0.6390   -1.8500 hc        1 KDM      0.050700
     20 H22C        3.5750    0.2920   -0.6600 hc        1 KDM      0.050700
     21 H1          1.3870    2.5980   -1.8930 ho        1 KDM      0.437000
     22 H3          2.3140   -0.6660    1.2550 h1        1 KDM      0.108700
     23 H4          0.6850   -2.1830   -0.9430 h1        1 KDM      0.050700
     24 HA          3.9610   -1.9800    0.2520 ho        1 KDM      0.400000
     25 H5         -0.1100    0.0660    1.0890 h1        1 KDM      0.108700
     26 HB          1.1490   -3.0880    1.2700 ho        1 KDM      0.412000
     27 H6         -1.7680   -1.9050    0.1990 h1        1 KDM      0.072700
     28 H7         -2.4450    1.1490   -0.0170 h1        1 KDM      0.112700
     29 HC         -1.4350   -0.2740   -2.0770 ho        1 KDM      0.431000
     30 H91C       -4.0370   -0.8980   -0.9940 h1        1 KDM      0.027700
     31 H92C       -4.4630   -1.0200    0.7870 h1        1 KDM      0.027700
     32 HD         -2.2960   -0.6860    2.0990 ho        1 KDM      0.393000
     33 H10        -5.7240    0.5160   -0.4100 ho        1 KDM      0.383000
@<TRIPOS>BOND
     1    1    2 1   
     2    1    3 1   
     3    1   14 1   
     4    1   18 1   
     5    2   11 1   
     6    2   12 1   
     7    3    4 1   
     8    3   19 1   
     9    3   20 1   
    10    4    5 1   
    11    4   13 1   
    12    4   22 1   
    13    5    6 1   
    14    5   10 1   
    15    5   23 1   
    16    6    7 1   
    17    6   14 1   
    18    6   25 1   
    19    7    8 1   
    20    7   15 1   
    21    7   27 1   
    22    8    9 1   
    23    8   16 1   
    24    8   28 1   
    25    9   17 1   
    26    9   30 1   
    27    9   31 1   
    28   10   26 1   
    29   13   24 1   
    30   15   29 1   
    31   16   32 1   
    32   17   33 1   
    33   18   21 1   
@<TRIPOS>SUBSTRUCTURE
     1 KDM         1 TEMP              0 ****  ****    0 ROOT
