@<TRIPOS>MOLECULE
KDN
   33    33     1     0     0
SMALL
bcc


@<TRIPOS>ATOM
      1 C1          0.0760   -0.1840   -0.0140 c3        1 KDN      0.203600
      2 C10        -0.3750   -0.5610   -1.4810 c         1 KDN      0.928600
      3 C2          1.5890   -0.0090    0.0820 c3        1 KDN     -0.114400
      4 C3          2.0560    0.0730    1.5230 c3        1 KDN      0.103100
      5 C4          1.4900   -1.1030    2.3360 c3        1 KDN      0.087100
      6 C5         -0.0390   -1.1280    2.2020 c3        1 KDN      0.120100
      7 C6         -0.6290   -2.3820    2.8710 c3        1 KDN      0.162100
      8 C7         -2.1650   -2.2700    2.9070 c3        1 KDN      0.071100
      9 C9         -2.8330   -3.6380    3.0670 c3        1 KDN      0.093400
     10 O4          1.8100   -0.9720    3.7140 oh        1 KDN     -0.606800
     11 O9          0.3410   -1.3640   -2.1240 o         1 KDN     -0.806300
     12 O8         -1.4200    0.0190   -1.8760 o         1 KDN     -0.806300
     13 O3          3.4730    0.0840    1.6370 oh        1 KDN     -0.621800
     14 O5         -0.4100   -1.2250    0.8300 os        1 KDN     -0.444600
     15 O6         -0.2380   -3.5650    2.1990 oh        1 KDN     -0.616800
     16 O7         -2.4880   -1.4350    4.0110 oh        1 KDN     -0.598800
     17 O10        -4.2440   -3.5020    3.0520 oh        1 KDN     -0.620800
     18 O1         -0.5620    0.9770    0.4590 oh        1 KDN     -0.647800
     19 H21C        1.8790    0.9240   -0.4640 hc        1 KDN      0.071200
     20 H22C        2.0580   -0.8840   -0.4400 hc        1 KDN      0.071200
     21 H1         -1.3840    1.0690   -0.0520 ho        1 KDN      0.438000
     22 H3          1.7310    1.0450    1.9920 h1        1 KDN      0.089700
     23 H4          1.9170   -2.0750    1.9570 h1        1 KDN      0.048700
     24 HA          3.8090   -0.6220    1.0710 ho        1 KDN      0.397000
     25 H5         -0.4840   -0.2040    2.6600 h1        1 KDN      0.079700
     26 HB          2.7120   -0.6260    3.7490 ho        1 KDN      0.406000
     27 H6         -0.2180   -2.4770    3.9140 h1        1 KDN      0.093700
     28 H7         -2.5250   -1.7840    1.9550 h1        1 KDN      0.065700
     29 HC         -0.3230   -3.3990    1.2480 ho        1 KDN      0.430000
     30 HD         -3.4480   -1.4760    4.1040 ho        1 KDN      0.402000
     31 H91C       -2.5980   -4.0780    4.0720 h1        1 KDN      0.061700
     32 H92C       -2.4910   -4.3320    2.2560 h1        1 KDN      0.061700
     33 H10        -4.4860   -3.1650    2.1820 ho        1 KDN      0.400000
@<TRIPOS>BOND
     1    1    2 1   
     2    1    3 1   
     3    1   14 1   
     4    1   18 1   
     5    2   11 1   
     6    2   12 1   
     7    3    4 1   
     8    3   19 1   
     9    3   20 1   
    10    4    5 1   
    11    4   13 1   
    12    4   22 1   
    13    5    6 1   
    14    5   10 1   
    15    5   23 1   
    16    6    7 1   
    17    6   14 1   
    18    6   25 1   
    19    7    8 1   
    20    7   15 1   
    21    7   27 1   
    22    8    9 1   
    23    8   16 1   
    24    8   28 1   
    25    9   17 1   
    26    9   31 1   
    27    9   32 1   
    28   10   26 1   
    29   13   24 1   
    30   15   29 1   
    31   16   30 1   
    32   17   33 1   
    33   18   21 1   
@<TRIPOS>SUBSTRUCTURE
     1 KDN         1 TEMP              0 ****  ****    0 ROOT
