@<TRIPOS>MOLECULE
KDN
   33    33     1     0     0
SMALL
bcc


@<TRIPOS>ATOM
      1 C1          0.0190    1.1780   -2.1720 c3        1 KDN      0.220600
      2 C10        -0.5160    2.4920   -1.7590 c         1 KDN      0.939600
      3 C2          1.5460    1.1650   -2.1580 c3        1 KDN     -0.156400
      4 C3          2.1140    1.1570   -0.7840 c3        1 KDN      0.104100
      5 C4          1.5580    0.0700    0.0610 c3        1 KDN      0.121100
      6 C5          0.0750    0.0450    0.0720 c3        1 KDN      0.117100
      7 C6         -0.3900   -1.2090    0.8150 c3        1 KDN      0.124100
      8 C7         -1.6440   -0.8980    1.5880 c3        1 KDN      0.091100
      9 C9         -2.2180   -2.1840    2.1640 c3        1 KDN      0.135400
     10 O4          2.0310    0.2510    1.4270 oh        1 KDN     -0.602800
     11 O9         -1.7150    2.5970   -1.4130 o         1 KDN     -0.811300
     12 O8          0.2160    3.5310   -1.8430 o         1 KDN     -0.811300
     13 O3          3.5580    0.9850   -0.8760 oh        1 KDN     -0.629800
     14 O5         -0.5050    0.0410   -1.2710 os        1 KDN     -0.474600
     15 O6         -0.6520   -2.2290   -0.1100 oh        1 KDN     -0.611800
     16 O7         -1.3400   -0.0090    2.6370 oh        1 KDN     -0.638800
     17 O10        -3.3800   -1.8830    2.9290 oh        1 KDN     -0.621800
     18 O1         -0.4910    1.0750   -3.4930 oh        1 KDN     -0.568800
     19 H21C        1.8750    1.9650   -2.6320 hc        1 KDN      0.057700
     20 H22C        1.8590    0.3650   -2.6340 hc        1 KDN      0.057700
     21 H1         -0.5300    0.2260   -3.7280 ho        1 KDN      0.383000
     22 H3          1.9250    2.0160   -0.3590 h1        1 KDN      0.071700
     23 H4          1.8850   -0.7910   -0.2770 h1        1 KDN      0.049700
     24 HA          3.9570    1.7790   -0.8060 ho        1 KDN      0.403000
     25 H5         -0.2480    0.8320    0.5510 h1        1 KDN      0.109700
     26 HB          2.7490   -0.2680    1.5650 ho        1 KDN      0.408000
     27 H6          0.3120   -1.5020    1.4360 h1        1 KDN      0.090700
     28 H7         -2.3000   -0.4870    0.9930 h1        1 KDN      0.055700
     29 HC         -0.0270   -2.8770   -0.0280 ho        1 KDN      0.409000
     30 HD         -1.9780    0.5980    2.7020 ho        1 KDN      0.473000
     31 H91C       -1.5520   -2.6100    2.7370 h1        1 KDN      0.043700
     32 H92C       -2.4560   -2.7900    1.4350 h1        1 KDN      0.043700
     33 H10        -3.7360   -2.6290    3.2270 ho        1 KDN      0.418000
@<TRIPOS>BOND
     1    1    2 1   
     2    1    3 1   
     3    1   14 1   
     4    1   18 1   
     5    2   11 1   
     6    2   12 1   
     7    3    4 1   
     8    3   19 1   
     9    3   20 1   
    10    4    5 1   
    11    4   13 1   
    12    4   22 1   
    13    5    6 1   
    14    5   10 1   
    15    5   23 1   
    16    6    7 1   
    17    6   14 1   
    18    6   25 1   
    19    7    8 1   
    20    7   15 1   
    21    7   27 1   
    22    8    9 1   
    23    8   16 1   
    24    8   28 1   
    25    9   17 1   
    26    9   31 1   
    27    9   32 1   
    28   10   26 1   
    29   13   24 1   
    30   15   29 1   
    31   16   30 1   
    32   17   33 1   
    33   18   21 1   
@<TRIPOS>SUBSTRUCTURE
     1 KDN         1 TEMP              0 ****  ****    0 ROOT
