@<TRIPOS>MOLECULE
KDN
   33    33     1     0     0
SMALL
bcc


@<TRIPOS>ATOM
      1 C1          0.0160   -0.1300    0.0260 c3        1 KDN      0.203600
      2 C10        -0.3930   -0.4940   -1.4560 c         1 KDN      0.928600
      3 C2          1.5150    0.1320    0.1470 c3        1 KDN     -0.114400
      4 C3          1.9590    0.2030    1.5970 c3        1 KDN      0.103100
      5 C4          1.4530   -1.0260    2.3700 c3        1 KDN      0.087100
      6 C5         -0.0700   -1.1380    2.2150 c3        1 KDN      0.120100
      7 C6         -0.5920   -2.4420    2.8430 c3        1 KDN      0.162100
      8 C7         -2.1320   -2.4220    2.8610 c3        1 KDN      0.071100
      9 C9         -2.7200   -3.8310    2.9770 c3        1 KDN      0.093400
     10 O4          1.7480   -0.9130    3.7560 oh        1 KDN     -0.606800
     11 O9         -1.4660    0.0340   -1.8510 o         1 KDN     -0.806300
     12 O8          0.3770   -1.2360   -2.1100 o         1 KDN     -0.806300
     13 O3          3.3710    0.2940    1.7300 oh        1 KDN     -0.621800
     14 O5         -0.4170   -1.2200    0.8360 os        1 KDN     -0.444600
     15 O6         -0.1230   -3.5810    2.1460 oh        1 KDN     -0.616800
     16 O7         -2.5180   -1.6360    3.9810 oh        1 KDN     -0.598800
     17 O10        -4.1360   -3.7790    2.9460 oh        1 KDN     -0.620800
     18 O1         -0.6960    0.9780    0.5190 oh        1 KDN     -0.647800
     19 H21C        2.0410   -0.7000   -0.3910 hc        1 KDN      0.071200
     20 H22C        1.7550    1.0940   -0.3700 hc        1 KDN      0.071200
     21 H1         -1.5150    1.0340   -0.0000 ho        1 KDN      0.438000
     22 H3          1.5700    1.1410    2.0850 h1        1 KDN      0.089700
     23 H4          1.9420   -1.9600    1.9730 h1        1 KDN      0.048700
     24 HA          3.7550   -0.3750    1.1510 ho        1 KDN      0.397000
     25 H5         -0.5750   -0.2550    2.6900 h1        1 KDN      0.079700
     26 HB          2.6270   -0.5150    3.8120 ho        1 KDN      0.406000
     27 H6         -0.1890   -2.5400    3.8890 h1        1 KDN      0.093700
     28 H7         -2.5090   -1.9330    1.9160 h1        1 KDN      0.065700
     29 HC         -0.2060   -3.3960    1.1990 ho        1 KDN      0.430000
     30 HD         -3.4750   -1.7360    4.0590 ho        1 KDN      0.402000
     31 H91C       -2.4720   -4.2820    3.9730 h1        1 KDN      0.061700
     32 H92C       -2.3270   -4.4830    2.1540 h1        1 KDN      0.061700
     33 H10        -4.3870   -3.4340    2.0810 ho        1 KDN      0.400000
@<TRIPOS>BOND
     1    1    2 1   
     2    1    3 1   
     3    1   14 1   
     4    1   18 1   
     5    2   11 1   
     6    2   12 1   
     7    3    4 1   
     8    3   19 1   
     9    3   20 1   
    10    4    5 1   
    11    4   13 1   
    12    4   22 1   
    13    5    6 1   
    14    5   10 1   
    15    5   23 1   
    16    6    7 1   
    17    6   14 1   
    18    6   25 1   
    19    7    8 1   
    20    7   15 1   
    21    7   27 1   
    22    8    9 1   
    23    8   16 1   
    24    8   28 1   
    25    9   17 1   
    26    9   31 1   
    27    9   32 1   
    28   10   26 1   
    29   13   24 1   
    30   15   29 1   
    31   16   30 1   
    32   17   33 1   
    33   18   21 1   
@<TRIPOS>SUBSTRUCTURE
     1 KDN         1 TEMP              0 ****  ****    0 ROOT
