@<TRIPOS>MOLECULE
KDN
   33    33     1     0     0
SMALL
bcc


@<TRIPOS>ATOM
      1 C1         -1.6020    0.8670   -0.1140 c3        1 KDN      0.202600
      2 C10        -2.0870    2.1050    0.7430 c         1 KDN      0.930600
      3 C2         -2.5660   -0.3090    0.0190 c3        1 KDN     -0.115400
      4 C3         -1.9850   -1.5820   -0.5690 c3        1 KDN      0.104100
      5 C4         -0.5800   -1.8330    0.0010 c3        1 KDN      0.084100
      6 C5          0.3020   -0.6000   -0.2470 c3        1 KDN      0.119100
      7 C6          1.6690   -0.7720    0.4380 c3        1 KDN      0.130100
      8 C7          2.7010    0.1830   -0.1850 c3        1 KDN      0.065100
      9 C9          4.0310    0.0960    0.5680 c3        1 KDN      0.107400
     10 O4          0.0380   -2.9460   -0.6340 oh        1 KDN     -0.617800
     11 O9         -1.9800    3.2170    0.1650 o         1 KDN     -0.803800
     12 O8         -2.5560    1.8770    1.8820 o         1 KDN     -0.803800
     13 O3         -2.8000   -2.7200   -0.3260 oh        1 KDN     -0.621800
     14 O5         -0.2860    0.5560    0.3380 os        1 KDN     -0.437600
     15 O6          1.6030   -0.5750    1.8350 oh        1 KDN     -0.609800
     16 O7          2.9300   -0.1020   -1.5580 oh        1 KDN     -0.603800
     17 O10         5.0180    0.9300   -0.0060 oh        1 KDN     -0.612800
     18 O1         -1.4380    1.1880   -1.4720 oh        1 KDN     -0.647800
     19 H21C       -2.7820   -0.4380    1.1130 hc        1 KDN      0.073200
     20 H22C       -3.5210   -0.0520   -0.5030 hc        1 KDN      0.073200
     21 H1         -1.2900    2.1480   -1.5150 ho        1 KDN      0.440000
     22 H3         -1.9300   -1.5110   -1.6920 h1        1 KDN      0.089700
     23 H4         -0.6410   -2.0380    1.1060 h1        1 KDN      0.051700
     24 HA         -3.0630   -2.6900    0.6020 ho        1 KDN      0.399000
     25 H5          0.4400   -0.4430   -1.3520 h1        1 KDN      0.075700
     26 HB         -0.6590   -3.6010   -0.7680 ho        1 KDN      0.409000
     27 H6          2.0090   -1.8390    0.3100 h1        1 KDN      0.072700
     28 H7          2.3070    1.2380   -0.1760 h1        1 KDN      0.109700
     29 HC          1.0390    0.1970    1.9990 ho        1 KDN      0.439000
     30 HD          2.9680   -1.0610   -1.6520 ho        1 KDN      0.398000
     31 H91C        3.9020    0.4500    1.6240 h1        1 KDN      0.046700
     32 H92C        4.4020   -0.9650    0.5680 h1        1 KDN      0.046700
     33 H10         4.8960    0.8970   -0.9640 ho        1 KDN      0.409000
@<TRIPOS>BOND
     1    1    2 1   
     2    1    3 1   
     3    1   14 1   
     4    1   18 1   
     5    2   11 1   
     6    2   12 1   
     7    3    4 1   
     8    3   19 1   
     9    3   20 1   
    10    4    5 1   
    11    4   13 1   
    12    4   22 1   
    13    5    6 1   
    14    5   10 1   
    15    5   23 1   
    16    6    7 1   
    17    6   14 1   
    18    6   25 1   
    19    7    8 1   
    20    7   15 1   
    21    7   27 1   
    22    8    9 1   
    23    8   16 1   
    24    8   28 1   
    25    9   17 1   
    26    9   31 1   
    27    9   32 1   
    28   10   26 1   
    29   13   24 1   
    30   15   29 1   
    31   16   30 1   
    32   17   33 1   
    33   18   21 1   
@<TRIPOS>SUBSTRUCTURE
     1 KDN         1 TEMP              0 ****  ****    0 ROOT
