@<TRIPOS>MOLECULE
KDO
   29    28     1     0     0
SMALL
bcc


@<TRIPOS>ATOM
      1 C1          1.1180    0.4530    1.8260 c1        1 KDO      0.308000
      2 O1A         1.7610   -0.5960    2.1620 o         1 KDO     -0.541000
      3 O1B         1.7440    1.5320    1.5910 os        1 KDO     -0.566000
      4 C2         -0.4310    0.4460    1.8340 c3        1 KDO      0.119000
      5 O2         -0.6910    0.4290    3.1860 oh        1 KDO     -0.339000
      6 C3         -1.0090    1.7110    1.1610 c3        1 KDO     -0.194000
      7 C4         -0.8410    1.7080   -0.3200 c3        1 KDO      0.018000
      8 O4          0.5620    1.8230   -0.6240 oh        1 KDO     -0.384000
      9 C5         -1.3640    0.4800   -0.9510 c3        1 KDO     -0.009000
     10 O5         -1.0020    0.4910   -2.3790 oh        1 KDO     -0.331000
     11 C6         -0.8330   -0.7700   -0.3300 c3        1 KDO      0.004000
     12 O6         -0.9940   -0.7960    1.1350 os        1 KDO     -0.300000
     13 C7          0.6410   -0.8990   -0.6720 c3        1 KDO     -0.048000
     14 O7          0.8770   -0.3240   -1.9130 oh        1 KDO     -0.341000
     15 C8          1.0250   -2.3620   -0.7160 c3        1 KDO     -0.009000
     16 O8          2.4480   -2.4800   -0.6590 oh        1 KDO     -0.356000
     17 HO2        -1.4550    0.0400    3.3310 ho        1 KDO      0.231000
     18 H31        -0.5690    2.4730    1.5160 hc        1 KDO      0.105500
     19 H32        -1.9680    1.7710    1.3710 hc        1 KDO      0.105500
     20 H4         -1.3200    2.4970   -0.7030 h1        1 KDO      0.084000
     21 HO4         0.7320    2.6600   -0.9700 ho        1 KDO      0.260000
     22 H5         -2.3250    0.4790   -0.8750 h1        1 KDO      0.109000
     23 HO5        -1.7590    0.5100   -2.8810 ho        1 KDO      0.215000
     24 H6         -1.3140   -1.5390   -0.7130 h1        1 KDO      0.106000
     25 H7          1.1680   -0.4490   -0.0040 h1        1 KDO      0.137000
     26 HO7         1.7990   -0.3550   -2.1010 ho        1 KDO      0.208000
     27 H81         0.6890   -2.7690   -1.5650 h1        1 KDO      0.081000
     28 H82         0.6270   -2.8270    0.0500 h1        1 KDO      0.081000
     29 HO8         2.6840   -3.3390   -0.7880 ho        1 KDO      0.246000
@<TRIPOS>BOND
     1    1    2 1   
     2    1    4 1   
     3    4    5 1   
     4    4    6 1   
     5    4   12 1   
     6    5   17 1   
     7    6    7 1   
     8    6   18 1   
     9    6   19 1   
    10    7    8 1   
    11    7    9 1   
    12    7   20 1   
    13    8   21 1   
    14    9   10 1   
    15    9   11 1   
    16    9   22 1   
    17   10   23 1   
    18   11   12 1   
    19   11   13 1   
    20   11   24 1   
    21   13   14 1   
    22   13   15 1   
    23   13   25 1   
    24   14   26 1   
    25   15   16 1   
    26   15   27 1   
    27   15   28 1   
    28   16   29 1   
@<TRIPOS>SUBSTRUCTURE
     1 KDO         1 TEMP              0 ****  ****    0 ROOT
