@<TRIPOS>MOLECULE
KDO
   29    29     1     0     0
SMALL
bcc


@<TRIPOS>ATOM
      1 C1          1.5170   -0.2680   -2.2520 c         1 KDO      0.930600
      2 O1A         1.3030   -1.4510   -2.6040 o         1 KDO     -0.805300
      3 O1B         2.5050    0.4550   -2.5460 o         1 KDO     -0.805300
      4 C2          0.4190    0.4430   -1.3630 c3        1 KDO      0.191600
      5 O2          0.6180    1.8330   -1.2750 oh        1 KDO     -0.651800
      6 C3         -0.9870    0.1580   -1.8880 c3        1 KDO     -0.123400
      7 C4         -2.0840    0.4570   -0.8750 c3        1 KDO      0.113100
      8 O4         -3.3330   -0.0560   -1.3080 oh        1 KDO     -0.611800
      9 C5         -1.7160   -0.1290    0.5010 c3        1 KDO      0.086100
     10 O5         -1.7120   -1.5450    0.4380 oh        1 KDO     -0.619800
     11 C6         -0.3430    0.4290    0.9030 c3        1 KDO      0.087100
     12 O6          0.6320   -0.0240   -0.0290 os        1 KDO     -0.427600
     13 C7          0.0820   -0.0790    2.2870 c3        1 KDO      0.104100
     14 O7         -0.6530    0.5830    3.3060 oh        1 KDO     -0.610800
     15 C8          1.5860    0.1080    2.5210 c3        1 KDO      0.099400
     16 O8          1.8360    0.6040    3.8250 oh        1 KDO     -0.617800
     17 HO2         1.5510    1.9940   -1.4950 ho        1 KDO      0.439000
     18 H31        -1.1530    0.7710   -2.8090 hc        1 KDO      0.072200
     19 H32        -1.0180   -0.9260   -2.1800 hc        1 KDO      0.072200
     20 H4         -2.2460    1.5660   -0.7840 h1        1 KDO      0.075700
     21 HO4        -3.2590   -1.0190   -1.2810 ho        1 KDO      0.406000
     22 H5         -2.4940    0.1220    1.2700 h1        1 KDO      0.078700
     23 HO5        -0.9250   -1.7990   -0.0710 ho        1 KDO      0.429000
     24 H6         -0.3820    1.5540    0.9000 h1        1 KDO      0.057700
     25 H7         -0.2110   -1.1610    2.3930 h1        1 KDO      0.088700
     26 HO7        -0.3610    1.5040    3.3120 ho        1 KDO      0.404000
     27 H81         2.0140    0.8800    1.8270 h1        1 KDO      0.068200
     28 H82         2.1220   -0.8630    2.3650 h1        1 KDO      0.068200
     29 HO8         1.3230    0.0640    4.4390 ho        1 KDO      0.399000
@<TRIPOS>BOND
     1    1    2 1   
     2    1    3 1   
     3    1    4 1   
     4    4    5 1   
     5    4    6 1   
     6    4   12 1   
     7    5   17 1   
     8    6    7 1   
     9    6   18 1   
    10    6   19 1   
    11    7    8 1   
    12    7    9 1   
    13    7   20 1   
    14    8   21 1   
    15    9   10 1   
    16    9   11 1   
    17    9   22 1   
    18   10   23 1   
    19   11   12 1   
    20   11   13 1   
    21   11   24 1   
    22   13   14 1   
    23   13   15 1   
    24   13   25 1   
    25   14   26 1   
    26   15   16 1   
    27   15   27 1   
    28   15   28 1   
    29   16   29 1   
@<TRIPOS>SUBSTRUCTURE
     1 KDO         1 TEMP              0 ****  ****    0 ROOT
