@<TRIPOS>MOLECULE
KDP
   24    23     1     0     0
SMALL
bcc


@<TRIPOS>ATOM
      1 OAH         0.6610    1.4350    0.3870 o         1 KDP     -0.936833
      2 PAP         1.6760    0.3290    0.2620 p5        1 KDP      1.320900
      3 OAC         2.6990    0.2340    1.3620 o         1 KDP     -0.936833
      4 OAG         1.1260   -0.9820   -0.2380 o         1 KDP     -0.936833
      5 OAK         2.6540    0.8670   -1.0770 os        1 KDP     -0.577200
      6 CAI         1.9640    1.3770   -2.1490 c3        1 KDP      0.194400
      7 CAN         2.6420    2.6870   -2.6310 c3        1 KDP      0.122100
      8 OAD         4.0540    2.6330   -2.5090 oh        1 KDP     -0.648800
      9 CAO         2.2720    3.0230   -4.0890 c3        1 KDP      0.147100
     10 OAE         2.7680    1.9940   -4.9360 oh        1 KDP     -0.600800
     11 CAJ         2.8260    4.3840   -4.5120 c3        1 KDP     -0.218400
     12 CAM         2.4190    4.8450   -5.8820 c         1 KDP      0.481100
     13 CAL         2.8230    6.2750   -6.2630 c         1 KDP      0.846600
     14 OAA         3.9260    6.4400   -6.8590 o         1 KDP     -0.840800
     15 OAF         2.0330    7.2160   -5.9690 o         1 KDP     -0.840800
     16 OXT         1.8020    4.1130   -6.6730 o         1 KDP     -0.625100
     17 HAI1        0.8960    1.5990   -1.8750 h1        1 KDP      0.009200
     18 HAI2        1.9930    0.6540   -3.0180 h1        1 KDP      0.009200
     19 HAN         2.2900    3.5460   -1.9910 h1        1 KDP      0.026700
     20 HAD         4.2480    1.8810   -1.9260 ho        1 KDP      0.439000
     21 HAO         1.1470    3.0440   -4.1650 h1        1 KDP      0.020700
     22 HAE         2.4760    2.2230   -5.8270 ho        1 KDP      0.390000
     23 HAJ1        2.4960    5.1600   -3.7720 hc        1 KDP      0.078700
     24 HAJ2        3.9480    4.3380   -4.4810 hc        1 KDP      0.078700
@<TRIPOS>BOND
     1    1    2 1   
     2    2    3 1   
     3    2    4 1   
     4    2    5 1   
     5    5    6 1   
     6    6    7 1   
     7    6   17 1   
     8    6   18 1   
     9    7    8 1   
    10    7    9 1   
    11    7   19 1   
    12    8   20 1   
    13    9   10 1   
    14    9   11 1   
    15    9   21 1   
    16   10   22 1   
    17   11   12 1   
    18   11   23 1   
    19   11   24 1   
    20   12   13 1   
    21   12   16 2   
    22   13   14 1   
    23   13   15 1   
@<TRIPOS>SUBSTRUCTURE
     1 KDP         1 TEMP              0 ****  ****    0 ROOT
