@<TRIPOS>MOLECULE
KDP
   24    23     1     0     0
SMALL
bcc


@<TRIPOS>ATOM
      1 OAH         3.5360    0.1280   -1.6040 o         1 KDP     -0.934500
      2 PAP         3.9480   -0.0390   -0.1650 p5        1 KDP      1.318900
      3 OAC         4.6430   -1.3280    0.1850 o         1 KDP     -0.934500
      4 OAG         4.4890    1.2010    0.4930 o         1 KDP     -0.934500
      5 OAK         2.4150   -0.2630    0.6390 os        1 KDP     -0.578200
      6 CAI         1.3730    0.5030    0.1810 c3        1 KDP      0.189400
      7 CAN         0.1060   -0.3800    0.0140 c3        1 KDP      0.080100
      8 OAD         0.1110   -1.4760    0.9210 oh        1 KDP     -0.669800
      9 CAO        -1.1920    0.4100    0.2840 c3        1 KDP      0.144100
     10 OAE        -1.2870    0.7700    1.6570 oh        1 KDP     -0.621800
     11 CAJ        -2.4290   -0.3890   -0.1250 c3        1 KDP     -0.202400
     12 CAM        -3.6530    0.4180   -0.4560 c         1 KDP      0.485100
     13 CAL        -4.9610   -0.3800   -0.5350 c         1 KDP      0.841600
     14 OAA        -5.6580   -0.5030    0.5130 o         1 KDP     -0.846300
     15 OAF        -5.2830   -0.8800   -1.6510 o         1 KDP     -0.846300
     16 OXT        -3.6190    1.6350   -0.6870 o         1 KDP     -0.604100
     17 HAI1        1.1130    1.3070    0.9340 h1        1 KDP      0.010700
     18 HAI2        1.6230    0.9770   -0.8090 h1        1 KDP      0.010700
     19 HAN         0.0750   -0.8010   -1.0280 h1        1 KDP      0.031700
     20 HAD         1.0400   -1.6290    1.1680 ho        1 KDP      0.449000
     21 HAO        -1.1630    1.3890   -0.2700 h1        1 KDP      0.071700
     22 HAE        -0.9040    0.0390    2.1590 ho        1 KDP      0.404000
     23 HAJ1       -2.1900   -1.0030   -1.0340 hc        1 KDP      0.066700
     24 HAJ2       -2.6910   -1.0990    0.7040 hc        1 KDP      0.066700
@<TRIPOS>BOND
     1    1    2 1   
     2    2    3 1   
     3    2    4 1   
     4    2    5 1   
     5    5    6 1   
     6    6    7 1   
     7    6   17 1   
     8    6   18 1   
     9    7    8 1   
    10    7    9 1   
    11    7   19 1   
    12    8   20 1   
    13    9   10 1   
    14    9   11 1   
    15    9   21 1   
    16   10   22 1   
    17   11   12 1   
    18   11   23 1   
    19   11   24 1   
    20   12   13 1   
    21   12   16 2   
    22   13   14 1   
    23   13   15 1   
@<TRIPOS>SUBSTRUCTURE
     1 KDP         1 TEMP              0 ****  ****    0 ROOT
