@<TRIPOS>MOLECULE
KDP
   24    23     1     0     0
SMALL
bcc


@<TRIPOS>ATOM
      1 OAH         0.6240    1.4320    0.3670 o         1 KDP     -0.936833
      2 PAP         1.6400    0.3260    0.2520 p5        1 KDP      1.320900
      3 OAC         2.6520    0.2300    1.3630 o         1 KDP     -0.936833
      4 OAG         1.0960   -0.9840   -0.2550 o         1 KDP     -0.936833
      5 OAK         2.6330    0.8660   -1.0760 os        1 KDP     -0.577200
      6 CAI         1.9540    1.3750   -2.1550 c3        1 KDP      0.194400
      7 CAN         2.6360    2.6860   -2.6290 c3        1 KDP      0.122100
      8 OAD         4.0460    2.6340   -2.4910 oh        1 KDP     -0.648800
      9 CAO         2.2810    3.0230   -4.0910 c3        1 KDP      0.147100
     10 OAE         2.7870    1.9950   -4.9330 oh        1 KDP     -0.600800
     11 CAJ         2.8370    4.3860   -4.5060 c3        1 KDP     -0.218400
     12 CAM         2.4450    4.8470   -5.8800 c         1 KDP      0.481100
     13 CAL         2.8510    6.2770   -6.2560 c         1 KDP      0.846600
     14 OAA         3.9600    6.4440   -6.8400 o         1 KDP     -0.840800
     15 OAF         2.0570    7.2180   -5.9700 o         1 KDP     -0.840800
     16 OXT         1.8380    4.1140   -6.6790 o         1 KDP     -0.625100
     17 HAI1        0.8820    1.5970   -1.8920 h1        1 KDP      0.009200
     18 HAI2        1.9920    0.6530   -3.0240 h1        1 KDP      0.009200
     19 HAN         2.2760    3.5450   -1.9920 h1        1 KDP      0.026700
     20 HAD         4.2340    1.8820   -1.9070 ho        1 KDP      0.439000
     21 HAO         1.1570    3.0430   -4.1780 h1        1 KDP      0.020700
     22 HAE         2.5040    2.2250   -5.8270 ho        1 KDP      0.390000
     23 HAJ1        3.9590    4.3410   -4.4640 hc        1 KDP      0.078700
     24 HAJ2        2.4990    5.1600   -3.7700 hc        1 KDP      0.078700
@<TRIPOS>BOND
     1    1    2 1   
     2    2    3 1   
     3    2    4 1   
     4    2    5 1   
     5    5    6 1   
     6    6    7 1   
     7    6   17 1   
     8    6   18 1   
     9    7    8 1   
    10    7    9 1   
    11    7   19 1   
    12    8   20 1   
    13    9   10 1   
    14    9   11 1   
    15    9   21 1   
    16   10   22 1   
    17   11   12 1   
    18   11   23 1   
    19   11   24 1   
    20   12   13 1   
    21   12   16 2   
    22   13   14 1   
    23   13   15 1   
@<TRIPOS>SUBSTRUCTURE
     1 KDP         1 TEMP              0 ****  ****    0 ROOT
