@<TRIPOS>MOLECULE
KDR
   36    36     1     0     0
SMALL
bcc


@<TRIPOS>ATOM
      1 C11         0.0320    0.4510   -0.2360 c2        1 KDR     -0.221000
      2 C10         1.1300   -0.2550    0.0200 c2        1 KDR     -0.163200
      3 C9          1.9420   -0.0580    1.2520 c3        1 KDR      0.154600
      4 O2          2.9750   -1.0520    1.2310 os        1 KDR     -0.431600
      5 C2          3.7760   -1.0990    2.3960 c3        1 KDR      0.241600
      6 C1          4.3850    0.2420    2.8180 c         1 KDR      0.560900
      7 O1A         4.7660    1.0760    2.0030 o         1 KDR     -0.497100
      8 C3          4.9080   -2.0980    2.1310 c3        1 KDR     -0.121400
      9 O6          2.9130   -1.4730    3.4610 os        1 KDR     -0.438600
     10 C6          2.3960   -2.8040    3.3680 c3        1 KDR      0.156100
     11 C7          1.5560   -3.0300    4.6360 c3        1 KDR      0.153100
     12 O7          0.8240   -4.2250    4.4010 oh        1 KDR     -0.607800
     13 C8          0.6050   -1.8530    4.8730 c3        1 KDR      0.096400
     14 O8         -0.1960   -2.2110    5.9890 oh        1 KDR     -0.614800
     15 C5          3.5070   -3.8550    3.2490 c3        1 KDR      0.127100
     16 O5          4.2830   -3.8360    4.4340 oh        1 KDR     -0.594800
     17 C4          4.3680   -3.5180    2.0180 c3        1 KDR      0.107100
     18 O4          5.4270   -4.4640    2.0080 oh        1 KDR     -0.605800
     19 H11        -0.3550    1.2210    0.4440 ha        1 KDR      0.115000
     20 H11A       -0.5540    0.3040   -1.1520 ha        1 KDR      0.115000
     21 H10         1.5090   -1.0240   -0.6730 ha        1 KDR      0.142000
     22 H9          2.4190    0.9600    1.2620 h1        1 KDR      0.051200
     23 H9A         1.3190   -0.1920    2.1780 h1        1 KDR      0.051200
     24 H1          4.4750    0.3750    3.9170 h4        1 KDR      0.030200
     25 H3          5.6280   -2.0500    2.9900 hc        1 KDR      0.077200
     26 H3A         5.4350   -1.8040    1.1890 hc        1 KDR      0.077200
     27 H6          1.7420   -2.8740    2.4520 h1        1 KDR      0.072700
     28 H7          2.2320   -3.1640    5.5260 h1        1 KDR      0.080700
     29 HO7         0.2340   -4.3330    5.1590 ho        1 KDR      0.426000
     30 H8          1.1940   -0.9240    5.0920 h1        1 KDR      0.040700
     31 H8A        -0.0410   -1.6850    3.9710 h1        1 KDR      0.040700
     32 HO8        -0.8080   -1.4820    6.1370 ho        1 KDR      0.409000
     33 H5          3.0350   -4.8700    3.1240 h1        1 KDR      0.075700
     34 HO5         5.0070   -4.4620    4.2940 ho        1 KDR      0.421000
     35 H4          3.7480   -3.6220    1.0840 h1        1 KDR      0.063700
     36 HO4         5.9870   -4.2530    1.2520 ho        1 KDR      0.411000
@<TRIPOS>BOND
     1    1    2 2   
     2    1   19 1   
     3    1   20 1   
     4    2    3 1   
     5    2   21 1   
     6    3    4 1   
     7    3   22 1   
     8    3   23 1   
     9    4    5 1   
    10    5    6 1   
    11    5    8 1   
    12    5    9 1   
    13    6    7 2   
    14    6   24 1   
    15    8   17 1   
    16    8   25 1   
    17    8   26 1   
    18    9   10 1   
    19   10   11 1   
    20   10   15 1   
    21   10   27 1   
    22   11   12 1   
    23   11   13 1   
    24   11   28 1   
    25   12   29 1   
    26   13   14 1   
    27   13   30 1   
    28   13   31 1   
    29   14   32 1   
    30   15   16 1   
    31   15   17 1   
    32   15   33 1   
    33   16   34 1   
    34   17   18 1   
    35   17   35 1   
    36   18   36 1   
@<TRIPOS>SUBSTRUCTURE
     1 KDR         1 TEMP              0 ****  ****    0 ROOT
