@<TRIPOS>MOLECULE
KDR
   36    34     1     0     0
SMALL
bcc


@<TRIPOS>ATOM
      1 C11        -4.6830    1.6090   -1.6910 c1        1 KDR     -0.190000
      2 C10        -3.3900    1.2340   -1.6410 c1        1 KDR     -0.190000
      3 C9         -2.6340    1.2980   -0.3320 c2        1 KDR      0.000000
      4 O2         -1.2870    0.9480   -0.5510 os        1 KDR     -0.288000
      5 C2         -0.5040    0.9420    0.6160 c3        1 KDR      0.148000
      6 C1         -1.4740    1.4230    1.6170 c2        1 KDR      0.179000
      7 O1A        -1.5850    2.6150    1.8330 o         1 KDR     -0.258000
      8 C3          0.6980    1.8880    0.4930 c3        1 KDR     -0.200000
      9 O6         -0.0040   -0.4620    0.9470 os        1 KDR     -0.295000
     10 C6          1.0350   -0.9410    0.0370 c3        1 KDR      0.045000
     11 C7          1.5640   -2.2630    0.5540 c3        1 KDR      0.042000
     12 O7          2.8510   -2.4890    0.0340 oh        1 KDR     -0.335000
     13 C8          0.6420   -3.3780    0.1180 c3        1 KDR     -0.054000
     14 O8          1.0740   -4.5940    0.6880 oh        1 KDR     -0.342000
     15 C5          2.1740    0.0100   -0.0960 c3        1 KDR      0.016000
     16 O5          2.9090    0.0430    1.1710 oh        1 KDR     -0.322000
     17 C4          1.7460    1.3780   -0.4270 c3        1 KDR     -0.004000
     18 O4          2.9090    2.2660   -0.3550 oh        1 KDR     -0.333000
     19 H11        -5.1330    1.9240   -0.8820 DU        1 KDR      0.111000
     20 H11A       -5.1720    1.5680   -2.5370 ha        1 KDR      0.130500
     21 H10        -2.9410    0.9200   -2.4490 ha        1 KDR      0.130500
     22 H9         -2.6810    2.2070    0.0280 h4        1 KDR      0.090500
     23 H9A        -3.0340    0.6720    0.3070 h4        1 KDR      0.090500
     24 H1         -2.0280    0.7830    2.1080 h4        1 KDR      0.123000
     25 H3          1.0910    2.0140    1.3790 hc        1 KDR      0.116500
     26 H3A         0.3840    2.7540    0.1620 hc        1 KDR      0.116500
     27 H6          0.6400   -1.0830   -0.8440 h1        1 KDR      0.112000
     28 H7          1.6060   -2.2380    1.5300 h1        1 KDR      0.120000
     29 HO7         3.2840   -3.0650    0.5550 ho        1 KDR      0.225000
     30 H8         -0.2700   -3.1840    0.4180 h1        1 KDR      0.080000
     31 H8A         0.6570   -3.4520   -0.8580 h1        1 KDR      0.080000
     32 HO8         0.6360   -5.2700    0.3110 ho        1 KDR      0.208000
     33 H5          2.7710   -0.3110   -0.7990 h1        1 KDR      0.115000
     34 HO5         3.7790    0.1180    1.0060 ho        1 KDR      0.220000
     35 H4          1.3970    1.3870   -1.3390 h1        1 KDR      0.103000
     36 HO4         2.9750    2.7300   -1.1100 ho        1 KDR      0.210000
@<TRIPOS>BOND
     1    1    2 1   
     2    1   20 1   
     3    2   21 1   
     4    3    4 1   
     5    3   22 1   
     6    3   23 1   
     7    4    5 1   
     8    5    6 1   
     9    5    8 1   
    10    5    9 1   
    11    6    7 1   
    12    6   24 1   
    13    8   17 1   
    14    8   25 1   
    15    8   26 1   
    16    9   10 1   
    17   10   11 1   
    18   10   15 1   
    19   10   27 1   
    20   11   12 1   
    21   11   13 1   
    22   11   28 1   
    23   12   29 1   
    24   13   14 1   
    25   13   30 1   
    26   13   31 1   
    27   14   32 1   
    28   15   16 1   
    29   15   17 1   
    30   15   33 1   
    31   16   34 1   
    32   17   18 1   
    33   17   35 1   
    34   18   36 1   
@<TRIPOS>SUBSTRUCTURE
     1 KDR         1 TEMP              0 ****  ****    0 ROOT
