@<TRIPOS>MOLECULE
KDR
   36    36     1     0     0
SMALL
bcc


@<TRIPOS>ATOM
      1 C11         0.0330    0.4410   -0.2460 c2        1 KDR     -0.221000
      2 C10         1.1300   -0.2650    0.0140 c2        1 KDR     -0.163200
      3 C9          1.9410   -0.0630    1.2460 c3        1 KDR      0.154600
      4 O2          2.9750   -1.0560    1.2300 os        1 KDR     -0.431600
      5 C2          3.7760   -1.0980    2.3960 c3        1 KDR      0.241600
      6 C1          4.3820    0.2450    2.8140 c         1 KDR      0.560900
      7 O1A         4.7630    1.0770    1.9980 o         1 KDR     -0.497100
      8 C3          4.9090   -2.0970    2.1340 c3        1 KDR     -0.121400
      9 O6          2.9110   -1.4710    3.4600 os        1 KDR     -0.438600
     10 C6          2.3960   -2.8030    3.3700 c3        1 KDR      0.156100
     11 C7          1.5560   -3.0260    4.6380 c3        1 KDR      0.153100
     12 O7          0.8260   -4.2230    4.4060 oh        1 KDR     -0.607800
     13 C8          0.6030   -1.8500    4.8710 c3        1 KDR      0.096400
     14 O8         -0.1990   -2.2070    5.9870 oh        1 KDR     -0.614800
     15 C5          3.5090   -3.8530    3.2560 c3        1 KDR      0.127100
     16 O5          4.2840   -3.8290    4.4410 oh        1 KDR     -0.594800
     17 C4          4.3710   -3.5180    2.0250 c3        1 KDR      0.107100
     18 O4          5.4310   -4.4630    2.0180 oh        1 KDR     -0.605800
     19 H11        -0.3540    1.2150    0.4300 ha        1 KDR      0.115000
     20 H11A       -0.5530    0.2900   -1.1620 ha        1 KDR      0.115000
     21 H10         1.5090   -1.0380   -0.6740 ha        1 KDR      0.142000
     22 H9          2.4170    0.9550    1.2530 h1        1 KDR      0.051200
     23 H9A         1.3170   -0.1940    2.1720 h1        1 KDR      0.051200
     24 H1          4.4710    0.3800    3.9130 h4        1 KDR      0.030200
     25 H3          5.6280   -2.0460    2.9930 hc        1 KDR      0.077200
     26 H3A         5.4370   -1.8050    1.1920 hc        1 KDR      0.077200
     27 H6          1.7440   -2.8760    2.4540 h1        1 KDR      0.072700
     28 H7          2.2310   -3.1570    5.5290 h1        1 KDR      0.080700
     29 HO7         0.2350   -4.3300    5.1640 ho        1 KDR      0.426000
     30 H8         -0.0430   -1.6860    3.9680 h1        1 KDR      0.040700
     31 H8A         1.1900   -0.9200    5.0880 h1        1 KDR      0.040700
     32 HO8        -0.8120   -1.4780    6.1330 ho        1 KDR      0.409000
     33 H5          3.0390   -4.8690    3.1320 h1        1 KDR      0.075700
     34 HO5         5.0090   -4.4550    4.3040 ho        1 KDR      0.421000
     35 H4          3.7520   -3.6250    1.0910 h1        1 KDR      0.063700
     36 HO4         5.9920   -4.2520    1.2620 ho        1 KDR      0.411000
@<TRIPOS>BOND
     1    1    2 2   
     2    1   19 1   
     3    1   20 1   
     4    2    3 1   
     5    2   21 1   
     6    3    4 1   
     7    3   22 1   
     8    3   23 1   
     9    4    5 1   
    10    5    6 1   
    11    5    8 1   
    12    5    9 1   
    13    6    7 2   
    14    6   24 1   
    15    8   17 1   
    16    8   25 1   
    17    8   26 1   
    18    9   10 1   
    19   10   11 1   
    20   10   15 1   
    21   10   27 1   
    22   11   12 1   
    23   11   13 1   
    24   11   28 1   
    25   12   29 1   
    26   13   14 1   
    27   13   30 1   
    28   13   31 1   
    29   14   32 1   
    30   15   16 1   
    31   15   17 1   
    32   15   33 1   
    33   16   34 1   
    34   17   18 1   
    35   17   35 1   
    36   18   36 1   
@<TRIPOS>SUBSTRUCTURE
     1 KDR         1 TEMP              0 ****  ****    0 ROOT
