@<TRIPOS>MOLECULE
KDR
   36    36     1     0     0
SMALL
bcc


@<TRIPOS>ATOM
      1 C11         3.1260    3.0990   -1.7850 c2        1 KDR     -0.221000
      2 C10         2.7370    1.8400   -1.6000 c2        1 KDR     -0.163200
      3 C9          2.1830    1.3530   -0.3080 c3        1 KDR      0.154600
      4 O2          1.7880   -0.0100   -0.5130 os        1 KDR     -0.431600
      5 C2          1.1180   -0.6050    0.5820 c3        1 KDR      0.241600
      6 C1          1.8480   -0.4960    1.9240 c         1 KDR      0.560900
      7 O1A         3.0700   -0.5570    2.0150 o         1 KDR     -0.497100
      8 C3          0.9170   -2.0860    0.2430 c3        1 KDR     -0.121400
      9 O6         -0.0930    0.1190    0.7500 os        1 KDR     -0.438600
     10 C6         -1.0290   -0.0280   -0.3220 c3        1 KDR      0.156100
     11 C7         -2.2810    0.7650    0.0870 c3        1 KDR      0.153100
     12 O7         -3.0770    0.8520   -1.0880 oh        1 KDR     -0.607800
     13 C8         -1.9000    2.1620    0.5850 c3        1 KDR      0.096400
     14 O8         -3.1220    2.8430    0.8230 oh        1 KDR     -0.614800
     15 C5         -1.3730   -1.4970   -0.5990 c3        1 KDR      0.127100
     16 O5         -2.0200   -2.0380    0.5400 oh        1 KDR     -0.594800
     17 C4         -0.0690   -2.2550   -0.9060 c3        1 KDR      0.107100
     18 O4         -0.4340   -3.6180   -1.0650 oh        1 KDR     -0.605800
     19 H11         3.5410    3.4450   -2.7400 ha        1 KDR      0.115000
     20 H11A        3.0610    3.8650   -1.0020 ha        1 KDR      0.115000
     21 H10         2.8100    1.0790   -2.3950 ha        1 KDR      0.142000
     22 H9          2.9620    1.3850    0.5020 h1        1 KDR      0.051200
     23 H9A         1.2880    1.9550    0.0060 h1        1 KDR      0.051200
     24 H1          1.1730   -0.3870    2.8000 h4        1 KDR      0.030200
     25 H3          1.9070   -2.5330   -0.0230 hc        1 KDR      0.077200
     26 H3A         0.5080   -2.6030    1.1510 hc        1 KDR      0.077200
     27 H6         -0.5780    0.4120   -1.2560 h1        1 KDR      0.072700
     28 H7         -2.8430    0.2100    0.8890 h1        1 KDR      0.080700
     29 HO7        -3.8290    1.4160   -0.8620 ho        1 KDR      0.426000
     30 H8         -1.3030    2.0800    1.5300 h1        1 KDR      0.040700
     31 H8A        -1.3010    2.7040   -0.1940 h1        1 KDR      0.040700
     32 HO8        -2.8920    3.7290    1.1240 ho        1 KDR      0.409000
     33 H5         -2.0660   -1.5480   -1.4860 h1        1 KDR      0.075700
     34 HO5        -2.1610   -2.9760    0.3510 ho        1 KDR      0.421000
     35 H4          0.3810   -1.8610   -1.8600 h1        1 KDR      0.063700
     36 HO4         0.3780   -4.1090   -1.2390 ho        1 KDR      0.411000
@<TRIPOS>BOND
     1    1    2 2   
     2    1   19 1   
     3    1   20 1   
     4    2    3 1   
     5    2   21 1   
     6    3    4 1   
     7    3   22 1   
     8    3   23 1   
     9    4    5 1   
    10    5    6 1   
    11    5    8 1   
    12    5    9 1   
    13    6    7 2   
    14    6   24 1   
    15    8   17 1   
    16    8   25 1   
    17    8   26 1   
    18    9   10 1   
    19   10   11 1   
    20   10   15 1   
    21   10   27 1   
    22   11   12 1   
    23   11   13 1   
    24   11   28 1   
    25   12   29 1   
    26   13   14 1   
    27   13   30 1   
    28   13   31 1   
    29   14   32 1   
    30   15   16 1   
    31   15   17 1   
    32   15   33 1   
    33   16   34 1   
    34   17   18 1   
    35   17   35 1   
    36   18   36 1   
@<TRIPOS>SUBSTRUCTURE
     1 KDR         1 TEMP              0 ****  ****    0 ROOT
