@<TRIPOS>MOLECULE
KE4
   43    40     1     0     0
SMALL
bcc


@<TRIPOS>ATOM
      1 P          -4.7040    1.7820    1.7360 p3        1 KE4      2.508000
      2 OP1        -4.5330    1.5110    3.2180 o         1 KE4     -1.238500
      3 OP2        -3.8490    2.9500    1.3380 os        1 KE4     -1.249000
      4 OP3        -6.1490    2.0960    1.4440 o         1 KE4     -1.238500
      5 OP4        -4.2700    0.5070    0.9120 os        1 KE4     -0.724000
      6 C5A        -2.9430    0.0550    1.0190 c3        1 KE4      0.088000
      7 C5         -2.5840   -0.7830   -0.2290 c2        1 KE4     -0.071000
      8 C6         -3.5880   -1.1820   -1.1140 c1        1 KE4     -0.098000
      9 N1         -3.2680   -1.9190   -2.2320 n1        1 KE4     -0.151000
     10 C2         -1.9700   -2.2600   -2.4780 c1        1 KE4     -0.120000
     11 C2A        -1.6190   -3.0840   -3.7140 c2        1 KE4     -0.130000
     12 C3         -0.9560   -1.8600   -1.5890 c2        1 KE4      0.023000
     13 O3          0.4070   -2.1860   -1.8670 oh        1 KE4     -0.302000
     14 C4         -1.2700   -1.1280   -0.4780 c2        1 KE4     -0.155000
     15 C4A        -0.1340   -0.6750    0.5110 c3        1 KE4     -0.038000
     16 N4A         1.0900   -0.3230   -0.2650 n3        1 KE4     -0.332000
     17 CA          2.0520    0.3200    0.6100 c3        1 KE4     -0.057000
     18 C           3.1770   -0.6780    0.9660 c3        1 KE4     -0.076000
     19 N5          3.2470   -0.8420    2.4370 n3        1 KE4     -0.363000
     20 CB          2.6360    1.5130   -0.0820 c3        1 KE4     -0.149000
     21 CG          2.9640    2.6360    0.9860 c3        1 KE4     -0.223000
     22 CD          3.9230    3.6660    0.3670 c2        1 KE4      0.324000
     23 OE1         5.1380    3.3800    0.2150 o         1 KE4     -0.596500
     24 OE2         3.4920    4.7980    0.0140 o         1 KE4     -0.596500
     25 H5A1       -2.3460    0.8160    1.0800 h1        1 KE4      0.057500
     26 H5A2       -2.8500   -0.5000    1.8240 h1        1 KE4      0.057500
     27 H6         -4.5270   -0.9570   -0.9270 ha        1 KE4      0.291000
     28 H2A1       -1.0510   -3.8480   -3.4500 ha        1 KE4      0.059000
     29 H2A2       -2.4390   -3.4150   -4.1290 ha        1 KE4      0.059000
     30 H2A3       -1.1320   -2.5210   -4.3540 ha        1 KE4      0.059000
     31 HO3         0.5740   -2.0580   -2.7370 ho        1 KE4      0.239000
     32 H4A1       -0.4330    0.1020    1.0140 h1        1 KE4      0.081000
     33 H4A2        0.0710   -1.4040    1.1280 h1        1 KE4      0.081000
     34 HN4A        0.8630    0.2540   -0.9530 hn        1 KE4      0.162000
     35 HA          1.6050    0.6090    1.4300 h1        1 KE4      0.056000
     36 H1          4.0400   -0.3360    0.6320 h1        1 KE4      0.075000
     37 H2          2.9850   -1.5560    0.5460 h1        1 KE4      0.075000
     38 HN51        3.8050   -0.2080    2.7890 hn        1 KE4      0.160000
     39 HN52        3.5780   -1.6980    2.6410 hn        1 KE4      0.160000
     40 HB1         3.4630    1.2510   -0.5460 hc        1 KE4      0.081500
     41 HB2         1.9860    1.8630   -0.7410 hc        1 KE4      0.081500
     42 HG1         3.3860    2.2290    1.7700 hc        1 KE4      0.065000
     43 HG2         2.1340    3.0820    1.2580 hc        1 KE4      0.065000
@<TRIPOS>BOND
     1    1    2 1   
     2    1    4 1   
     3    1    5 1   
     4    5    6 1   
     5    6    7 1   
     6    6   25 1   
     7    6   26 1   
     8    7    8 1   
     9    7   14 1   
    10    8   27 1   
    11    9   10 1   
    12   10   12 1   
    13   11   28 1   
    14   11   29 1   
    15   11   30 1   
    16   12   13 1   
    17   12   14 1   
    18   13   31 1   
    19   14   15 1   
    20   15   16 1   
    21   15   32 1   
    22   15   33 1   
    23   16   17 1   
    24   16   34 1   
    25   17   18 1   
    26   17   20 1   
    27   17   35 1   
    28   18   19 1   
    29   18   36 1   
    30   18   37 1   
    31   19   38 1   
    32   19   39 1   
    33   20   21 1   
    34   20   40 1   
    35   20   41 1   
    36   21   22 1   
    37   21   42 1   
    38   21   43 1   
    39   22   23 1   
    40   22   24 1   
@<TRIPOS>SUBSTRUCTURE
     1 KE4         1 TEMP              0 ****  ****    0 ROOT
