@<TRIPOS>MOLECULE
KE4
   43    43     1     0     0
SMALL
bcc


@<TRIPOS>ATOM
      1 P          -2.1200    4.3530   -0.2330 p5        1 KE4      1.316900
      2 OP1        -2.6570    3.5970   -1.4190 o         1 KE4     -0.922500
      3 OP2        -3.1290    4.9630    0.6960 o         1 KE4     -0.922500
      4 OP3        -0.8840    5.1770   -0.5130 o         1 KE4     -0.922500
      5 OP4        -1.4290    3.0770    0.7260 os        1 KE4     -0.561200
      6 C5A        -0.8860    2.0270    0.0330 c3        1 KE4      0.245700
      7 C5          0.6220    1.9750    0.1440 ca        1 KE4     -0.142600
      8 C6          1.3060    3.2270    0.0380 ca        1 KE4      0.370200
      9 N1          2.6300    3.3650    0.0800 nb        1 KE4     -0.683000
     10 C2          3.3880    2.2390    0.2170 ca        1 KE4      0.310600
     11 C2A         4.8750    2.3520    0.2720 c3        1 KE4     -0.108400
     12 C3          2.7970    0.9640    0.3260 ca        1 KE4     -0.014200
     13 O3          3.6630   -0.1040    0.4840 oh        1 KE4     -0.541100
     14 C4          1.3860    0.8200    0.3090 ca        1 KE4     -0.144300
     15 C4A         0.7960   -0.5480    0.5130 c3        1 KE4      0.205100
     16 N4A         0.7460   -1.3270   -0.7140 n3        1 KE4     -0.845200
     17 CA          0.6330   -2.7730   -0.5600 c3        1 KE4      0.142500
     18 C           2.0220   -3.4220   -0.2900 c3        1 KE4      0.132800
     19 N5          3.0030   -3.2660   -1.3370 n3        1 KE4     -0.906800
     20 CB         -0.3520   -3.2960    0.4980 c3        1 KE4     -0.090400
     21 CG         -1.0670   -4.5570    0.0650 c3        1 KE4     -0.184400
     22 CD         -0.2890   -5.8610    0.2860 c         1 KE4      0.901600
     23 OE1         0.5140   -5.9600    1.2600 o         1 KE4     -0.864800
     24 OE2        -0.5170   -6.8210   -0.5120 o         1 KE4     -0.864800
     25 H5A1       -1.1450    2.0990   -1.0690 h1        1 KE4      0.018200
     26 H5A2       -1.3110    1.0590    0.4340 h1        1 KE4      0.018200
     27 H6          0.6490    4.1550   -0.0990 h4        1 KE4      0.155100
     28 H2A1        5.2130    2.3300    1.3380 hc        1 KE4      0.020367
     29 H2A2        5.3370    1.4830   -0.2580 hc        1 KE4      0.020367
     30 H2A3        5.2400    3.2980   -0.1960 hc        1 KE4      0.020367
     31 HO3         3.2000   -0.9030    0.1950 ho        1 KE4      0.423000
     32 H4A1        1.4260   -1.1080    1.2660 h1        1 KE4      0.038200
     33 H4A2       -0.2250   -0.4370    0.9840 h1        1 KE4      0.038200
     34 HN4A       -0.0020   -0.9820   -1.2860 hn        1 KE4      0.367800
     35 HA          0.2820   -3.1520   -1.5700 h1        1 KE4      0.037700
     36 H1          2.4550   -2.9920    0.6560 h1        1 KE4      0.073700
     37 H2          1.8390   -4.5240   -0.1140 h1        1 KE4      0.073700
     38 HN51        2.6580   -3.6750   -2.1860 hn        1 KE4      0.331800
     39 HN52        3.1680   -2.2920   -1.5170 hn        1 KE4      0.331800
     40 HB1         0.2000   -3.5060    1.4520 hc        1 KE4      0.041700
     41 HB2        -1.1200   -2.5060    0.7170 hc        1 KE4      0.041700
     42 HG1        -2.0130   -4.6510    0.6600 hc        1 KE4      0.021200
     43 HG2        -1.3590   -4.4930   -1.0140 hc        1 KE4      0.021200
@<TRIPOS>BOND
     1    1    2 1   
     2    1    3 1   
     3    1    4 1   
     4    1    5 1   
     5    5    6 1   
     6    6    7 1   
     7    6   25 1   
     8    6   26 1   
     9    7    8 ar  
    10    7   14 ar  
    11    8    9 ar  
    12    8   27 1   
    13    9   10 ar  
    14   10   11 1   
    15   10   12 ar  
    16   11   28 1   
    17   11   29 1   
    18   11   30 1   
    19   12   13 1   
    20   12   14 ar  
    21   13   31 1   
    22   14   15 1   
    23   15   16 1   
    24   15   32 1   
    25   15   33 1   
    26   16   17 1   
    27   16   34 1   
    28   17   18 1   
    29   17   20 1   
    30   17   35 1   
    31   18   19 1   
    32   18   36 1   
    33   18   37 1   
    34   19   38 1   
    35   19   39 1   
    36   20   21 1   
    37   20   40 1   
    38   20   41 1   
    39   21   22 1   
    40   21   42 1   
    41   21   43 1   
    42   22   23 1   
    43   22   24 1   
@<TRIPOS>SUBSTRUCTURE
     1 KE4         1 TEMP              0 ****  ****    0 ROOT
