@<TRIPOS>MOLECULE
KE4
   45    45     1     0     0
SMALL
bcc


@<TRIPOS>ATOM
      1 P           0.0000    0.0000    0.0000 p5        1 KE4      0.768900
      2 OP1         1.6100    0.0000    0.0000 o         1 KE4     -0.479167
      3 OP2        -0.5360    0.0000    1.5180 o         1 KE4     -0.479167
      4 OP3        -0.4940   -1.2080   -0.6980 o         1 KE4     -0.479167
      5 OP4        -0.5370    1.3150   -0.7570 os        1 KE4     -0.459200
      6 C5A        -0.1300    1.2000   -2.1230 c3        1 KE4      0.274700
      7 C5         -0.6040    2.4060   -2.8910 ca        1 KE4     -0.147600
      8 C6         -1.3170    3.4060   -2.2550 ca        1 KE4      0.425200
      9 N1         -1.7370    4.4650   -2.9180 nb        1 KE4     -0.559000
     10 C2         -1.4980    4.6180   -4.2060 ca        1 KE4      0.308600
     11 C2A        -2.0000    5.8480   -4.9180 c3        1 KE4     -0.030400
     12 C3         -0.7940    3.6550   -4.9150 ca        1 KE4     -0.007200
     13 O3         -0.5510    3.8160   -6.2420 oh        1 KE4     -0.524100
     14 C4         -0.3320    2.5260   -4.2450 ca        1 KE4     -0.181300
     15 C4A         0.4430    1.4590   -4.9740 c3        1 KE4      0.041100
     16 N4A        -0.4890    0.4580   -5.5080 ny        1 KE4     -0.158000
     17 CA          0.3060   -0.4600   -6.3350 c3        1 KE4     -0.038500
     18 C           0.8670    0.2960   -7.5410 c3        1 KE4     -0.009200
     19 N5         -0.2360    0.9210   -8.2830 nz        1 KE4     -0.359600
     20 CB          1.4600   -1.0260   -5.5050 c3        1 KE4     -0.032400
     21 CG          0.8980   -1.8540   -4.3470 c3        1 KE4     -0.157400
     22 CD          2.0340   -2.4110   -3.5300 c         1 KE4      0.975600
     23 OE1         1.7780   -3.1750   -2.4560 o         1 KE4     -0.864800
     24 OE2         3.1770   -2.1700   -3.8400 o         1 KE4     -0.864800
     25 H5A1       -0.5610    0.3050   -2.5540 h1        1 KE4      0.026700
     26 H5A2        0.9510    1.1420   -2.1740 h1        1 KE4      0.026700
     27 H6         -1.5300    3.3190   -1.1960 h4        1 KE4      0.032100
     28 H2A1       -2.6450    6.4110   -4.2540 hc        1 KE4      0.008367
     29 H2A2       -1.1590    6.4630   -5.2120 hc        1 KE4      0.008367
     30 H2A3       -2.5580    5.5530   -5.7980 hc        1 KE4      0.008367
     31 HO3         0.0530    4.5300   -6.3660 ho        1 KE4      0.409000
     32 H4A1        1.1320    0.9810   -4.2890 hx        1 KE4      0.088200
     33 H4A2        0.9970    1.9080   -5.7900 hx        1 KE4      0.088200
     34 HN4A       -0.9200   -0.0440   -4.7570 hn        1 KE4      0.231800
     35 HA         -0.3230   -1.2720   -6.6800 hx        1 KE4      0.056700
     36 H1          1.5520    1.0630   -7.2000 hx        1 KE4      0.058200
     37 H2          1.3920   -0.3950   -8.1890 hx        1 KE4      0.058200
     38 HN51       -1.0800    0.4080   -8.1220 hn        1 KE4      0.191800
     39 HN52       -0.0240    0.9160   -9.2620 hn        1 KE4      0.191800
     40 HB1         2.0540   -0.2110   -5.1110 hc        1 KE4      0.049700
     41 HB2         2.0800   -1.6560   -6.1310 hc        1 KE4      0.049700
     42 HG1         0.3030   -2.6690   -4.7410 hc        1 KE4      0.014700
     43 HG2         0.2770   -1.2240   -3.7210 hc        1 KE4      0.014700
     44 H4A3       -1.1890    0.9040   -6.0670 hn        1 KE4      0.231800
     45 H53        -0.3550    1.8650   -7.9720 hn        1 KE4      0.191800
@<TRIPOS>BOND
     1    1    2 1   
     2    1    3 1   
     3    1    4 1   
     4    1    5 1   
     5    5    6 1   
     6    6    7 1   
     7    6   25 1   
     8    6   26 1   
     9    7    8 ar  
    10    7   14 ar  
    11    8    9 ar  
    12    8   27 1   
    13    9   10 ar  
    14   10   11 1   
    15   10   12 ar  
    16   11   28 1   
    17   11   29 1   
    18   11   30 1   
    19   12   13 1   
    20   12   14 ar  
    21   13   31 1   
    22   14   15 1   
    23   15   16 1   
    24   15   32 1   
    25   15   33 1   
    26   16   17 1   
    27   16   34 1   
    28   16   44 1   
    29   17   18 1   
    30   17   20 1   
    31   17   35 1   
    32   18   19 1   
    33   18   36 1   
    34   18   37 1   
    35   19   38 1   
    36   19   39 1   
    37   19   45 1   
    38   20   21 1   
    39   20   40 1   
    40   20   41 1   
    41   21   22 1   
    42   21   42 1   
    43   21   43 1   
    44   22   23 1   
    45   22   24 1   
@<TRIPOS>SUBSTRUCTURE
     1 KE4         1 TEMP              0 ****  ****    0 ROOT
