@<TRIPOS>MOLECULE
KEE
   41    44     1     0     0
SMALL
bcc


@<TRIPOS>ATOM
      1 C1          0.0270    0.6050   -0.1500 c         1 KEE      0.607100
      2 C2          1.4590    0.2710   -0.1790 cx        1 KEE     -0.258700
      3 C3          2.2210    0.1570    1.1380 cx        1 KEE      0.015600
      4 C4          2.0760   -1.0470    0.2410 cx        1 KEE     -0.035400
      5 C5          3.5050    0.8510    1.2910 ca        1 KEE     -0.111300
      6 C6          3.7950    1.4770    2.5130 ca        1 KEE     -0.105000
      7 C7          5.0030    2.1390    2.6970 ca        1 KEE     -0.106500
      8 C8          5.9480    2.1920    1.6600 ca        1 KEE     -0.070500
      9 C9          5.6580    1.5670    0.4360 ca        1 KEE     -0.106500
     10 C10         4.4480    0.9060    0.2560 ca        1 KEE     -0.105000
     11 C11         1.2760   -2.2230    0.6160 ca        1 KEE     -0.146300
     12 C12         0.9280   -3.1470   -0.3850 ca        1 KEE     -0.149500
     13 C13         0.2400   -4.3120   -0.0570 ca        1 KEE     -0.119000
     14 C14        -0.1070   -4.5720    1.2710 ca        1 KEE     -0.105000
     15 C15         0.2410   -3.6630    2.2690 ca        1 KEE     -0.119000
     16 C16         0.9310   -2.4930    1.9460 ca        1 KEE     -0.149500
     17 C17         7.2010    2.8720    1.8340 cc        1 KEE      0.168900
     18 O18         7.4560    3.4910    3.0730 os        1 KEE     -0.381800
     19 C19         8.7280    4.0560    2.9380 cc        1 KEE      0.511300
     20 N20         9.2630    3.8380    1.7400 nd        1 KEE     -0.661000
     21 C21         8.3170    3.0930    1.0270 cd        1 KEE      0.281900
     22 O22        -0.5310    1.6780   -0.0890 o         1 KEE     -0.350100
     23 N23        -0.9020   -0.6490   -0.2350 ny        1 KEE     -0.479300
     24 O24        -2.1500   -0.2330   -0.5350 oh        1 KEE     -0.344300
     25 H2          1.9480    0.8280   -1.0150 hc        1 KEE      0.164700
     26 H23        -0.8660   -1.1400    0.6790 hn        1 KEE      0.465800
     27 H3          1.6100    0.1790    2.0680 hc        1 KEE      0.084700
     28 H4          2.9790   -1.3510   -0.3430 hc        1 KEE      0.139700
     29 H6          3.0650    1.4460    3.3370 ha        1 KEE      0.132000
     30 H10         4.2410    0.4230   -0.7110 ha        1 KEE      0.132000
     31 H7          5.2270    2.6280    3.6600 ha        1 KEE      0.159000
     32 H9          6.3920    1.6020   -0.3840 ha        1 KEE      0.159000
     33 H12         1.2520   -2.9770   -1.4240 ha        1 KEE      0.152500
     34 H16         1.2440   -1.8090    2.7510 ha        1 KEE      0.152500
     35 H13        -0.0080   -5.0440   -0.8440 ha        1 KEE      0.162500
     36 H14        -0.6340   -5.5050    1.5310 ha        1 KEE      0.165000
     37 H15        -0.0070   -3.8770    3.3220 ha        1 KEE      0.162500
     38 H21         8.5090    2.7760    0.0010 h4        1 KEE      0.059100
     39 H19         9.1110    4.5910    3.8110 h5        1 KEE      0.100100
     40 H24        -2.7580   -1.0070   -0.5230 ho        1 KEE      0.462000
     41 H232       -0.5290   -1.2860   -0.9650 hn        1 KEE      0.465800
@<TRIPOS>BOND
     1    1    2 1   
     2    1   22 2   
     3    1   23 1   
     4    2    3 1   
     5    2    4 1   
     6    2   25 1   
     7    3    4 1   
     8    3    5 1   
     9    3   27 1   
    10    4   11 1   
    11    4   28 1   
    12    5    6 ar  
    13    5   10 ar  
    14    6    7 ar  
    15    6   29 1   
    16    7    8 ar  
    17    7   31 1   
    18    8    9 ar  
    19    8   17 1   
    20    9   10 ar  
    21    9   32 1   
    22   10   30 1   
    23   11   12 ar  
    24   11   16 ar  
    25   12   13 ar  
    26   12   33 1   
    27   13   14 ar  
    28   13   35 1   
    29   14   15 ar  
    30   14   36 1   
    31   15   16 ar  
    32   15   37 1   
    33   16   34 1   
    34   17   18 1   
    35   17   21 2   
    36   18   19 1   
    37   19   20 2   
    38   19   39 1   
    39   20   21 1   
    40   21   38 1   
    41   23   24 1   
    42   23   26 1   
    43   23   41 1   
    44   24   40 1   
@<TRIPOS>SUBSTRUCTURE
     1 KEE         1 TEMP              0 ****  ****    0 ROOT
