@<TRIPOS>MOLECULE
KEE
   40    43     1     0     0
SMALL
bcc


@<TRIPOS>ATOM
      1 C1          2.6670   -1.8830    0.6800 c         1 KEE      0.625100
      2 C2          1.5810   -1.2790   -0.1490 cx        1 KEE     -0.209700
      3 C3          0.7690   -0.1450    0.4330 cx        1 KEE     -0.042400
      4 C4          1.7040    0.1140   -0.7300 cx        1 KEE     -0.042400
      5 C5         -0.6880   -0.0950    0.2480 ca        1 KEE     -0.043300
      6 C6         -1.4880    0.4240    1.2760 ca        1 KEE     -0.123500
      7 C7         -2.8700    0.4900    1.1350 ca        1 KEE     -0.103000
      8 C8         -3.4830    0.0370   -0.0430 ca        1 KEE     -0.123500
      9 C9         -2.6860   -0.4840   -1.0730 ca        1 KEE     -0.103000
     10 C10        -1.3040   -0.5480   -0.9260 ca        1 KEE     -0.123500
     11 C11         2.9050    0.9500   -0.5890 ca        1 KEE     -0.075300
     12 C12         3.3840    1.6290   -1.7190 ca        1 KEE     -0.121500
     13 C13         4.5070    2.4480   -1.6280 ca        1 KEE     -0.126500
     14 C14         5.1650    2.6020   -0.4080 ca        1 KEE     -0.122000
     15 C15         4.6950    1.9320    0.7200 ca        1 KEE     -0.126500
     16 C16         3.5720    1.1100    0.6320 ca        1 KEE     -0.121500
     17 C17        -4.9100    0.0980   -0.2080 cc        1 KEE      0.214900
     18 O18        -5.6830    0.6270    0.8420 os        1 KEE     -0.382800
     19 C19        -7.0060    0.5530    0.3900 cc        1 KEE      0.482300
     20 N20        -7.1040    0.0320   -0.8290 nd        1 KEE     -0.666000
     21 C21        -5.7930   -0.2640   -1.2260 cd        1 KEE      0.239900
     22 O22         2.7240   -1.7700    1.9150 o         1 KEE     -0.562100
     23 N23         3.5680   -2.7580   -0.0070 n         1 KEE     -0.346400
     24 O24         4.6990   -3.0200    0.6530 oh        1 KEE     -0.436100
     25 H2          1.0550   -2.0410   -0.7630 hc        1 KEE      0.111700
     26 H23         3.8240   -2.4050   -0.9240 hn        1 KEE      0.301500
     27 H3          1.0890    0.2220    1.4350 hc        1 KEE      0.110700
     28 H4          1.2230    0.2480   -1.7260 hc        1 KEE      0.090700
     29 H6         -1.0190    0.7810    2.2070 ha        1 KEE      0.137000
     30 H10        -0.6940   -0.9610   -1.7450 ha        1 KEE      0.137000
     31 H7         -3.4910    0.8990    1.9480 ha        1 KEE      0.143500
     32 H9         -3.1570   -0.8440   -2.0010 ha        1 KEE      0.143500
     33 H12         2.8690    1.5180   -2.6850 ha        1 KEE      0.140000
     34 H16         3.2170    0.5780    1.5310 ha        1 KEE      0.140000
     35 H13         4.8730    2.9750   -2.5220 ha        1 KEE      0.136000
     36 H14         6.0500    3.2500   -0.3370 ha        1 KEE      0.134000
     37 H15         5.2100    2.0470    1.6850 ha        1 KEE      0.136000
     38 H21        -5.5850   -0.7080   -2.1990 h4        1 KEE      0.053100
     39 H19        -7.7660    0.9240    1.0780 h5        1 KEE      0.089100
     40 H24         4.4460   -3.6100    1.3910 ho        1 KEE      0.434000
@<TRIPOS>BOND
     1    1    2 1   
     2    1   22 2   
     3    1   23 1   
     4    2    3 1   
     5    2    4 1   
     6    2   25 1   
     7    3    4 1   
     8    3    5 1   
     9    3   27 1   
    10    4   11 1   
    11    4   28 1   
    12    5    6 ar  
    13    5   10 ar  
    14    6    7 ar  
    15    6   29 1   
    16    7    8 ar  
    17    7   31 1   
    18    8    9 ar  
    19    8   17 1   
    20    9   10 ar  
    21    9   32 1   
    22   10   30 1   
    23   11   12 ar  
    24   11   16 ar  
    25   12   13 ar  
    26   12   33 1   
    27   13   14 ar  
    28   13   35 1   
    29   14   15 ar  
    30   14   36 1   
    31   15   16 ar  
    32   15   37 1   
    33   16   34 1   
    34   17   18 1   
    35   17   21 2   
    36   18   19 1   
    37   19   20 2   
    38   19   39 1   
    39   20   21 1   
    40   21   38 1   
    41   23   24 1   
    42   23   26 1   
    43   24   40 1   
@<TRIPOS>SUBSTRUCTURE
     1 KEE         1 TEMP              0 ****  ****    0 ROOT
