@<TRIPOS>MOLECULE
KEE
   41    44     1     0     0
SMALL
bcc


@<TRIPOS>ATOM
      1 C1          0.1450    0.4840   -0.6070 c         1 KEE      0.607100
      2 C2          1.5670    0.1550   -0.4380 cx        1 KEE     -0.258700
      3 C3          2.2100    0.1150    0.9450 cx        1 KEE      0.015600
      4 C4          2.1300   -1.1390    0.1150 cx        1 KEE     -0.035400
      5 C5          3.4790    0.8180    1.1660 ca        1 KEE     -0.111300
      6 C6          3.6590    1.5340    2.3590 ca        1 KEE     -0.105000
      7 C7          4.8510    2.2070    2.6050 ca        1 KEE     -0.106500
      8 C8          5.8890    2.1800    1.6590 ca        1 KEE     -0.070500
      9 C9          5.7080    1.4650    0.4640 ca        1 KEE     -0.106500
     10 C10         4.5150    0.7930    0.2230 ca        1 KEE     -0.105000
     11 C11         1.2880   -2.2790    0.5110 ca        1 KEE     -0.146300
     12 C12         0.7660   -3.1300   -0.4750 ca        1 KEE     -0.149500
     13 C13         0.0410   -4.2630   -0.1100 ca        1 KEE     -0.119000
     14 C14        -0.1640   -4.5600    1.2390 ca        1 KEE     -0.105000
     15 C15         0.3590   -3.7210    2.2230 ca        1 KEE     -0.119000
     16 C16         1.0820   -2.5830    1.8640 ca        1 KEE     -0.149500
     17 C17         7.1250    2.8700    1.8980 cc        1 KEE      0.168900
     18 O18         7.2690    3.5800    3.1060 os        1 KEE     -0.381800
     19 C19         8.5520    4.1340    3.0480 cc        1 KEE      0.511300
     20 N20         9.1940    3.8260    1.9240 nd        1 KEE     -0.661000
     21 C21         8.3130    3.0300    1.1840 cd        1 KEE      0.281900
     22 O22        -0.3750    1.3790   -1.2370 o         1 KEE     -0.350100
     23 N23        -0.8330   -0.4870    0.1260 n4        1 KEE     -0.479300
     24 O24        -2.0390    0.1130    0.2130 oh        1 KEE     -0.344300
     25 H2          2.1470    0.6500   -1.2570 hc        1 KEE      0.164700
     26 H23        -0.8710   -1.3710   -0.4180 hn        1 KEE      0.465800
     27 H3          1.5270    0.1900    1.8200 hc        1 KEE      0.084700
     28 H4          3.0690   -1.4910   -0.3780 hc        1 KEE      0.139700
     29 H6          2.8570    1.5660    3.1120 ha        1 KEE      0.132000
     30 H10         4.3950    0.2380   -0.7210 ha        1 KEE      0.132000
     31 H7          4.9880    2.7680    3.5450 ha        1 KEE      0.159000
     32 H9          6.5160    1.4370   -0.2850 ha        1 KEE      0.159000
     33 H12         0.9740   -2.9310   -1.5390 ha        1 KEE      0.152500
     34 H16         1.5330   -1.9510    2.6460 ha        1 KEE      0.152500
     35 H13        -0.3480   -4.9400   -0.8880 ha        1 KEE      0.162500
     36 H14        -0.7190   -5.4680    1.5260 ha        1 KEE      0.165000
     37 H15         0.2220   -3.9670    3.2890 ha        1 KEE      0.162500
     38 H21         8.5960    2.6370    0.2060 h4        1 KEE      0.059100
     39 H19         8.8560    4.7320    3.9100 h5        1 KEE      0.100100
     40 H24        -2.7020   -0.5440    0.5220 ho        1 KEE      0.462000
     41 H232       -0.4540   -0.6980    1.0700 hn        1 KEE      0.465800
@<TRIPOS>BOND
     1    1    2 1   
     2    1   22 2   
     3    1   23 1   
     4    2    3 1   
     5    2    4 1   
     6    2   25 1   
     7    3    4 1   
     8    3    5 1   
     9    3   27 1   
    10    4   11 1   
    11    4   28 1   
    12    5    6 ar  
    13    5   10 ar  
    14    6    7 ar  
    15    6   29 1   
    16    7    8 ar  
    17    7   31 1   
    18    8    9 ar  
    19    8   17 1   
    20    9   10 ar  
    21    9   32 1   
    22   10   30 1   
    23   11   12 ar  
    24   11   16 ar  
    25   12   13 ar  
    26   12   33 1   
    27   13   14 ar  
    28   13   35 1   
    29   14   15 ar  
    30   14   36 1   
    31   15   16 ar  
    32   15   37 1   
    33   16   34 1   
    34   17   18 1   
    35   17   21 2   
    36   18   19 1   
    37   19   20 2   
    38   19   39 1   
    39   20   21 1   
    40   21   38 1   
    41   23   24 1   
    42   23   26 1   
    43   23   41 1   
    44   24   40 1   
@<TRIPOS>SUBSTRUCTURE
     1 KEE         1 TEMP              0 ****  ****    0 ROOT
