@<TRIPOS>MOLECULE
KEE
   40    36     1     0     0
SMALL
bcc


@<TRIPOS>ATOM
      1 C1         -1.8500    0.7910   -0.8610 c1        1 KEE      0.288000
      2 C2         -0.9820    0.3800   -1.9300 cu        1 KEE     -0.183000
      3 C3          0.1380   -0.2950   -1.1390 cx        1 KEE     -0.092000
      4 C4          0.3080    1.1010   -1.5380 cx        1 KEE     -0.092000
      5 C5         -0.1540   -0.5340    0.3730 c2        1 KEE     -0.056500
      6 C6         -0.8390   -1.6780    0.7740 c1        1 KEE     -0.120000
      7 C7         -0.9640   -1.9770    2.1280 c1        1 KEE     -0.109000
      8 C8         -0.4040   -1.1330    3.0820 c1        1 KEE     -0.015000
      9 C9          0.2810    0.0110    2.6830 c1        1 KEE     -0.115000
     10 C10         0.4060    0.3110    1.3280 c2        1 KEE     -0.119000
     11 C11         1.3170    1.3520   -2.6950 c2        1 KEE     -0.056500
     12 C12         2.5900    1.8380   -2.4140 c2        1 KEE     -0.119000
     13 C13         3.5140    2.0050   -3.4410 c1        1 KEE     -0.115000
     14 C14         3.1650    1.6850   -4.7500 c1        1 KEE     -0.128000
     15 C15         1.8930    1.1980   -5.0310 c1        1 KEE     -0.128000
     16 C16         0.9680    1.0310   -4.0040 c1        1 KEE     -0.120000
     17 C17        -0.4320   -1.5270    4.5570 c2        1 KEE     -0.021000
     18 O18         0.4900   -2.2700    5.1950 os        1 KEE     -0.124000
     19 C19         0.0770   -2.4390    6.4840 c1        1 KEE     -0.048000
     20 N20        -1.1100   -1.7930    6.6340 n2        1 KEE     -0.141000
     21 C21        -1.4300   -1.2290    5.4530 c1        1 KEE     -0.160000
     22 O22        -1.4690    1.6170   -0.0510 o         1 KEE     -0.314000
     23 N23        -3.2030    0.3150   -0.8150 n3        1 KEE     -0.211000
     24 O24        -3.5450   -0.8430   -1.4680 oh        1 KEE     -0.246000
     25 H2         -1.6200    0.2480   -2.6650 ha        1 KEE      0.145000
     26 H23        -3.8420    0.7940   -0.3660 hn        1 KEE      0.217000
     27 H3          0.6770   -0.9480   -1.6380 hc        1 KEE      0.146500
     28 H4          0.2230    1.7610   -0.8180 hc        1 KEE      0.146500
     29 H6         -1.2340   -2.2730    0.1020 ha        1 KEE      0.145500
     30 H10         0.8880    1.1160    1.0480 ha        1 KEE      0.138000
     31 H7         -1.4470   -2.7850    2.4100 ha        1 KEE      0.138000
     32 H9          0.6760    0.6060    3.3560 ha        1 KEE      0.141000
     33 H12         2.8360    2.0640   -1.4930 ha        1 KEE      0.138000
     34 H16         0.0730    0.6890   -4.2020 ha        1 KEE      0.145500
     35 H13         4.4120    2.3480   -3.2430 ha        1 KEE      0.141000
     36 H14         3.8170    1.8020   -5.4740 ha        1 KEE      0.133500
     37 H15         1.6470    0.9720   -5.9540 ha        1 KEE      0.133500
     38 H21        -2.2360   -0.6990    5.2660 DU        1 KEE      0.207500
     39 H19         0.5530   -2.9400    7.1810 DU        1 KEE      0.207500
     40 H24        -4.1880   -0.6710   -2.0610 ho        1 KEE      0.222000
@<TRIPOS>BOND
     1    1   22 1   
     2    1   23 1   
     3    2    3 1   
     4    2    4 1   
     5    2   25 1   
     6    3    4 1   
     7    3    5 1   
     8    3   27 1   
     9    4   11 1   
    10    4   28 1   
    11    5    6 1   
    12    5   10 1   
    13    6   29 1   
    14    7    8 1   
    15    7   31 1   
    16    8   17 1   
    17    9   10 1   
    18    9   32 1   
    19   10   30 1   
    20   11   12 1   
    21   11   16 1   
    22   12   13 1   
    23   12   33 1   
    24   13   35 1   
    25   14   15 1   
    26   14   36 1   
    27   15   37 1   
    28   16   34 1   
    29   17   18 1   
    30   17   21 1   
    31   18   19 1   
    32   19   20 1   
    33   20   21 1   
    34   23   24 1   
    35   23   26 1   
    36   24   40 1   
@<TRIPOS>SUBSTRUCTURE
     1 KEE         1 TEMP              0 ****  ****    0 ROOT
