@<TRIPOS>MOLECULE
KEF
   46    42     1     0     0
SMALL
bcc


@<TRIPOS>ATOM
      1 C14        -1.2900   -0.8240    0.0990 c2        1 KEF     -0.162000
      2 O15         8.1480   -4.0730    0.3960 o         1 KEF     -0.157000
      3 C16         8.5470   -3.1320   -0.1560 c1        1 KEF      0.150500
      4 C17        -3.3200   -1.2820    1.6640 c2        1 KEF     -0.152000
      5 C19        -2.3200   -1.0490    0.8750 c1        1 KEF     -0.065000
      6 N16        -2.4400    0.3430   -1.7120 n2        1 KEF     -0.105000
      7 C4'         3.2940   -0.4410   -5.2310 c2        1 KEF      0.351000
      8 C11         0.0160    0.5570   -1.4880 c2        1 KEF      0.287000
      9 C13        -1.3460    0.0400   -1.0850 c2        1 KEF      0.001000
     10 C2          5.1540    0.7330   -3.5130 c2        1 KEF     -0.978000
     11 C3          5.5740   -0.5010   -4.1280 c2        1 KEF     -0.220000
     12 C4          4.6540   -1.0970   -5.0300 c2        1 KEF      0.176000
     13 C6          3.3120   -0.2040   -1.8940 c2        1 KEF     -0.811000
     14 C7          2.1150   -0.7000   -1.5450 c1        1 KEF     -0.149000
     15 C8          1.8120   -2.2010    0.1240 c1        1 KEF      0.150500
     16 N10         0.8650   -0.4170   -2.2460 n4        1 KEF     -0.071000
     17 N5          4.8960   -2.2230   -5.7120 n3        1 KEF     -0.265000
     18 O4A         2.5980   -0.6380   -6.2300 o         1 KEF     -0.302000
     19 O4B         2.7910    0.3440   -4.2800 os        1 KEF     -0.551000
     20 O12         0.4520    1.6750   -1.2590 o         1 KEF     -0.184000
     21 S1          3.7840    1.0040   -2.9230 s4        1 KEF      1.595000
     22 O3'         7.6550   -0.4690   -3.0730 os        1 KEF     -0.205000
     23 C31         8.9090   -0.9840   -3.0280 c2        1 KEF      0.367000
     24 O31         9.6070   -1.3790   -3.9440 o         1 KEF     -0.194000
     25 N31         9.4430   -0.9040   -1.6310 n4        1 KEF     -0.164000
     26 H16        -3.5320   -0.6560    2.5450 ha        1 KEF      0.159500
     27 H17        -4.0130   -2.1230    1.5010 ha        1 KEF      0.159500
     28 H19        -0.3020   -1.2870    0.3060 ha        1 KEF      0.195000
     29 H183       -4.3650    1.4720   -3.1840 ha        1 KEF      0.091000
     30 H182       -3.2500    3.8810   -2.7720 ha        1 KEF      0.004250
     31 H181       -3.6260    3.6450   -2.2580 ha        1 KEF      0.004250
     32 H3'2        7.9560   -3.2800   -2.4750 ha        1 KEF      0.004250
     33 H3'1        7.6340   -3.2500   -3.0740 ha        1 KEF      0.004250
     34 H2          5.8760    1.5570   -3.6370 h4        1 KEF      0.189000
     35 H4          4.2310   -2.5620   -6.3740 hn        1 KEF      0.268500
     36 H6          4.1210   -0.6420   -1.2710 h4        1 KEF      0.191000
     37 H7          5.7840   -2.6710   -5.6320 hn        1 KEF      0.268500
     38 H10         0.3820   -1.3230   -2.2710 hn        1 KEF      0.241500
     39 HN31        9.0970   -1.7530   -1.0820 hn        1 KEF      0.278000
     40 HN32        9.1030   -0.0540   -1.1770 hn        1 KEF      0.278000
     41 O17        -2.3090    1.1370   -2.8330 os        1 KEF     -0.063000
     42 O9          2.9380   -2.4460    0.3800 o         1 KEF     -0.157000
     43 H102        0.9770   -0.0700   -3.2140 hn        1 KEF      0.241500
     44 H313       10.4650   -0.9050   -1.6570 hn        1 KEF      0.278000
     45 C3'         6.8150   -1.1310   -3.9820 c1        1 KEF     -0.021000
     46 C18        -3.3080    1.6260   -3.4670 c1        1 KEF      0.043000
@<TRIPOS>BOND
     1    1    5 1   
     2    1    9 1   
     3    1   28 1   
     4    2    3 1   
     5    4    5 1   
     6    4   26 1   
     7    4   27 1   
     8    6    9 1   
     9    6   41 1   
    10    7   12 1   
    11    7   18 1   
    12    7   19 1   
    13    8    9 1   
    14    8   16 1   
    15    8   20 1   
    16   10   11 1   
    17   10   21 1   
    18   10   34 1   
    19   11   12 1   
    20   11   45 1   
    21   12   17 1   
    22   13   14 1   
    23   13   21 1   
    24   13   36 1   
    25   14   16 1   
    26   15   42 1   
    27   16   38 1   
    28   16   43 1   
    29   17   35 1   
    30   17   37 1   
    31   19   21 1   
    32   22   23 1   
    33   22   45 1   
    34   23   24 1   
    35   23   25 1   
    36   25   39 1   
    37   25   40 1   
    38   25   44 1   
    39   29   46 1   
    40   30   31 1   
    41   32   33 1   
    42   41   46 1   
@<TRIPOS>SUBSTRUCTURE
     1 KEF         1 TEMP              0 ****  ****    0 ROOT
