@<TRIPOS>MOLECULE
KEF
   44    46     1     0     0
SMALL
bcc


@<TRIPOS>ATOM
      1 C14         3.9900    1.9700    0.6980 cc        1 KEF      0.207400
      2 O15         3.0410    2.0880    1.7270 os        1 KEF     -0.343800
      3 C16         3.1040    3.4060    2.1680 cc        1 KEF      0.266600
      4 C17         4.0570    4.1090    1.4560 cd        1 KEF     -0.284300
      5 C19         4.6300    3.1840    0.5060 cd        1 KEF     -0.212300
      6 C18         5.7900   -0.7810   -2.6550 c3        1 KEF      0.130700
      7 N16         4.8860    0.5270   -0.9690 n2        1 KEF     -0.402200
      8 C4'        -3.4090   -2.0990    1.3510 c         1 KEF      0.941600
      9 C11         3.3080   -0.4540    0.7230 c         1 KEF      0.579800
     10 C13         4.1010    0.6660    0.0720 ce        1 KEF      0.286300
     11 C2         -2.0050    0.8280    0.2620 c2        1 KEF     -0.094400
     12 C3         -2.6740   -0.2520   -0.1690 c2        1 KEF     -0.101400
     13 C4         -2.3350   -1.6630    0.2480 c3        1 KEF     -0.028100
     14 C6         -0.3220   -0.8750    1.5910 cy        1 KEF      0.143800
     15 C7          1.0680   -1.3970    1.0380 cy        1 KEF     -0.003300
     16 C8          0.1850   -2.2170    0.0200 c         1 KEF      0.681500
     17 N10         1.9540   -0.4400    0.4770 n         1 KEF     -0.523900
     18 N5         -0.9790   -1.8100    0.6860 n         1 KEF     -0.400800
     19 O4A        -4.5040   -2.4850    0.8670 o         1 KEF     -0.804800
     20 O4B        -3.1040   -2.0170    2.5620 o         1 KEF     -0.804800
     21 O12         3.8860   -1.3260    1.3950 o         1 KEF     -0.584100
     22 S1         -0.6650    0.8640    1.2920 ss        1 KEF     -0.290700
     23 O3'        -4.4140    1.1480   -0.9890 os        1 KEF     -0.438900
     24 C31        -5.3150    1.4750   -1.9670 c         1 KEF      0.723100
     25 O31        -5.5160    0.7130   -2.9290 o         1 KEF     -0.594000
     26 N31        -5.8760    2.7290   -1.7840 n         1 KEF     -0.628000
     27 H16         2.4050    3.6390    2.9670 h4        1 KEF      0.060100
     28 H17         4.3330    5.1520    1.5710 ha        1 KEF      0.159000
     29 H19         5.4100    3.4050   -0.2170 ha        1 KEF      0.167000
     30 H183        5.4330   -0.1120   -3.4720 h1        1 KEF      0.049033
     31 H182        5.6710   -1.8580   -2.9340 h1        1 KEF      0.049033
     32 H181        6.8470   -0.5500   -2.3860 h1        1 KEF      0.049033
     33 H3'2       -4.6540   -0.9120   -0.7140 h1        1 KEF      0.094200
     34 H3'1       -3.5730   -0.4100   -2.1280 h1        1 KEF      0.094200
     35 H2         -2.3250    1.8410   -0.0250 h4        1 KEF      0.151000
     36 H4         -2.4830   -2.3620   -0.6260 h1        1 KEF      0.086700
     37 H6         -0.5340   -1.1050    2.6620 h2        1 KEF      0.133700
     38 H7          1.6030   -2.0660    1.7630 h1        1 KEF      0.116700
     39 H10         1.5370    0.3740    0.0740 hn        1 KEF      0.337500
     40 HN31       -5.7930    3.1270   -0.8790 hn        1 KEF      0.303000
     41 HN32       -6.7270    2.8870   -2.2690 hn        1 KEF      0.303000
     42 O17         4.9330   -0.6800   -1.4950 os        1 KEF     -0.160300
     43 C3'        -3.8620   -0.1880   -1.0670 c3        1 KEF      0.178600
     44 O9          0.4170   -2.9680   -0.9200 o         1 KEF     -0.592500
@<TRIPOS>BOND
     1    1    2 1   
     2    1    5 2   
     3    1   10 1   
     4    2    3 1   
     5    3    4 2   
     6    3   27 1   
     7    4    5 1   
     8    4   28 1   
     9    5   29 1   
    10    6   30 1   
    11    6   31 1   
    12    6   32 1   
    13    6   42 1   
    14    7   10 2   
    15    7   42 1   
    16    8   13 1   
    17    8   19 1   
    18    8   20 1   
    19    9   10 1   
    20    9   17 1   
    21    9   21 2   
    22   11   12 2   
    23   11   22 1   
    24   11   35 1   
    25   12   13 1   
    26   12   43 1   
    27   13   18 1   
    28   13   36 1   
    29   14   15 1   
    30   14   18 1   
    31   14   22 1   
    32   14   37 1   
    33   15   16 1   
    34   15   17 1   
    35   15   38 1   
    36   16   18 1   
    37   16   44 2   
    38   17   39 1   
    39   23   24 1   
    40   23   43 1   
    41   24   25 2   
    42   24   26 1   
    43   26   40 1   
    44   26   41 1   
    45   33   43 1   
    46   34   43 1   
@<TRIPOS>SUBSTRUCTURE
     1 KEF         1 TEMP              0 ****  ****    0 ROOT
