@<TRIPOS>MOLECULE
KEF
   46    42     1     0     0
SMALL
bcc


@<TRIPOS>ATOM
      1 C14        -0.6020   -1.6980   -1.0410 c2        1 KEF     -0.158000
      2 O15         1.7750    2.6770   -0.2590 o         1 KEF     -0.292000
      3 C16         1.8120    3.5320    0.5500 c1        1 KEF      0.295000
      4 C17        -2.5140   -3.3120   -0.3240 c2        1 KEF     -0.144000
      5 C19        -1.5710   -2.4970   -0.6770 c1        1 KEF     -0.065000
      6 N16        -1.7660    0.4440   -1.0020 n2        1 KEF     -0.096000
      7 C4'         3.6050   -3.2580   -7.3210 c1        1 KEF      0.427000
      8 C11         0.1580    0.1430   -2.5250 c2        1 KEF      0.263000
      9 C13        -0.8210   -0.3110   -1.4660 c2        1 KEF      0.005000
     10 C2          5.5850    0.3120   -3.6880 c2        1 KEF     -0.279000
     11 C3          6.0230   -0.8610   -3.0410 c2        1 KEF     -0.223000
     12 C4          5.2970   -2.0970   -2.7860 c1        1 KEF     -0.109000
     13 C6          2.8890   -0.2910   -4.0220 c3        1 KEF     -0.244000
     14 C7          2.5510   -0.4220   -2.6190 c2        1 KEF     -0.561000
     15 C8          3.0970   -1.4310   -1.7630 c2        1 KEF      0.313000
     16 N10         1.5480    0.4450   -2.0350 ny        1 KEF      0.039000
     17 N5          4.1280   -2.3130   -2.2690 ns        1 KEF     -0.163000
     18 O4A         3.6400   -4.1160   -8.1380 o         1 KEF     -0.213500
     19 O4B         3.5700   -2.3950   -6.4970 o         1 KEF     -0.213500
     20 O12        -0.0910    0.3000   -3.7100 o         1 KEF     -0.183000
     21 S1          4.2420    0.8320   -4.3030 ss        1 KEF      0.627000
     22 O3'         8.2020    0.0330   -2.8630 os        1 KEF     -0.236000
     23 C31         9.6180   -0.1800   -2.6960 c2        1 KEF      0.394000
     24 O31        10.2300    0.0960   -3.7220 o         1 KEF     -0.249000
     25 N31        10.0310   -0.6260   -1.4770 nt        1 KEF     -0.394000
     26 H16        -2.8570   -3.3940    0.7210 ha        1 KEF      0.163500
     27 H17        -3.0250   -3.9710   -1.0440 ha        1 KEF      0.163500
     28 H19         0.4540   -2.0300   -1.0230 ha        1 KEF      0.178000
     29 H183       -3.7590    2.2340   -0.8040 ha        1 KEF      0.098000
     30 H182       -2.1940    3.9210    0.5100 ha        1 KEF      0.003500
     31 H181       -2.3140    3.3610    0.8740 ha        1 KEF      0.003500
     32 H3'2        7.3810   -4.1570   -1.6130 ha        1 KEF      0.003500
     33 H3'1        6.8000   -3.9300   -1.8780 ha        1 KEF      0.003500
     34 H2          6.4170    1.0490   -3.8630 h4        1 KEF      0.204000
     35 H4          3.9210   -3.2850   -2.0950 hn        1 KEF      0.276000
     36 H6          2.0680    0.1710   -4.6420 h1        1 KEF      0.163500
     37 H7          3.1240   -1.2840   -4.4930 h1        1 KEF      0.163500
     38 H10         1.7700    1.4230   -2.2590 hn        1 KEF      0.255000
     39 HN31        7.7730   -1.9910   -2.3680 h4        1 KEF      0.200000
     40 HN32        9.4180   -0.5830   -0.6990 hn        1 KEF      0.259500
     41 O17        -1.8110    1.7440   -1.4660 os        1 KEF     -0.065000
     42 O9          2.7090   -1.6220   -0.5870 o         1 KEF     -0.385000
     43 H102        1.5770    0.3290   -1.0080 hn        1 KEF      0.255000
     44 H313       11.0130   -0.6370   -1.3060 hn        1 KEF      0.259500
     45 C3'         7.3750   -1.0190   -2.7300 c2        1 KEF      0.215000
     46 C18        -2.8120    2.5210   -1.2960 c1        1 KEF      0.043000
@<TRIPOS>BOND
     1    1    5 1   
     2    1    9 1   
     3    1   28 1   
     4    2    3 1   
     5    4    5 1   
     6    4   26 1   
     7    4   27 1   
     8    6    9 1   
     9    6   41 1   
    10    7   18 1   
    11    7   19 1   
    12    8    9 1   
    13    8   16 1   
    14    8   20 1   
    15   10   11 1   
    16   10   21 1   
    17   10   34 1   
    18   11   12 1   
    19   11   45 1   
    20   12   17 1   
    21   13   14 1   
    22   13   21 1   
    23   13   36 1   
    24   13   37 1   
    25   14   15 1   
    26   14   16 1   
    27   15   17 1   
    28   15   42 1   
    29   16   38 1   
    30   16   43 1   
    31   17   35 1   
    32   22   23 1   
    33   22   45 1   
    34   23   24 1   
    35   23   25 1   
    36   25   40 1   
    37   25   44 1   
    38   29   46 1   
    39   30   31 1   
    40   32   33 1   
    41   39   45 1   
    42   41   46 1   
@<TRIPOS>SUBSTRUCTURE
     1 KEF         1 TEMP              0 ****  ****    0 ROOT
