@<TRIPOS>MOLECULE
KEK
   34    34     1     0     0
SMALL
bcc


@<TRIPOS>ATOM
      1 Cl          0.9260   -0.6050    0.6280 cl        1 KEK     -0.132400
      2 C02         2.2000    0.3110   -0.0530 ca        1 KEK      0.007400
      3 C03         3.3630    0.4730    0.7050 ca        1 KEK     -0.145000
      4 C04         4.4250    1.2080    0.1840 ca        1 KEK     -0.145000
      5 C05         4.3190    1.7730   -1.0860 ca        1 KEK     -0.125000
      6 C06         3.1580    1.6120   -1.8400 ca        1 KEK     -0.106000
      7 C07         2.0750    0.8780   -1.3330 ca        1 KEK     -0.061300
      8 C08         0.8190    0.6840   -2.1090 c3        1 KEK     -0.024100
      9 C09         0.7850    1.4390   -3.4160 c3        1 KEK     -0.211400
     10 C10        -0.4960    1.2700   -4.1710 c         1 KEK      0.591100
     11 C11        -0.5250    2.0050   -5.5010 c3        1 KEK     -0.158500
     12 C12         0.2400    1.2240   -6.5140 c2        1 KEK     -0.145200
     13 C13         1.3760    1.6050   -7.1000 ce        1 KEK     -0.213200
     14 C14         2.1340    2.8550   -6.8520 c         1 KEK      0.463300
     15 C15         2.5770    3.1050   -5.4050 c         1 KEK      0.851600
     16 O16         3.5470    2.4320   -4.9610 o         1 KEK     -0.816800
     17 O17         1.9110    3.9350   -4.7260 o         1 KEK     -0.816800
     18 O18         2.4150    3.6110   -7.7910 o         1 KEK     -0.565100
     19 C19        -1.9480    2.2320   -5.9700 c3        1 KEK     -0.074100
     20 O20        -1.4570    0.6080   -3.7600 o         1 KEK     -0.578100
     21 H03         3.4390    0.0230    1.7050 ha        1 KEK      0.127000
     22 H04         5.3420    1.3390    0.7760 ha        1 KEK      0.118000
     23 H05         5.1550    2.3520   -1.5070 ha        1 KEK      0.140000
     24 H06         3.1150    2.0720   -2.8540 ha        1 KEK      0.218000
     25 H081        0.6820   -0.4140   -2.3110 hc        1 KEK      0.055700
     26 H082       -0.0570    1.0060   -1.4800 hc        1 KEK      0.055700
     27 H091        0.9480    2.5440   -3.2440 hc        1 KEK      0.116700
     28 H092        1.6310    1.1140   -4.0890 hc        1 KEK      0.116700
     29 H11        -0.0220    3.0100   -5.3380 hc        1 KEK      0.128700
     30 H12        -0.2210    0.2560   -6.7790 ha        1 KEK      0.108000
     31 H191       -2.4820    1.2580   -6.0860 hc        1 KEK      0.032700
     32 H192       -1.9480    2.7660   -6.9500 hc        1 KEK      0.032700
     33 H193       -2.5000    2.8480   -5.2210 hc        1 KEK      0.032700
     34 H13         1.8560    0.9470   -7.8470 ha        1 KEK      0.124000
@<TRIPOS>BOND
     1    1    2 1   
     2    2    3 ar  
     3    2    7 ar  
     4    3    4 ar  
     5    3   21 1   
     6    4    5 ar  
     7    4   22 1   
     8    5    6 ar  
     9    5   23 1   
    10    6    7 ar  
    11    6   24 1   
    12    7    8 1   
    13    8    9 1   
    14    8   25 1   
    15    8   26 1   
    16    9   10 1   
    17    9   27 1   
    18    9   28 1   
    19   10   11 1   
    20   10   20 2   
    21   11   12 1   
    22   11   19 1   
    23   11   29 1   
    24   12   13 2   
    25   12   30 1   
    26   13   14 1   
    27   13   34 1   
    28   14   15 1   
    29   14   18 2   
    30   15   16 1   
    31   15   17 1   
    32   19   31 1   
    33   19   32 1   
    34   19   33 1   
@<TRIPOS>SUBSTRUCTURE
     1 KEK         1 TEMP              0 ****  ****    0 ROOT
