@<TRIPOS>MOLECULE
KEK
   34    34     1     0     0
SMALL
bcc


@<TRIPOS>ATOM
      1 CL          4.4360   -0.8220    0.1490 cl        1 KEK     -0.129400
      2 C02         3.6940    0.7190    0.1780 ca        1 KEK      0.012400
      3 C03         4.4970    1.8220    0.4880 ca        1 KEK     -0.151000
      4 C04         3.9350    3.0950    0.5180 ca        1 KEK     -0.141000
      5 C05         2.5800    3.2650    0.2370 ca        1 KEK     -0.130000
      6 C06         1.7820    2.1670   -0.0750 ca        1 KEK     -0.093000
      7 C07         2.3290    0.8740   -0.1040 ca        1 KEK     -0.068300
      8 C08         1.4440   -0.2730   -0.4510 c3        1 KEK     -0.044100
      9 C09         0.9960   -1.0230    0.7940 c3        1 KEK     -0.172400
     10 C10         0.2310   -2.2670    0.4320 c         1 KEK      0.580100
     11 C11        -1.2770   -2.2030    0.5920 c3        1 KEK     -0.131500
     12 C12        -1.7980   -0.9170    0.0520 c2        1 KEK     -0.154200
     13 C13        -2.5760   -0.0740    0.7350 ce        1 KEK     -0.226200
     14 C14        -2.9740    1.2360    0.1590 c         1 KEK      0.464300
     15 C15        -1.7960    2.0500   -0.3940 c         1 KEK      0.850600
     16 O16        -1.2340    1.6140   -1.4390 o         1 KEK     -0.817800
     17 O17        -1.4120    3.0560    0.2570 o         1 KEK     -0.817800
     18 O18        -4.1530    1.6050    0.1550 o         1 KEK     -0.567100
     19 C19        -1.9540   -3.3780   -0.0850 c3        1 KEK     -0.079100
     20 O20         0.8010   -3.3030    0.0700 o         1 KEK     -0.558100
     21 H03         5.5660    1.6830    0.7050 ha        1 KEK      0.126000
     22 H04         4.5630    3.9630    0.7640 ha        1 KEK      0.118000
     23 H05         2.1280    4.2690    0.2600 ha        1 KEK      0.141000
     24 H06         0.7020    2.3140   -0.3050 ha        1 KEK      0.223000
     25 H081        0.5350    0.1200   -0.9960 hc        1 KEK      0.083200
     26 H082        1.9820   -0.9800   -1.1380 hc        1 KEK      0.083200
     27 H091        1.8950   -1.3190    1.3990 hc        1 KEK      0.067200
     28 H092        0.3540   -0.3500    1.4200 hc        1 KEK      0.067200
     29 H11        -1.4740   -2.2630    1.7020 hc        1 KEK      0.061700
     30 H12        -1.4780   -0.6630   -0.9780 ha        1 KEK      0.169000
     31 H191       -3.0500   -3.3640    0.1280 hc        1 KEK      0.038367
     32 H192       -1.8030   -3.3290   -1.1900 hc        1 KEK      0.038367
     33 H193       -1.5200   -4.3370    0.2870 hc        1 KEK      0.038367
     34 H13        -2.9300   -0.2770    1.7570 ha        1 KEK      0.117000
@<TRIPOS>BOND
     1    1    2 1   
     2    2    3 ar  
     3    2    7 ar  
     4    3    4 ar  
     5    3   21 1   
     6    4    5 ar  
     7    4   22 1   
     8    5    6 ar  
     9    5   23 1   
    10    6    7 ar  
    11    6   24 1   
    12    7    8 1   
    13    8    9 1   
    14    8   25 1   
    15    8   26 1   
    16    9   10 1   
    17    9   27 1   
    18    9   28 1   
    19   10   11 1   
    20   10   20 2   
    21   11   12 1   
    22   11   19 1   
    23   11   29 1   
    24   12   13 2   
    25   12   30 1   
    26   13   14 1   
    27   13   34 1   
    28   14   15 1   
    29   14   18 2   
    30   15   16 1   
    31   15   17 1   
    32   19   31 1   
    33   19   32 1   
    34   19   33 1   
@<TRIPOS>SUBSTRUCTURE
     1 KEK         1 TEMP              0 ****  ****    0 ROOT
