@<TRIPOS>MOLECULE
KEK
   34    34     1     0     0
SMALL
bcc


@<TRIPOS>ATOM
      1 CL          1.0270   -0.9840    0.4190 cl        1 KEK     -0.132400
      2 C02         2.1860    0.1590   -0.1080 ca        1 KEK      0.007400
      3 C03         3.2690    0.4230    0.7340 ca        1 KEK     -0.145000
      4 C04         4.2360    1.3440    0.3390 ca        1 KEK     -0.145000
      5 C05         4.1170    1.9890   -0.8900 ca        1 KEK     -0.125000
      6 C06         3.0350    1.7250   -1.7290 ca        1 KEK     -0.106000
      7 C07         2.0480    0.8040   -1.3490 ca        1 KEK     -0.061300
      8 C08         0.8780    0.4960   -2.2180 c3        1 KEK     -0.024100
      9 C09         0.8030    1.3410   -3.4660 c3        1 KEK     -0.211400
     10 C10        -0.3950    1.0520   -4.3140 c         1 KEK      0.591100
     11 C11        -0.4610    1.8810   -5.5860 c3        1 KEK     -0.158500
     12 C12         0.4660    1.3030   -6.6010 c2        1 KEK     -0.145200
     13 C13         1.5630    1.8900   -7.0810 ce        1 KEK     -0.213200
     14 C14         2.1130    3.2120   -6.6940 c         1 KEK      0.463300
     15 C15         2.4340    3.4040   -5.2070 c         1 KEK      0.851600
     16 O16         3.4670    2.8430   -4.7500 o         1 KEK     -0.816800
     17 O17         1.6160    4.0710   -4.5150 o         1 KEK     -0.816800
     18 O18         2.3290    4.0730   -7.5550 o         1 KEK     -0.565100
     19 C19        -1.8730    1.9380   -6.1300 c3        1 KEK     -0.074100
     20 O20        -1.2680    0.2270   -4.0160 o         1 KEK     -0.578100
     21 H03         3.3570   -0.0910    1.7010 ha        1 KEK      0.127000
     22 H04         5.0900    1.5560    0.9980 ha        1 KEK      0.118000
     23 H05         4.8790    2.7150   -1.2120 ha        1 KEK      0.140000
     24 H06         2.9790    2.2550   -2.7070 ha        1 KEK      0.218000
     25 H081        0.9170   -0.5910   -2.5070 hc        1 KEK      0.055700
     26 H082       -0.0680    0.6350   -1.6260 hc        1 KEK      0.055700
     27 H091        0.7910    2.4410   -3.2040 hc        1 KEK      0.116700
     28 H092        1.7230    1.1980   -4.1040 hc        1 KEK      0.116700
     29 H11        -0.1220    2.9310   -5.3180 hc        1 KEK      0.128700
     30 H12         0.1690    0.3040   -6.9650 ha        1 KEK      0.108000
     31 H191       -1.8990    2.5450   -7.0660 hc        1 KEK      0.032700
     32 H192       -2.2500    0.9100   -6.3510 hc        1 KEK      0.032700
     33 H193       -2.5510    2.4060   -5.3770 hc        1 KEK      0.032700
     34 H13         2.1760    1.3710   -7.8410 ha        1 KEK      0.124000
@<TRIPOS>BOND
     1    1    2 1   
     2    2    3 ar  
     3    2    7 ar  
     4    3    4 ar  
     5    3   21 1   
     6    4    5 ar  
     7    4   22 1   
     8    5    6 ar  
     9    5   23 1   
    10    6    7 ar  
    11    6   24 1   
    12    7    8 1   
    13    8    9 1   
    14    8   25 1   
    15    8   26 1   
    16    9   10 1   
    17    9   27 1   
    18    9   28 1   
    19   10   11 1   
    20   10   20 2   
    21   11   12 1   
    22   11   19 1   
    23   11   29 1   
    24   12   13 2   
    25   12   30 1   
    26   13   14 1   
    27   13   34 1   
    28   14   15 1   
    29   14   18 2   
    30   15   16 1   
    31   15   17 1   
    32   19   31 1   
    33   19   32 1   
    34   19   33 1   
@<TRIPOS>SUBSTRUCTURE
     1 KEK         1 TEMP              0 ****  ****    0 ROOT
