@<TRIPOS>MOLECULE
KEL
   38    38     1     0     0
SMALL
bcc


@<TRIPOS>ATOM
      1 O21         2.2320    2.9800   -0.4550 o         1 KEL     -0.615100
      2 C18         1.1020    2.4600   -0.3600 c         1 KEL      0.602100
      3 N19         0.0590    3.1580    0.3060 n         1 KEL     -0.362400
      4 O20         0.4720    4.1110    1.1470 oh        1 KEL     -0.435100
      5 C17         0.7570    1.1910   -1.1100 c3        1 KEL     -0.147400
      6 C8          0.4780   -0.0160   -0.2290 c3        1 KEL     -0.133700
      7 C9         -0.9340    0.0750    0.3730 c         1 KEL      0.633100
      8 O16        -1.1030    0.6680    1.4700 o         1 KEL     -0.678100
      9 N10        -1.9520   -0.4570   -0.3510 n         1 KEL     -0.503900
     10 C11        -3.3080   -0.6060    0.1410 c3        1 KEL     -0.052300
     11 C15        -4.1730    0.6250   -0.0960 c3        1 KEL     -0.083100
     12 C12        -4.0200   -1.8470   -0.5210 c         1 KEL      0.915600
     13 O14        -3.4500   -2.4220   -1.4900 o         1 KEL     -0.827800
     14 O13        -5.1240   -2.1800   -0.0180 o         1 KEL     -0.827800
     15 C16         1.4970   -0.1920    0.8910 c3        1 KEL     -0.033100
     16 C23         2.7740   -0.7820    0.4010 ca        1 KEL     -0.079300
     17 C24         3.8040    0.0420   -0.0700 ca        1 KEL     -0.126000
     18 C19         5.0040   -0.5160   -0.5080 ca        1 KEL     -0.135500
     19 C20         5.1860   -1.8980   -0.4820 ca        1 KEL     -0.141000
     20 C21         4.1620   -2.7240   -0.0180 ca        1 KEL     -0.135500
     21 C22         2.9610   -2.1690    0.4230 ca        1 KEL     -0.126000
     22 HN19       -0.5930    2.5560    0.8100 hn        1 KEL      0.350500
     23 HO20        0.8850    4.7990    0.5890 ho        1 KEL      0.418000
     24 H171       -0.1280    1.3820   -1.7740 hc        1 KEL      0.080200
     25 H172        1.6410    0.9550   -1.7650 hc        1 KEL      0.080200
     26 H8          0.5370   -0.9270   -0.8930 hc        1 KEL      0.075700
     27 HN10       -1.7520   -1.0240   -1.1520 hn        1 KEL      0.335500
     28 H11        -3.2640   -0.7960    1.2530 h1        1 KEL      0.058700
     29 H151       -5.2050    0.3890    0.2630 hc        1 KEL      0.030367
     30 H152       -3.7800    1.5080    0.4630 hc        1 KEL      0.030367
     31 H153       -4.2230    0.8800   -1.1810 hc        1 KEL      0.030367
     32 H161        1.6910    0.8000    1.3810 hc        1 KEL      0.068200
     33 H162        1.0490   -0.8590    1.6770 hc        1 KEL      0.068200
     34 H24         3.6550    1.1360   -0.1000 ha        1 KEL      0.147500
     35 H19         5.8070    0.1390   -0.8760 ha        1 KEL      0.125000
     36 H20         6.1320   -2.3360   -0.8280 ha        1 KEL      0.120000
     37 H21         4.3000   -3.8140    0.0010 ha        1 KEL      0.125000
     38 H22         2.1540   -2.8230    0.7870 ha        1 KEL      0.147500
@<TRIPOS>BOND
     1    1    2 2   
     2    2    3 1   
     3    2    5 1   
     4    3    4 1   
     5    3   22 1   
     6    4   23 1   
     7    5    6 1   
     8    5   24 1   
     9    5   25 1   
    10    6    7 1   
    11    6   15 1   
    12    6   26 1   
    13    7    8 2   
    14    7    9 1   
    15    9   10 1   
    16    9   27 1   
    17   10   11 1   
    18   10   12 1   
    19   10   28 1   
    20   11   29 1   
    21   11   30 1   
    22   11   31 1   
    23   12   13 1   
    24   12   14 1   
    25   15   16 1   
    26   15   32 1   
    27   15   33 1   
    28   16   17 ar  
    29   16   21 ar  
    30   17   18 ar  
    31   17   34 1   
    32   18   19 ar  
    33   18   35 1   
    34   19   20 ar  
    35   19   36 1   
    36   20   21 ar  
    37   20   37 1   
    38   21   38 1   
@<TRIPOS>SUBSTRUCTURE
     1 KEL         1 TEMP              0 ****  ****    0 ROOT
