@<TRIPOS>MOLECULE
KEL
   40    40     1     0     0
SMALL
bcc


@<TRIPOS>ATOM
      1 O21         0.7150   -0.0490    0.5810 o         1 KEL     -0.391100
      2 C18         1.6110    0.3930   -0.1170 c         1 KEL      0.536100
      3 N19         2.6110    1.3200    0.5650 n4        1 KEL     -0.452300
      4 O20         2.2460    1.6100    1.8300 oh        1 KEL     -0.372300
      5 C17         1.8830    0.1360   -1.5730 c3        1 KEL     -0.172400
      6 C8          0.6650   -0.2420   -2.4030 c3        1 KEL     -0.112700
      7 C9         -0.4900    0.7430   -2.3430 c         1 KEL      0.530100
      8 O16        -1.5960    0.5180   -1.8760 o         1 KEL     -0.385100
      9 N10        -0.2980    2.0820   -3.0120 n4        1 KEL     -0.668800
     10 C11        -0.4110    3.2680   -2.0720 c3        1 KEL      0.033500
     11 C15        -1.7640    3.4020   -1.4130 c3        1 KEL     -0.116100
     12 C12         0.7400    3.1440   -1.0490 c         1 KEL      0.894600
     13 O14         0.5060    3.0670    0.1810 o         1 KEL     -0.814800
     14 O13         1.9120    3.0060   -1.5300 o         1 KEL     -0.814800
     15 C16         0.1320   -1.6340   -2.0420 c3        1 KEL     -0.040100
     16 C23         1.1320   -2.6920   -2.3480 ca        1 KEL     -0.130300
     17 C24         1.4500   -3.0000   -3.6760 ca        1 KEL     -0.128000
     18 C19         2.6290   -4.4420   -1.6000 ca        1 KEL     -0.117000
     19 C20         2.9500   -4.7390   -2.9240 ca        1 KEL     -0.104000
     20 C21         2.3580   -4.0180   -3.9620 ca        1 KEL     -0.117000
     21 C22         1.7230   -3.4220   -1.3100 ca        1 KEL     -0.128000
     22 HN19        3.5310    0.8530    0.6380 hn        1 KEL      0.501800
     23 HO20        1.4150    2.1550    1.7960 ho        1 KEL      0.508000
     24 H171        2.3980    1.0220   -2.0470 hc        1 KEL      0.135200
     25 H172        2.5950   -0.7440   -1.6200 hc        1 KEL      0.135200
     26 H8          1.0190   -0.2850   -3.4800 hc        1 KEL      0.106700
     27 HN10       -1.0070    2.1870   -3.7450 hn        1 KEL      0.462300
     28 H11        -0.2060    4.1800   -2.7120 hx        1 KEL      0.116700
     29 H151       -1.7380    4.3320   -0.7870 hc        1 KEL      0.082033
     30 H152       -1.9780    2.5440   -0.7280 hc        1 KEL      0.082033
     31 H153       -2.5830    3.4910   -2.1660 hc        1 KEL      0.082033
     32 H161       -0.8070   -1.8280   -2.6300 hc        1 KEL      0.088200
     33 H162       -0.1520   -1.6510   -0.9540 hc        1 KEL      0.088200
     34 H24         0.9670   -2.4530   -4.5000 ha        1 KEL      0.131500
     35 H19         3.0810   -5.0220   -0.7800 ha        1 KEL      0.150500
     36 H20         3.6610   -5.5490   -3.1510 ha        1 KEL      0.154000
     37 H21         2.5990   -4.2610   -5.0090 ha        1 KEL      0.150500
     38 H22         1.4530   -3.2120   -0.2640 ha        1 KEL      0.131500
     39 H192        2.6990    2.2150   -0.0110 hn        1 KEL      0.501800
     40 H102        0.6450    2.1250   -3.4210 hn        1 KEL      0.462300
@<TRIPOS>BOND
     1    1    2 2   
     2    2    3 1   
     3    2    5 1   
     4    3    4 1   
     5    3   22 1   
     6    3   39 1   
     7    4   23 1   
     8    5    6 1   
     9    5   24 1   
    10    5   25 1   
    11    6    7 1   
    12    6   15 1   
    13    6   26 1   
    14    7    8 2   
    15    7    9 1   
    16    9   10 1   
    17    9   27 1   
    18    9   40 1   
    19   10   11 1   
    20   10   12 1   
    21   10   28 1   
    22   11   29 1   
    23   11   30 1   
    24   11   31 1   
    25   12   13 1   
    26   12   14 1   
    27   15   16 1   
    28   15   32 1   
    29   15   33 1   
    30   16   17 ar  
    31   16   21 ar  
    32   17   20 ar  
    33   17   34 1   
    34   18   19 ar  
    35   18   21 ar  
    36   18   35 1   
    37   19   20 ar  
    38   19   36 1   
    39   20   37 1   
    40   21   38 1   
@<TRIPOS>SUBSTRUCTURE
     1 KEL         1 TEMP              0 ****  ****    0 ROOT
