@<TRIPOS>MOLECULE
KEL
   40    40     1     0     0
SMALL
bcc


@<TRIPOS>ATOM
      1 O21         0.2500   -0.3230    0.4630 o         1 KEL     -0.391100
      2 C18         1.3080    0.0980    0.0260 c         1 KEL      0.535100
      3 N19         2.2250    0.8000    1.0220 ny        1 KEL     -0.452300
      4 O20         1.6340    0.9600    2.2230 oh        1 KEL     -0.372300
      5 C17         1.8500    0.0070   -1.3720 c3        1 KEL     -0.172400
      6 C8          0.8010   -0.1090   -2.4690 c3        1 KEL     -0.112700
      7 C9         -0.2480    0.9900   -2.4790 c         1 KEL      0.530100
      8 O16        -1.4420    0.8380   -2.2720 o         1 KEL     -0.385100
      9 N10         0.1970    2.3730   -2.8840 ny        1 KEL     -0.668800
     10 C11         0.0000    3.4280   -1.8110 c3        1 KEL      0.033500
     11 C15        -1.4420    3.6340   -1.4110 c3        1 KEL     -0.116100
     12 C12         0.8990    3.0330   -0.6180 c         1 KEL      0.894600
     13 O14         0.4100    2.8210    0.5170 o         1 KEL     -0.814800
     14 O13         2.1280    2.8220   -0.8820 o         1 KEL     -0.814800
     15 C16         0.0820   -1.4640   -2.4350 c3        1 KEL     -0.040100
     16 C23         1.0240   -2.5820   -2.7050 ca        1 KEL     -0.130300
     17 C24         1.3210   -3.5100   -1.7000 ca        1 KEL     -0.128000
     18 C19         2.4310   -3.8180   -4.2420 ca        1 KEL     -0.117000
     19 C20         2.7300   -4.7370   -3.2340 ca        1 KEL     -0.104000
     20 C21         2.1710   -4.5830   -1.9650 ca        1 KEL     -0.117000
     21 C22         1.5800   -2.7470   -3.9800 ca        1 KEL     -0.128000
     22 HN19        3.0640    0.2210    1.1960 hn        1 KEL      0.501800
     23 HO20        0.8800    1.6000    2.1160 ho        1 KEL      0.508000
     24 H171        2.4750   -0.9370   -1.4180 hc        1 KEL      0.135200
     25 H172        2.5290    0.8800   -1.5960 hc        1 KEL      0.135200
     26 H8          1.3650   -0.0500   -3.4510 hc        1 KEL      0.106700
     27 HN10       -0.3330    2.6590   -3.7130 hn        1 KEL      0.462300
     28 H11         0.4140    4.3860   -2.2520 hx        1 KEL      0.116700
     29 H151       -2.0770    3.9200   -2.2830 hc        1 KEL      0.082033
     30 H152       -1.4620    4.4620   -0.6550 hc        1 KEL      0.082033
     31 H153       -1.8690    2.7240   -0.9200 hc        1 KEL      0.082033
     32 H161       -0.7300   -1.4640   -3.2150 hc        1 KEL      0.088200
     33 H162       -0.4200   -1.5910   -1.4380 hc        1 KEL      0.088200
     34 H24         0.8620   -3.4100   -0.7040 ha        1 KEL      0.131500
     35 H19         2.8600   -3.9460   -5.2480 ha        1 KEL      0.150500
     36 H20         3.3970   -5.5880   -3.4440 ha        1 KEL      0.154000
     37 H21         2.3910   -5.3160   -1.1740 ha        1 KEL      0.150500
     38 H22         1.3280   -2.0410   -4.7860 ha        1 KEL      0.131500
     39 H192        2.5100    1.7470    0.6180 hn        1 KEL      0.501800
     40 H102        1.2040    2.3570   -3.0940 hn        1 KEL      0.462300
@<TRIPOS>BOND
     1    1    2 2   
     2    2    3 1   
     3    2    5 1   
     4    3    4 1   
     5    3   22 1   
     6    3   39 1   
     7    4   23 1   
     8    5    6 1   
     9    5   24 1   
    10    5   25 1   
    11    6    7 1   
    12    6   15 1   
    13    6   26 1   
    14    7    8 2   
    15    7    9 1   
    16    9   10 1   
    17    9   27 1   
    18    9   40 1   
    19   10   11 1   
    20   10   12 1   
    21   10   28 1   
    22   11   29 1   
    23   11   30 1   
    24   11   31 1   
    25   12   13 1   
    26   12   14 1   
    27   15   16 1   
    28   15   32 1   
    29   15   33 1   
    30   16   17 ar  
    31   16   21 ar  
    32   17   20 ar  
    33   17   34 1   
    34   18   19 ar  
    35   18   21 ar  
    36   18   35 1   
    37   19   20 ar  
    38   19   36 1   
    39   20   37 1   
    40   21   38 1   
@<TRIPOS>SUBSTRUCTURE
     1 KEL         1 TEMP              0 ****  ****    0 ROOT
