@<TRIPOS>MOLECULE
KEM
   50    51     1     0     0
SMALL
bcc


@<TRIPOS>ATOM
      1 C01         3.4410    1.9890   -2.2330 c3        1 KEM     -0.079100
      2 C02         2.5220    1.7650   -1.0480 c3        1 KEM     -0.133500
      3 C03         2.2010    0.3160   -0.9100 c2        1 KEM     -0.147200
      4 C04         2.5880   -0.4390    0.1220 ce        1 KEM     -0.229200
      5 C05         2.2250   -1.8750    0.2180 c         1 KEM      0.467300
      6 O06         3.0540   -2.7110    0.5940 o         1 KEM     -0.561100
      7 C07         0.7800   -2.2070   -0.1690 c         1 KEM      0.851600
      8 O08         0.4520   -2.0550   -1.3790 o         1 KEM     -0.820300
      9 O09        -0.0170   -2.5620    0.7430 o         1 KEM     -0.820300
     10 C10         1.2460    2.5740   -1.1790 c         1 KEM      0.580100
     11 O11         1.0560    3.3550   -2.1180 o         1 KEM     -0.550100
     12 C12         0.2430    2.4070   -0.0700 c3        1 KEM     -0.179400
     13 C13        -0.8610    1.4470   -0.4700 c3        1 KEM     -0.071400
     14 C14        -1.8780    1.2820    0.6600 c3        1 KEM     -0.141700
     15 C15        -2.2030   -0.1810    0.9120 c3        1 KEM     -0.082700
     16 C16        -2.7260   -0.4260    2.3290 c3        1 KEM     -0.073400
     17 C17        -3.4980   -1.7360    2.2680 c3        1 KEM     -0.113400
     18 C18        -3.7030   -2.0800    0.7810 c3        1 KEM      0.164100
     19 O19        -3.0070   -3.2510    0.4260 oh        1 KEM     -0.622800
     20 C20        -3.2500   -0.8230   -0.0180 c3        1 KEM     -0.076000
     21 C21        -2.6630   -1.2120   -1.3570 c3        1 KEM     -0.104100
     22 C22        -4.4630    0.0860   -0.2030 c3        1 KEM     -0.059400
     23 C23        -4.0900    1.4950   -0.6060 c3        1 KEM     -0.176400
     24 C24        -3.1150    2.0960    0.3660 c         1 KEM      0.582100
     25 O25        -3.3130    3.2000    0.8890 o         1 KEM     -0.566100
     26 H011        4.3980    1.4330   -2.0870 hc        1 KEM      0.039367
     27 H012        2.9550    1.6290   -3.1720 hc        1 KEM      0.039367
     28 H013        3.6610    3.0770   -2.3470 hc        1 KEM      0.039367
     29 H02         3.0390    2.1360   -0.1160 hc        1 KEM      0.059700
     30 H03         1.6050   -0.1270   -1.7340 ha        1 KEM      0.177000
     31 H04         3.1880   -0.0430    0.9560 ha        1 KEM      0.117000
     32 H121        0.7620    2.0200    0.8470 hc        1 KEM      0.062700
     33 H122       -0.2000    3.4090    0.1770 hc        1 KEM      0.062700
     34 H131       -1.3630    1.8270   -1.3980 hc        1 KEM      0.073700
     35 H132       -0.4130    0.4440   -0.7270 hc        1 KEM      0.073700
     36 H14        -1.4240    1.6860    1.6130 hc        1 KEM      0.066700
     37 H15        -1.2480   -0.7840    0.7960 hc        1 KEM      0.126700
     38 H161       -1.8780   -0.4880    3.0540 hc        1 KEM      0.034700
     39 H162       -3.3940    0.4120    2.6520 hc        1 KEM      0.034700
     40 H171       -2.9250   -2.5590    2.7640 hc        1 KEM      0.044700
     41 H172       -4.4850   -1.6410    2.7830 hc        1 KEM      0.044700
     42 H18        -4.7790   -2.3210    0.5630 h1        1 KEM      0.046700
     43 H19        -2.0500   -3.0650    0.4760 ho        1 KEM      0.461000
     44 H211       -1.6950   -1.7680   -1.2220 hc        1 KEM      0.053700
     45 H212       -3.3770   -1.8710   -1.9070 hc        1 KEM      0.053700
     46 H213       -2.4570   -0.3040   -1.9730 hc        1 KEM      0.053700
     47 H221       -5.1350   -0.3530   -0.9860 hc        1 KEM      0.037200
     48 H222       -5.0410    0.1240    0.7590 hc        1 KEM      0.037200
     49 H231       -3.6110    1.4920   -1.6220 hc        1 KEM      0.061200
     50 H232       -5.0110    2.1310   -0.6650 hc        1 KEM      0.061200
@<TRIPOS>BOND
     1    1    2 1   
     2    1   26 1   
     3    1   27 1   
     4    1   28 1   
     5    2    3 1   
     6    2   10 1   
     7    2   29 1   
     8    3    4 2   
     9    3   30 1   
    10    4    5 1   
    11    4   31 1   
    12    5    6 2   
    13    5    7 1   
    14    7    8 1   
    15    7    9 1   
    16   10   11 2   
    17   10   12 1   
    18   12   13 1   
    19   12   32 1   
    20   12   33 1   
    21   13   14 1   
    22   13   34 1   
    23   13   35 1   
    24   14   15 1   
    25   14   24 1   
    26   14   36 1   
    27   15   16 1   
    28   15   20 1   
    29   15   37 1   
    30   16   17 1   
    31   16   38 1   
    32   16   39 1   
    33   17   18 1   
    34   17   40 1   
    35   17   41 1   
    36   18   19 1   
    37   18   20 1   
    38   18   42 1   
    39   19   43 1   
    40   20   21 1   
    41   20   22 1   
    42   21   44 1   
    43   21   45 1   
    44   21   46 1   
    45   22   23 1   
    46   22   47 1   
    47   22   48 1   
    48   23   24 1   
    49   23   49 1   
    50   23   50 1   
    51   24   25 2   
@<TRIPOS>SUBSTRUCTURE
     1 KEM         1 TEMP              0 ****  ****    0 ROOT
