@<TRIPOS>MOLECULE
KEM
   50    51     1     0     0
SMALL
bcc


@<TRIPOS>ATOM
      1 C01        -0.0400    0.1520    1.4560 c3        1 KEM     -0.079100
      2 C02         0.8150    0.1320    0.2040 c3        1 KEM     -0.133500
      3 C03         2.0120    1.0010    0.3810 c2        1 KEM     -0.147200
      4 C04         3.2670    0.5440    0.4170 ce        1 KEM     -0.229200
      5 C05         4.4260    1.4560    0.5790 c         1 KEM      0.467300
      6 O06         5.3640    1.1580    1.3270 o         1 KEM     -0.561100
      7 C07         4.3560    2.7480   -0.2420 c         1 KEM      0.851600
      8 O08         3.4660    3.5870    0.0680 o         1 KEM     -0.820300
      9 O09         5.1500    2.8820   -1.2140 o         1 KEM     -0.820300
     10 C10         0.0230    0.5740   -1.0120 c         1 KEM      0.580100
     11 O11        -1.1820    0.8410   -0.9500 o         1 KEM     -0.550100
     12 C12         0.7800    0.6210   -2.3110 c3        1 KEM     -0.179400
     13 C13         1.2120    2.0370   -2.6420 c3        1 KEM     -0.071400
     14 C14         1.9810    2.0790   -3.9630 c3        1 KEM     -0.141700
     15 C15         3.2600    2.8920   -3.8410 c3        1 KEM     -0.082700
     16 C16         4.3010    2.5010   -4.8950 c3        1 KEM     -0.073400
     17 C17         5.2380    3.6930   -5.0170 c3        1 KEM     -0.113400
     18 C18         4.5700    4.8790   -4.2960 c3        1 KEM      0.164100
     19 O19         5.3070    5.2700   -3.1620 oh        1 KEM     -0.622800
     20 C20         3.1190    4.4200   -3.9650 c3        1 KEM     -0.076000
     21 C21         2.6270    5.0540   -2.6820 c3        1 KEM     -0.104100
     22 C22         2.2200    4.8040   -5.1370 c3        1 KEM     -0.059400
     23 C23         0.8910    4.0800   -5.1250 c3        1 KEM     -0.176400
     24 C24         1.0860    2.5920   -5.0660 c         1 KEM      0.582100
     25 O25         0.5370    1.8300   -5.8710 o         1 KEM     -0.566100
     26 H011        0.5440   -0.2340    2.3250 hc        1 KEM      0.039367
     27 H012       -0.3720    1.1950    1.6800 hc        1 KEM      0.039367
     28 H013       -0.9470   -0.4810    1.3110 hc        1 KEM      0.039367
     29 H02         1.1360   -0.9320    0.0040 hc        1 KEM      0.059700
     30 H03         1.8100    2.0860    0.4890 ha        1 KEM      0.177000
     31 H04         3.5130   -0.5250    0.3250 ha        1 KEM      0.117000
     32 H121        0.1240    0.2260   -3.1320 hc        1 KEM      0.062700
     33 H122        1.6850   -0.0400   -2.2390 hc        1 KEM      0.062700
     34 H131        1.8640    2.4350   -1.8110 hc        1 KEM      0.073700
     35 H132        0.3070    2.6980   -2.6920 hc        1 KEM      0.073700
     36 H14         2.2850    1.0250   -4.2350 hc        1 KEM      0.066700
     37 H15         3.7190    2.6860   -2.8230 hc        1 KEM      0.126700
     38 H161        3.8050    2.2850   -5.8750 hc        1 KEM      0.034700
     39 H162        4.8510    1.5820   -4.5790 hc        1 KEM      0.034700
     40 H171        6.2240    3.4750   -4.5350 hc        1 KEM      0.044700
     41 H172        5.4230    3.9460   -6.0890 hc        1 KEM      0.044700
     42 H18         4.5560    5.7960   -4.9460 h1        1 KEM      0.046700
     43 H19         5.2520    4.5540   -2.5000 ho        1 KEM      0.461000
     44 H211        2.7570    6.1620   -2.7330 hc        1 KEM      0.053700
     45 H212        1.5480    4.8200   -2.5180 hc        1 KEM      0.053700
     46 H213        3.2060    4.6670   -1.7980 hc        1 KEM      0.053700
     47 H221        2.0340    5.9100   -5.1120 hc        1 KEM      0.037200
     48 H222        2.7520    4.5700   -6.0980 hc        1 KEM      0.037200
     49 H231        0.2920    4.3890   -4.2260 hc        1 KEM      0.061200
     50 H232        0.3010    4.3520   -6.0390 hc        1 KEM      0.061200
@<TRIPOS>BOND
     1    1    2 1   
     2    1   26 1   
     3    1   27 1   
     4    1   28 1   
     5    2    3 1   
     6    2   10 1   
     7    2   29 1   
     8    3    4 2   
     9    3   30 1   
    10    4    5 1   
    11    4   31 1   
    12    5    6 2   
    13    5    7 1   
    14    7    8 1   
    15    7    9 1   
    16   10   11 2   
    17   10   12 1   
    18   12   13 1   
    19   12   32 1   
    20   12   33 1   
    21   13   14 1   
    22   13   34 1   
    23   13   35 1   
    24   14   15 1   
    25   14   24 1   
    26   14   36 1   
    27   15   16 1   
    28   15   20 1   
    29   15   37 1   
    30   16   17 1   
    31   16   38 1   
    32   16   39 1   
    33   17   18 1   
    34   17   40 1   
    35   17   41 1   
    36   18   19 1   
    37   18   20 1   
    38   18   42 1   
    39   19   43 1   
    40   20   21 1   
    41   20   22 1   
    42   21   44 1   
    43   21   45 1   
    44   21   46 1   
    45   22   23 1   
    46   22   47 1   
    47   22   48 1   
    48   23   24 1   
    49   23   49 1   
    50   23   50 1   
    51   24   25 2   
@<TRIPOS>SUBSTRUCTURE
     1 KEM         1 TEMP              0 ****  ****    0 ROOT
