@<TRIPOS>MOLECULE
KEM
   50    50     1     0     0
SMALL
bcc


@<TRIPOS>ATOM
      1 C01        -2.4210   -1.9000    3.8060 c3        1 KEM     -0.195000
      2 C02        -1.1500   -2.1190    3.0160 c3        1 KEM     -0.154000
      3 C03        -0.1280   -2.7570    3.8890 c2        1 KEM     -0.133000
      4 C04        -0.0670   -4.1210    3.9870 c1        1 KEM     -0.200000
      5 C05        -1.0430   -4.9840    3.2050 c1        1 KEM      0.194000
      6 O06        -1.3410   -4.6830    2.0590 o         1 KEM     -0.353000
      7 C07        -1.6030   -6.2790    3.8330 c2        1 KEM      0.331000
      8 O08        -1.3300   -7.4010    3.3170 o         1 KEM     -0.542500
      9 O09        -2.3790   -6.2130    4.8270 o         1 KEM     -0.542500
     10 C10        -0.6210   -0.7700    2.5120 c2        1 KEM      0.251000
     11 O11        -0.0430   -0.0060    3.2900 o         1 KEM     -0.332000
     12 C12        -0.6620   -0.4410    0.9860 c3        1 KEM     -0.226000
     13 C13         0.2900    0.6750    0.6870 c3        1 KEM     -0.144000
     14 C14        -0.0030    1.2370   -0.7120 c3        1 KEM     -0.153000
     15 C15         1.2540    1.9210   -1.3200 c3        1 KEM     -0.086000
     16 C16         2.1790    0.6750   -1.7210 c3        1 KEM     -0.155000
     17 C17         2.0630    0.5580   -3.3400 c3        1 KEM     -0.196000
     18 C18         1.0350    1.3920   -3.6700 c3        1 KEM      0.027000
     19 O19         1.2630    1.9750   -4.9310 oh        1 KEM     -0.337000
     20 C20         1.0190    2.5400   -2.5090 c3        1 KEM     -0.050000
     21 C21         2.2490    3.4520   -2.7790 c3        1 KEM     -0.194000
     22 C22        -0.2510    3.5070   -2.5060 c3        1 KEM     -0.137000
     23 C23        -1.4620    2.8970   -2.0290 c3        1 KEM     -0.216000
     24 C24        -1.1790    2.2260   -0.6800 c2        1 KEM      0.242000
     25 O25        -2.0800    2.0860    0.1380 o         1 KEM     -0.306000
     26 H011       -2.2980   -2.2320    4.7300 hc        1 KEM      0.072333
     27 H012       -3.1670   -2.3910    3.3740 hc        1 KEM      0.072333
     28 H013       -2.6300   -0.9420    3.8280 hc        1 KEM      0.072333
     29 H02        -1.3340   -2.6940    2.2610 hc        1 KEM      0.175000
     30 H03         0.4900   -2.2100    4.3830 ha        1 KEM      0.108000
     31 H04         0.6080   -4.5420    4.5640 ha        1 KEM      0.125000
     32 H121       -1.5670   -0.1720    0.7350 hc        1 KEM      0.138500
     33 H122       -0.4050   -1.2310    0.4760 hc        1 KEM      0.138500
     34 H131        1.1960    0.3410    0.7160 hc        1 KEM      0.096500
     35 H132        0.1810    1.3940    1.3630 hc        1 KEM      0.096500
     36 H14        -0.2370    0.4200   -1.2010 hc        1 KEM      0.136000
     37 H15         1.7030    2.5180   -0.6710 hc        1 KEM      0.093000
     38 H161        3.1060    0.8440   -1.4600 hc        1 KEM      0.099500
     39 H162        1.8520   -0.1380   -1.3000 hc        1 KEM      0.099500
     40 H171        2.9030    0.8570   -3.7700 hc        1 KEM      0.103000
     41 H172        1.8530   -0.3660   -3.6000 hc        1 KEM      0.103000
     42 H18         0.1810    0.8970   -3.6730 h1        1 KEM      0.081000
     43 H19         0.9280    1.4380   -5.5770 ho        1 KEM      0.199000
     44 H211        2.1500    3.8840   -3.6570 hc        1 KEM      0.074667
     45 H212        3.0570    2.9160   -2.7720 hc        1 KEM      0.074667
     46 H213        2.3070    4.1410   -2.0820 hc        1 KEM      0.074667
     47 H221       -0.4010    3.8200   -3.4170 hc        1 KEM      0.085500
     48 H222       -0.0500    4.2780   -1.9410 hc        1 KEM      0.085500
     49 H231       -2.2720    3.4490   -1.9570 hc        1 KEM      0.103500
     50 H232       -1.7420    2.2560   -2.7070 hc        1 KEM      0.103500
@<TRIPOS>BOND
     1    1    2 1   
     2    1   26 1   
     3    1   27 1   
     4    1   28 1   
     5    2    3 1   
     6    2   10 1   
     7    2   29 1   
     8    3    4 1   
     9    3   30 1   
    10    4   31 1   
    11    5    6 1   
    12    5    7 1   
    13    7    8 1   
    14    7    9 1   
    15   10   11 1   
    16   10   12 1   
    17   12   13 1   
    18   12   32 1   
    19   12   33 1   
    20   13   14 1   
    21   13   34 1   
    22   13   35 1   
    23   14   15 1   
    24   14   24 1   
    25   14   36 1   
    26   15   16 1   
    27   15   20 1   
    28   15   37 1   
    29   16   17 1   
    30   16   38 1   
    31   16   39 1   
    32   17   18 1   
    33   17   40 1   
    34   17   41 1   
    35   18   19 1   
    36   18   20 1   
    37   18   42 1   
    38   19   43 1   
    39   20   21 1   
    40   20   22 1   
    41   21   44 1   
    42   21   45 1   
    43   21   46 1   
    44   22   23 1   
    45   22   47 1   
    46   22   48 1   
    47   23   24 1   
    48   23   49 1   
    49   23   50 1   
    50   24   25 1   
@<TRIPOS>SUBSTRUCTURE
     1 KEM         1 TEMP              0 ****  ****    0 ROOT
