@<TRIPOS>MOLECULE
KEM
   50    51     1     0     0
SMALL
bcc


@<TRIPOS>ATOM
      1 C01        -0.3120   -0.6930    0.6950 c3        1 KEM     -0.081100
      2 C02         1.0020   -0.1230    0.1980 c3        1 KEM     -0.132500
      3 C03         1.8500    0.3190    1.3440 c2        1 KEM     -0.169200
      4 C04         3.1280   -0.0190    1.5260 ce        1 KEM     -0.203200
      5 C05         3.9380   -0.9230    0.6770 c         1 KEM      0.453300
      6 O06         3.9880   -0.7990   -0.5540 o         1 KEM     -0.592100
      7 C07         4.7370   -1.9740    1.4790 c         1 KEM      0.863600
      8 O08         5.7400   -1.5420    2.1060 o         1 KEM     -0.804300
      9 O09         4.3100   -3.1550    1.4680 o         1 KEM     -0.804300
     10 C10         0.7630    1.0600   -0.7200 c         1 KEM      0.589100
     11 O11        -0.1460    1.8780   -0.5300 o         1 KEM     -0.571100
     12 C12         1.7030    1.1550   -1.8890 c3        1 KEM     -0.208400
     13 C13         1.9520    2.5860   -2.3140 c3        1 KEM     -0.061400
     14 C14         2.5810    2.6440   -3.7040 c3        1 KEM     -0.156700
     15 C15         3.3800    3.9230   -3.9200 c3        1 KEM     -0.051700
     16 C16         4.5050    3.7170   -4.9380 c3        1 KEM     -0.080400
     17 C17         4.8610    5.0970   -5.4660 c3        1 KEM     -0.114400
     18 C18         3.7030    6.0370   -5.0990 c3        1 KEM      0.140100
     19 O19         4.1120    7.0550   -4.1960 oh        1 KEM     -0.595800
     20 C20         2.6100    5.1650   -4.4130 c3        1 KEM     -0.040000
     21 C21         1.9560    5.9060   -3.2640 c3        1 KEM     -0.077100
     22 C22         1.5760    4.8110   -5.4800 c3        1 KEM     -0.062400
     23 C23         0.6850    3.6580   -5.0800 c3        1 KEM     -0.181400
     24 C24         1.5100    2.4470   -4.7500 c         1 KEM      0.579100
     25 O25         1.3130    1.3560   -5.2930 o         1 KEM     -0.538100
     26 H011       -0.1170   -1.5250    1.4130 hc        1 KEM      0.037367
     27 H012       -0.9070   -1.0890   -0.1620 hc        1 KEM      0.037367
     28 H013       -0.9110    0.0970    1.2080 hc        1 KEM      0.037367
     29 H02         1.5500   -0.9200   -0.3860 hc        1 KEM      0.096700
     30 H03         1.3230    0.9520    2.0770 ha        1 KEM      0.112000
     31 H04         3.6840    0.3320    2.4150 ha        1 KEM      0.148000
     32 H121        1.2500    0.5730   -2.7380 hc        1 KEM      0.097700
     33 H122        2.6790    0.6560   -1.6250 hc        1 KEM      0.097700
     34 H131        0.9880    3.1610   -2.2970 hc        1 KEM      0.055200
     35 H132        2.6390    3.0730   -1.5730 hc        1 KEM      0.055200
     36 H14         3.3080    1.7800   -3.7830 hc        1 KEM      0.089700
     37 H15         3.8570    4.1990   -2.9360 hc        1 KEM      0.069700
     38 H161        5.3850    3.2220   -4.4580 hc        1 KEM      0.051700
     39 H162        4.1570    3.0570   -5.7720 hc        1 KEM      0.051700
     40 H171        5.0070    5.0740   -6.5730 hc        1 KEM      0.044200
     41 H172        5.8140    5.4600   -5.0020 hc        1 KEM      0.044200
     42 H18         3.2870    6.5340   -6.0190 h1        1 KEM      0.029700
     43 H19         4.8960    7.4650   -4.5810 ho        1 KEM      0.394000
     44 H211        1.4780    6.8440   -3.6370 hc        1 KEM      0.042700
     45 H212        2.7190    6.1860   -2.4980 hc        1 KEM      0.042700
     46 H213        1.1800    5.2660   -2.7800 hc        1 KEM      0.042700
     47 H221        0.9420    5.7120   -5.6910 hc        1 KEM      0.041700
     48 H222        2.1090    4.5410   -6.4310 hc        1 KEM      0.041700
     49 H231        0.0750    3.9280   -4.1770 hc        1 KEM      0.069200
     50 H232       -0.0260    3.4210   -5.9140 hc        1 KEM      0.069200
@<TRIPOS>BOND
     1    1    2 1   
     2    1   26 1   
     3    1   27 1   
     4    1   28 1   
     5    2    3 1   
     6    2   10 1   
     7    2   29 1   
     8    3    4 2   
     9    3   30 1   
    10    4    5 1   
    11    4   31 1   
    12    5    6 2   
    13    5    7 1   
    14    7    8 1   
    15    7    9 1   
    16   10   11 2   
    17   10   12 1   
    18   12   13 1   
    19   12   32 1   
    20   12   33 1   
    21   13   14 1   
    22   13   34 1   
    23   13   35 1   
    24   14   15 1   
    25   14   24 1   
    26   14   36 1   
    27   15   16 1   
    28   15   20 1   
    29   15   37 1   
    30   16   17 1   
    31   16   38 1   
    32   16   39 1   
    33   17   18 1   
    34   17   40 1   
    35   17   41 1   
    36   18   19 1   
    37   18   20 1   
    38   18   42 1   
    39   19   43 1   
    40   20   21 1   
    41   20   22 1   
    42   21   44 1   
    43   21   45 1   
    44   21   46 1   
    45   22   23 1   
    46   22   47 1   
    47   22   48 1   
    48   23   24 1   
    49   23   49 1   
    50   23   50 1   
    51   24   25 2   
@<TRIPOS>SUBSTRUCTURE
     1 KEM         1 TEMP              0 ****  ****    0 ROOT
