@<TRIPOS>MOLECULE
KEN
   14    13     1     0     0
SMALL
bcc


@<TRIPOS>ATOM
      1 CA1        -0.0160    0.0040   -0.0020 c3        1 KEN      0.080100
      2 CB1         2.0030    0.0040    1.3850 c3        1 KEN      0.080100
      3 CC1         2.0030   -1.1470   -0.7780 c3        1 KEN      0.080100
      4 NE1         1.4720    0.0080   -0.0040 n4        1 KEN     -0.676400
      5 HA1        -0.3880   -0.9310    0.4960 hx        1 KEN      0.109033
      6 HA1A       -0.3890    0.0390   -1.0610 hx        1 KEN      0.109033
      7 HA1B       -0.3890    0.9020    0.5600 hx        1 KEN      0.109033
      8 HB1         1.6120    0.9020    1.9350 hx        1 KEN      0.109033
      9 HB1A        3.1260    0.0400    1.3530 hx        1 KEN      0.109033
     10 HB1B        1.6730   -0.9310    1.9110 hx        1 KEN      0.109033
     11 HC1         1.6720   -2.1060   -0.2960 hx        1 KEN      0.109033
     12 HC1A        3.1260   -1.1010   -0.7900 hx        1 KEN      0.109033
     13 HC1B        1.6120   -1.1010   -1.8300 hx        1 KEN      0.109033
     14 HE11        1.7880    0.8730   -0.4650 hn        1 KEN      0.455800
@<TRIPOS>BOND
     1    1    4 1   
     2    1    5 1   
     3    1    6 1   
     4    1    7 1   
     5    2    4 1   
     6    2    8 1   
     7    2    9 1   
     8    2   10 1   
     9    3    4 1   
    10    3   11 1   
    11    3   12 1   
    12    3   13 1   
    13    4   14 1   
@<TRIPOS>SUBSTRUCTURE
     1 KEN         1 TEMP              0 ****  ****    0 ROOT
