@<TRIPOS>MOLECULE
KEN
   14    13     1     0     0
SMALL
bcc


@<TRIPOS>ATOM
      1 CA1        -0.0160    0.0040   -0.0020 c3        1 KEN      0.080100
      2 CB1         2.0040    0.0050    1.3850 c3        1 KEN      0.080100
      3 CC1         2.0030   -1.1480   -0.7770 c3        1 KEN      0.080100
      4 NE1         1.4720    0.0070   -0.0050 nx        1 KEN     -0.676400
      5 HA1        -0.3880   -0.9310    0.4970 hx        1 KEN      0.109033
      6 HA1A       -0.3900    0.0380   -1.0610 hx        1 KEN      0.109033
      7 HA1B       -0.3890    0.9020    0.5600 hx        1 KEN      0.109033
      8 HB1         1.6130    0.9030    1.9340 hx        1 KEN      0.109033
      9 HB1A        3.1260    0.0400    1.3530 hx        1 KEN      0.109033
     10 HB1B        1.6730   -0.9300    1.9120 hx        1 KEN      0.109033
     11 HC1         1.6720   -2.1060   -0.2940 hx        1 KEN      0.109033
     12 HC1A        3.1250   -1.1020   -0.7900 hx        1 KEN      0.109033
     13 HC1B        1.6110   -1.1030   -1.8290 hx        1 KEN      0.109033
     14 HE11        1.7880    0.8730   -0.4660 hn        1 KEN      0.455800
@<TRIPOS>BOND
     1    1    4 1   
     2    1    5 1   
     3    1    6 1   
     4    1    7 1   
     5    2    4 1   
     6    2    8 1   
     7    2    9 1   
     8    2   10 1   
     9    3    4 1   
    10    3   11 1   
    11    3   12 1   
    12    3   13 1   
    13    4   14 1   
@<TRIPOS>SUBSTRUCTURE
     1 KEN         1 TEMP              0 ****  ****    0 ROOT
