@<TRIPOS>MOLECULE
KEN
   13    12     1     0     0
SMALL
bcc


@<TRIPOS>ATOM
      1 CA1        -0.0020    1.3910   -0.0900 c3        1 KEN      0.157100
      2 CB1        -1.2040   -0.6980   -0.1010 c3        1 KEN      0.157100
      3 CC1         1.2060   -0.6940   -0.1120 c3        1 KEN      0.157100
      4 NE1         0.0020   -0.0030    0.2880 n3        1 KEN     -0.741600
      5 HA1        -0.0080    1.5490   -1.2040 h1        1 KEN      0.029700
      6 HA1A       -0.9130    1.8830    0.3420 h1        1 KEN      0.029700
      7 HA1B        0.9100    1.8860    0.3340 h1        1 KEN      0.029700
      8 HB1        -1.3380   -0.7640   -1.2160 h1        1 KEN      0.029700
      9 HB1A       -1.1740   -1.7390    0.3150 h1        1 KEN      0.029700
     10 HB1B       -2.0880   -0.1620    0.3320 h1        1 KEN      0.029700
     11 HC1         2.0930   -0.1540    0.3130 h1        1 KEN      0.029700
     12 HC1A        1.1850   -1.7350    0.3040 h1        1 KEN      0.029700
     13 HC1B        1.3310   -0.7590   -1.2280 h1        1 KEN      0.029700
@<TRIPOS>BOND
     1    1    4 1   
     2    1    5 1   
     3    1    6 1   
     4    1    7 1   
     5    2    4 1   
     6    2    8 1   
     7    2    9 1   
     8    2   10 1   
     9    3    4 1   
    10    3   11 1   
    11    3   12 1   
    12    3   13 1   
@<TRIPOS>SUBSTRUCTURE
     1 KEN         1 TEMP              0 ****  ****    0 ROOT
