@<TRIPOS>MOLECULE
KET
   36    36     1     0     0
SMALL
bcc


@<TRIPOS>ATOM
      1 N1         -0.0170    0.6470    0.4020 nh        1 KET     -0.378800
      2 C2          1.2760    0.1310    0.2590 c2        1 KET     -0.132200
      3 C2A         1.9130    0.0940   -1.0810 c3        1 KET     -0.021900
      4 C3          1.9210   -0.3390    1.4040 ce        1 KET      0.161100
      5 O3          3.1690   -0.8550    1.2130 oh        1 KET     -0.536100
      6 C4          1.2600   -0.2740    2.6910 ce        1 KET     -0.114600
      7 C4A         2.0140   -0.8890    3.8080 ce        1 KET      0.396500
      8 C5         -0.0030    0.2730    2.7610 cf        1 KET     -0.085900
      9 C6         -0.6610    0.7320    1.5620 ch        1 KET     -0.237300
     10 C5A        -0.7870    0.3940    4.0400 c3        1 KET      0.238600
     11 OP4        -1.3430    1.6610    4.2140 os        1 KET     -0.582200
     12 P          -2.9870    1.8340    4.1660 p5        1 KET      1.437800
     13 OP1        -3.1230    2.2040    2.5870 oh        1 KET     -0.812400
     14 OP2        -3.3490    3.0340    4.9540 o         1 KET     -0.856500
     15 OP3        -3.6130    0.5110    4.3930 o         1 KET     -0.856500
     16 N           2.9870   -0.2640    4.3640 n2        1 KET     -0.586900
     17 CA          3.9640   -0.8800    5.2180 c3        1 KET      0.025500
     18 CB          3.5810   -2.0170    6.1650 c3        1 KET     -0.179400
     19 CG          3.2580   -3.4410    5.6990 c         1 KET      0.919600
     20 OD1         2.4190   -3.6710    4.7770 o         1 KET     -0.873800
     21 OD2         3.7800   -4.3920    6.3640 o         1 KET     -0.873800
     22 C           5.2810   -1.1960    4.4180 c         1 KET      0.946600
     23 O           5.2380   -1.4620    3.1810 o         1 KET     -0.856300
     24 OXT         6.3640   -1.0930    5.0640 o         1 KET     -0.856300
     25 HN1        -0.4670    0.9720   -0.4220 hn        1 KET      0.420800
     26 H2A1        1.3770   -0.6190   -1.7560 hc        1 KET      0.027033
     27 H2A2        2.9760   -0.2420   -0.9830 hc        1 KET      0.027033
     28 H2A3        1.9010    1.1050   -1.5620 hc        1 KET      0.027033
     29 HO3         3.5980   -1.0930    2.0730 ho        1 KET      0.515000
     30 H4A         1.7240   -1.9500    4.0160 h4        1 KET      0.069800
     31 H6         -2.4630    1.7720    2.0410 ho        1 KET      0.461000
     32 H5A1       -0.0890    0.2040    4.9070 h1        1 KET      0.050200
     33 H5A2       -1.6040   -0.3860    4.0360 h1        1 KET      0.050200
     34 HA          4.2660   -0.0250    5.9080 h1        1 KET      0.027700
     35 HB1         2.6830   -1.6880    6.7560 hc        1 KET      0.021200
     36 HB2         4.4470   -2.1110    6.8760 hc        1 KET      0.021200
@<TRIPOS>BOND
     1    1    2 1   
     2    1    9 3   
     3    1   25 1   
     4    2    3 1   
     5    2    4 2   
     6    3   26 1   
     7    3   27 1   
     8    3   28 1   
     9    4    5 1   
    10    4    6 1   
    11    5   29 1   
    12    6    7 1   
    13    6    8 2   
    14    7   16 2   
    15    7   30 1   
    16    8    9 1   
    17    8   10 1   
    18   10   11 1   
    19   10   32 1   
    20   10   33 1   
    21   11   12 1   
    22   12   13 1   
    23   12   14 1   
    24   12   15 1   
    25   13   31 1   
    26   16   17 1   
    27   17   18 1   
    28   17   22 1   
    29   17   34 1   
    30   18   19 1   
    31   18   35 1   
    32   18   36 1   
    33   19   20 1   
    34   19   21 1   
    35   22   23 1   
    36   22   24 1   
@<TRIPOS>SUBSTRUCTURE
     1 KET         1 TEMP              0 ****  ****    0 ROOT
