@<TRIPOS>MOLECULE
KET
   36    36     1     0     0
SMALL
bcc


@<TRIPOS>ATOM
      1 N1         -0.1930    0.1700    0.3660 nh        1 KET     -0.377800
      2 C2          1.1590   -0.1760    0.2690 c2        1 KET     -0.126200
      3 C2A         1.7700   -0.4120   -1.0630 c3        1 KET     -0.022900
      4 C3          1.8860   -0.2950    1.4530 ce        1 KET      0.160100
      5 O3          3.2070   -0.6110    1.3190 oh        1 KET     -0.542100
      6 C4          1.2460   -0.0650    2.7320 ce        1 KET     -0.113600
      7 C4A         2.1150   -0.2310    3.9170 ce        1 KET      0.402500
      8 C5         -0.0680    0.3490    2.7460 cf        1 KET     -0.079900
      9 C6         -0.8100    0.4410    1.5120 ch        1 KET     -0.232300
     10 C5A        -0.8260    0.7070    3.9960 c3        1 KET      0.236600
     11 OP4        -1.3440    2.0010    3.9350 os        1 KET     -0.583200
     12 P          -2.9850    2.2110    3.8950 p5        1 KET      1.436800
     13 OP1        -3.2890    3.5670    4.4020 o         1 KET     -0.853000
     14 OP2        -3.6280    0.9850    4.4210 o         1 KET     -0.853000
     15 OP3        -3.1700    2.2200    2.2780 oh        1 KET     -0.808400
     16 N           2.5990   -1.3760    4.2560 n2        1 KET     -0.534900
     17 CA          3.6900   -1.4260    5.2110 c3        1 KET     -0.000500
     18 CB          4.2280   -2.8490    5.3990 c3        1 KET     -0.153400
     19 CG          3.5340   -3.6890    6.4730 c         1 KET      0.907600
     20 OD1         3.6830   -4.9540    6.4080 o         1 KET     -0.883300
     21 OD2         2.8900   -3.1440    7.4160 o         1 KET     -0.883300
     22 C           4.8830   -0.4960    4.7930 c         1 KET      0.903600
     23 O           4.9150    0.0140    3.6260 o         1 KET     -0.862300
     24 OXT         5.7890   -0.2670    5.6410 o         1 KET     -0.862300
     25 HN1        -0.7070    0.2260   -0.4830 hn        1 KET      0.422800
     26 H2A1        1.5770    0.4470   -1.7540 hc        1 KET      0.027700
     27 H2A2        2.8750   -0.5400   -0.9520 hc        1 KET      0.027700
     28 H2A3        1.3510   -1.3370   -1.5320 hc        1 KET      0.027700
     29 HO3         3.6780   -0.4950    2.1810 ho        1 KET      0.509000
     30 H4A         2.3840    0.7380    4.3910 h4        1 KET     -0.009200
     31 H6         -2.6080    1.5860    1.8310 ho        1 KET      0.457000
     32 H5A1       -1.6620   -0.0360    4.1460 h1        1 KET      0.052200
     33 H5A2       -0.1180    0.6610    4.8740 h1        1 KET      0.052200
     34 HA          3.3340   -1.0730    6.2260 h1        1 KET      0.088700
     35 HB1         5.3010   -2.7540    5.7180 hc        1 KET      0.034200
     36 HB2         4.2070   -3.4170    4.4360 hc        1 KET      0.034200
@<TRIPOS>BOND
     1    1    2 1   
     2    1    9 3   
     3    1   25 1   
     4    2    3 1   
     5    2    4 2   
     6    3   26 1   
     7    3   27 1   
     8    3   28 1   
     9    4    5 1   
    10    4    6 1   
    11    5   29 1   
    12    6    7 1   
    13    6    8 2   
    14    7   16 2   
    15    7   30 1   
    16    8    9 1   
    17    8   10 1   
    18   10   11 1   
    19   10   32 1   
    20   10   33 1   
    21   11   12 1   
    22   12   13 1   
    23   12   14 1   
    24   12   15 1   
    25   15   31 1   
    26   16   17 1   
    27   17   18 1   
    28   17   22 1   
    29   17   34 1   
    30   18   19 1   
    31   18   35 1   
    32   18   36 1   
    33   19   20 1   
    34   19   21 1   
    35   22   23 1   
    36   22   24 1   
@<TRIPOS>SUBSTRUCTURE
     1 KET         1 TEMP              0 ****  ****    0 ROOT
