@<TRIPOS>MOLECULE
KET
   36    36     1     0     0
SMALL
bcc


@<TRIPOS>ATOM
      1 N1         43.6750   15.2430   45.2160 nh        1 KET     -0.170600
      2 C2         45.0390   15.4020   45.4540 c2        1 KET     -0.157300
      3 C2A        45.5070   16.2770   46.5630 c3        1 KET     -0.032900
      4 C3         45.9310   14.7280   44.6340 ce        1 KET      0.049100
      5 O3         47.2730   14.9280   44.8890 oh        1 KET     -0.559100
      6 C4         45.4760   13.8710   43.5490 ce        1 KET      0.097000
      7 C4A        46.4030   13.1990   42.7350 c2        1 KET     -0.450100
      8 C5         44.0750   13.8120   43.3500 ce        1 KET     -0.325300
      9 C6         43.1890   14.5100   44.1960 c1        1 KET     -0.148900
     10 C5A        43.4570   12.9910   42.2560 c3        1 KET      0.264600
     11 OP4        42.3940   12.1920   42.6930 os        1 KET     -0.591200
     12 P          40.8720   12.5250   42.1580 p5        1 KET      1.440800
     13 OP1        40.4590   13.6340   43.2720 oh        1 KET     -0.823400
     14 OP2        40.0410   11.3150   42.3750 o         1 KET     -0.866000
     15 OP3        40.9500   13.1800   40.8300 o         1 KET     -0.866000
     16 N          47.6460   12.7500   43.1550 nh        1 KET     -0.036300
     17 CA         48.7570   12.6380   42.4520 ce        1 KET      0.165300
     18 CB         48.9800   13.3140   41.1510 c3        1 KET     -0.257700
     19 CG         49.2760   14.8260   41.2960 c         1 KET      0.933600
     20 OD1        48.9900   15.4380   42.3660 o         1 KET     -0.859300
     21 OD2        49.7970   15.3970   40.2920 o         1 KET     -0.859300
     22 C          49.8870   11.7370   43.0090 c         1 KET      0.817300
     23 O          49.8590   11.4430   44.2390 o         1 KET     -0.828300
     24 OXT        50.7440   11.2990   42.1970 o         1 KET     -0.828300
     25 HN1        43.0430   15.7010   45.8240 hn        1 KET      0.254700
     26 H2A1       46.5920   16.5110   46.4220 hc        1 KET      0.025033
     27 H2A2       44.9330   17.2360   46.5980 hc        1 KET      0.025033
     28 H2A3       45.3820   15.7590   47.5470 hc        1 KET      0.025033
     29 HO3        47.7160   15.0960   44.0290 ho        1 KET      0.479000
     30 H4A        46.1730   13.0150   41.6770 h4        1 KET      0.151000
     31 H6         41.2180   14.0550   43.6910 ho        1 KET      0.472000
     32 H5A1       43.0950   13.6760   41.4340 h1        1 KET      0.023700
     33 H5A2       44.2340   12.2900   41.8330 h1        1 KET      0.023700
     34 HA         47.6970   12.4340   44.1130 hn        1 KET      0.291700
     35 HB1        49.8610   12.8360   40.6470 hc        1 KET      0.061200
     36 HB2        48.0890   13.2210   40.4770 hc        1 KET      0.061200
@<TRIPOS>BOND
     1    1    2 1   
     2    1    9 2   
     3    1   25 1   
     4    2    3 1   
     5    2    4 2   
     6    3   26 1   
     7    3   27 1   
     8    3   28 1   
     9    4    5 1   
    10    4    6 1   
    11    5   29 1   
    12    6    7 2   
    13    6    8 1   
    14    7   16 1   
    15    7   30 1   
    16    8    9 2   
    17    8   10 1   
    18   10   11 1   
    19   10   32 1   
    20   10   33 1   
    21   11   12 1   
    22   12   13 1   
    23   12   14 1   
    24   12   15 1   
    25   13   31 1   
    26   16   17 2   
    27   16   34 1   
    28   17   18 1   
    29   17   22 1   
    30   18   19 1   
    31   18   35 1   
    32   18   36 1   
    33   19   20 1   
    34   19   21 1   
    35   22   23 1   
    36   22   24 1   
@<TRIPOS>SUBSTRUCTURE
     1 KET         1 TEMP              0 ****  ****    0 ROOT
