@<TRIPOS>MOLECULE
KEU
   66    67     1     0     0
SMALL
bcc


@<TRIPOS>ATOM
      1 O4         -0.8150    3.5290    5.8150 o         1 KEU     -0.873800
      2 C21        -0.7460    2.4460    5.1650 c         1 KEU      0.909600
      3 O5         -0.6230    2.4300    3.8970 o         1 KEU     -0.873800
      4 C20        -0.7650    1.1170    5.9270 c3        1 KEU     -0.191400
      5 C19        -2.0830    0.3840    5.7980 c3        1 KEU     -0.074400
      6 C17        -1.9360   -1.1310    5.5610 c3        1 KEU     -0.038300
      7 N          -1.3510   -1.4280    4.2650 n         1 KEU     -0.484900
      8 C          -0.0080   -1.5830    4.0600 c         1 KEU      0.657700
      9 O           0.8010   -2.0040    4.9200 o         1 KEU     -0.648100
     10 C14         0.4790   -1.2910    2.6660 ca        1 KEU     -0.114600
     11 C13         1.0210   -2.2980    1.8670 ca        1 KEU     -0.096500
     12 C12         1.4710   -2.0010    0.5820 ca        1 KEU     -0.146500
     13 C11         1.3900   -0.6920    0.0910 ca        1 KEU     -0.149300
     14 C16         0.8640    0.3170    0.9100 ca        1 KEU     -0.146500
     15 C15         0.4050    0.0250    2.1930 ca        1 KEU     -0.096500
     16 C10         1.8110   -0.4050   -1.3150 c3        1 KEU     -0.016400
     17 C1          0.8230    0.5350   -2.0040 c3        1 KEU     -0.069400
     18 C2          0.6230    0.1680   -3.4600 c3        1 KEU     -0.082400
     19 C3         -0.3280    1.1340   -4.1340 c3        1 KEU     -0.081400
     20 C4         -0.6320    0.7280   -5.5640 c3        1 KEU     -0.149700
     21 C9         -1.3680    1.8420   -6.2880 c         1 KEU      0.703500
     22 O1         -1.1050    3.0470   -6.0990 o         1 KEU     -0.650500
     23 N3         -2.3410    1.5200   -7.2130 n         1 KEU     -0.619900
     24 C8         -2.6610    0.1500   -7.6560 c3        1 KEU      0.564100
     25 N2         -4.0910   -0.1930   -7.5380 n3        1 KEU     -0.955800
     26 N1         -1.7420   -0.8610   -7.0820 n3        1 KEU     -0.802200
     27 C7         -1.4000   -0.6250   -5.6690 c3        1 KEU      0.388700
     28 N8         -2.5280   -0.7550   -4.7500 n3        1 KEU     -0.947800
     29 C5          3.2390    0.1780   -1.3760 c3        1 KEU      0.356600
     30 OA2         3.4850    0.7100   -2.6520 oh        1 KEU     -0.605800
     31 OA1         3.5180    1.2500   -0.5230 oh        1 KEU     -0.605800
     32 C6          4.3720   -0.9310   -1.1220 c3        1 KEU      0.564900
     33 F2          5.5290   -0.6400   -1.8050 f         1 KEU     -0.242633
     34 F1          4.7630   -1.0460    0.1820 f         1 KEU     -0.242633
     35 F           4.0570   -2.2020   -1.5240 f         1 KEU     -0.242633
     36 C18        -3.3570   -1.7800    5.6890 c         1 KEU      0.918600
     37 O3         -3.6510   -2.2800    6.8110 o         1 KEU     -0.849300
     38 O2         -4.1320   -1.7680    4.6910 o         1 KEU     -0.849300
     39 H201       -0.5530    1.3220    7.0070 hc        1 KEU      0.023700
     40 H202        0.0780    0.4890    5.5370 hc        1 KEU      0.023700
     41 H191       -2.6860    0.8280    4.9630 hc        1 KEU      0.046700
     42 H192       -2.6810    0.5060    6.7390 hc        1 KEU      0.046700
     43 H17        -1.2710   -1.5720    6.3550 h1        1 KEU      0.066700
     44 HN         -1.9040   -1.1010    3.5020 hn        1 KEU      0.311500
     45 H13         1.0920   -3.3240    2.2580 ha        1 KEU      0.194500
     46 H12         1.8990   -2.7950   -0.0480 ha        1 KEU      0.126500
     47 H16         0.7900    1.3510    0.5390 ha        1 KEU      0.126500
     48 H15        -0.0140    0.8360    2.8450 ha        1 KEU      0.194500
     49 H10         1.8450   -1.3760   -1.8890 hc        1 KEU      0.073700
     50 H11         1.1960    1.5910   -1.9260 hc        1 KEU      0.065200
     51 H12A       -0.1650    0.4860   -1.4720 hc        1 KEU      0.065200
     52 H21         0.2200   -0.8780   -3.5240 hc        1 KEU      0.043700
     53 H22         1.6140    0.1800   -3.9880 hc        1 KEU      0.043700
     54 H31         0.1360    2.1590   -4.1530 hc        1 KEU      0.064200
     55 H32        -1.2710    1.2280   -3.5340 hc        1 KEU      0.064200
     56 H4          0.3480    0.6020   -6.1110 hc        1 KEU      0.092700
     57 HN3        -2.7470    2.2580   -7.7380 hn        1 KEU      0.312500
     58 H8         -2.4530    0.1200   -8.7830 h3        1 KEU      0.063700
     59 HN21       -4.6670    0.5140   -7.9470 hn        1 KEU      0.363800
     60 HN22       -4.3830   -0.3570   -6.5960 hn        1 KEU      0.363800
     61 HN1        -2.1430   -1.7760   -7.1950 hn        1 KEU      0.390800
     62 H7         -0.6580   -1.4470   -5.4070 h2        1 KEU      0.078700
     63 HN61       -2.2100   -1.0400   -3.8450 hn        1 KEU      0.366800
     64 HN62       -3.0350    0.1040   -4.6660 hn        1 KEU      0.366800
     65 HA2         4.1970    1.3620   -2.5700 ho        1 KEU      0.452000
     66 HA1         3.0670    1.1110    0.3260 ho        1 KEU      0.452000
@<TRIPOS>BOND
     1    1    2 1   
     2    2    3 1   
     3    2    4 1   
     4    4    5 1   
     5    4   39 1   
     6    4   40 1   
     7    5    6 1   
     8    5   41 1   
     9    5   42 1   
    10    6    7 1   
    11    6   36 1   
    12    6   43 1   
    13    7    8 1   
    14    7   44 1   
    15    8    9 2   
    16    8   10 1   
    17   10   11 ar  
    18   10   15 ar  
    19   11   12 ar  
    20   11   45 1   
    21   12   13 ar  
    22   12   46 1   
    23   13   14 ar  
    24   13   16 1   
    25   14   15 ar  
    26   14   47 1   
    27   15   48 1   
    28   16   17 1   
    29   16   29 1   
    30   16   49 1   
    31   17   18 1   
    32   17   50 1   
    33   17   51 1   
    34   18   19 1   
    35   18   52 1   
    36   18   53 1   
    37   19   20 1   
    38   19   54 1   
    39   19   55 1   
    40   20   21 1   
    41   20   27 1   
    42   20   56 1   
    43   21   22 2   
    44   21   23 1   
    45   23   24 1   
    46   23   57 1   
    47   24   25 1   
    48   24   26 1   
    49   24   58 1   
    50   25   59 1   
    51   25   60 1   
    52   26   27 1   
    53   26   61 1   
    54   27   28 1   
    55   27   62 1   
    56   28   63 1   
    57   28   64 1   
    58   29   30 1   
    59   29   31 1   
    60   29   32 1   
    61   30   65 1   
    62   31   66 1   
    63   32   33 1   
    64   32   34 1   
    65   32   35 1   
    66   36   37 1   
    67   36   38 1   
@<TRIPOS>SUBSTRUCTURE
     1 KEU         1 TEMP              0 ****  ****    0 ROOT
