@<TRIPOS>MOLECULE
KEU
   69    70     1     0     0
SMALL
bcc


@<TRIPOS>ATOM
      1 O4          0.0000    0.0000    0.0000 o         1 KEU     -0.606800
      2 C21         1.3420    0.0000    0.0000 c         1 KEU      0.933600
      3 O5          1.9450    0.0000    1.0460 o         1 KEU     -0.606800
      4 C20         2.0950    0.0010   -1.3050 c3        1 KEU     -0.137400
      5 C19         3.5980    0.0010   -1.0270 c3        1 KEU     -0.014400
      6 C17         4.3630    0.0010   -2.3510 c3        1 KEU     -0.168500
      7 N           4.0090   -1.1950   -3.1200 ny        1 KEU      0.101200
      8 C           4.0290   -1.1610   -4.4670 c         1 KEU      0.405700
      9 O           4.3430   -0.1380   -5.0440 o         1 KEU     -0.445100
     10 C14         3.6720   -2.3680   -5.2430 ca        1 KEU     -0.184600
     11 C13         3.6950   -2.3360   -6.6370 ca        1 KEU     -0.031000
     12 C12         3.3610   -3.4660   -7.3560 ca        1 KEU     -0.085000
     13 C11         3.0050   -4.6280   -6.6950 ca        1 KEU     -0.089300
     14 C16         2.9770   -4.6640   -5.3130 ca        1 KEU     -0.085000
     15 C15         3.3130   -3.5440   -4.5840 ca        1 KEU     -0.031000
     16 C10         2.6400   -5.8580   -7.4860 c3        1 KEU      0.016600
     17 C1          3.4400   -7.0530   -6.9670 c3        1 KEU     -0.016400
     18 C2          3.1910   -8.2640   -7.8680 c3        1 KEU     -0.060400
     19 C3          4.0920   -9.4200   -7.4300 c3        1 KEU     -0.031400
     20 C4          3.9160  -10.5970   -8.3920 c3        1 KEU     -0.112700
     21 C9          4.7030  -11.7800   -7.8930 c         1 KEU      0.589500
     22 O1          4.6470  -12.0760   -6.7180 o         1 KEU     -0.545500
     23 N3          5.4640  -12.5100   -8.7170 ns        1 KEU     -0.206900
     24 C8          5.6040  -12.2150  -10.1380 c3        1 KEU      0.200100
     25 N2          6.8540  -11.4750  -10.3550 nz        1 KEU     -0.374600
     26 N1          4.4780  -11.4110  -10.6190 n7        1 KEU     -0.478200
     27 C7          4.4280  -10.2050   -9.7800 c3        1 KEU      0.125700
     28 N8          5.7740   -9.6270   -9.6670 nz        1 KEU     -0.304600
     29 C5          1.1440   -6.1390   -7.3320 c3        1 KEU      0.336600
     30 OA2         0.7880   -7.2710   -8.1270 oh        1 KEU     -0.587300
     31 OA1         0.8500   -6.4080   -5.9590 oh        1 KEU     -0.587300
     32 C6          0.3450   -4.9190   -7.7940 c3        1 KEU      0.523900
     33 F2         -1.0200   -5.2220   -7.7770 f         1 KEU     -0.193300
     34 F1          0.5950   -3.8460   -6.9330 f         1 KEU     -0.193300
     35 F           0.7310   -4.5750   -9.0930 f         1 KEU     -0.193300
     36 C18         5.8450    0.0010   -2.0760 c         1 KEU      0.955600
     37 O3          6.4390    1.0470   -1.9660 o         1 KEU     -0.805800
     38 O2          6.5040   -1.1610   -1.9550 o         1 KEU     -0.805800
     39 H201        1.8330   -0.8840   -1.8730 hc        1 KEU      0.016700
     40 H202        1.8330    0.8850   -1.8730 hc        1 KEU      0.016700
     41 H191        3.8600    0.8850   -0.4590 hc        1 KEU      0.066200
     42 H192        3.8600   -0.8840   -0.4590 hc        1 KEU      0.066200
     43 H17         4.1010    0.8860   -2.9190 hx        1 KEU      0.092700
     44 HN          4.6390   -1.9200   -2.8370 hn        1 KEU      0.273800
     45 H13         3.9000   -1.4060   -7.1550 ha        1 KEU      0.123500
     46 H12         3.4020   -3.4510   -8.4380 ha        1 KEU      0.125000
     47 H16         2.7090   -5.5810   -4.8020 ha        1 KEU      0.125000
     48 H15         3.3720   -3.5990   -3.5030 ha        1 KEU      0.123500
     49 H10         2.8710   -5.6960   -8.5320 hc        1 KEU      0.050700
     50 H11         4.4960   -6.8100   -6.9720 hc        1 KEU      0.036700
     51 H12A        3.1280   -7.2850   -5.9560 hc        1 KEU      0.036700
     52 H21         3.4140   -8.0020   -8.8950 hc        1 KEU      0.035200
     53 H22         2.1540   -8.5650   -7.7890 hc        1 KEU      0.035200
     54 H31         3.8210   -9.7290   -6.4280 hc        1 KEU      0.038200
     55 H32         5.1260   -9.0960   -7.4410 hc        1 KEU      0.038200
     56 H4          2.8680  -10.8630   -8.4570 hc        1 KEU      0.114700
     57 HN3         5.9680  -13.2880   -8.3390 hn        1 KEU      0.227500
     58 H8          5.6360  -13.1460  -10.6910 hx        1 KEU      0.109700
     59 HN21        7.5770  -12.1130  -10.6240 hn        1 KEU      0.254467
     60 HN22        7.1170  -11.0100   -9.5100 hn        1 KEU      0.254467
     61 HN1         4.7110  -11.1970  -11.5680 hn        1 KEU      0.287800
     62 H7          3.7530   -9.4830  -10.2240 hx        1 KEU      0.117700
     63 HN61        6.2420   -9.6980  -10.5480 hn        1 KEU      0.252800
     64 HN62        5.7020   -8.6640   -9.4040 hn        1 KEU      0.252800
     65 HA2        -0.1510   -7.3510   -8.1570 ho        1 KEU      0.418000
     66 HA1        -0.0000   -6.8100   -5.8920 ho        1 KEU      0.418000
     67 HN31        3.0800   -1.4510   -2.8490 hn        1 KEU      0.273800
     68 H23         6.7200  -10.7990  -11.0810 hn        1 KEU      0.254467
     69 H83         6.2920  -10.1230   -8.9700 hn        1 KEU      0.252800
@<TRIPOS>BOND
     1    1    2 1   
     2    2    3 1   
     3    2    4 1   
     4    4    5 1   
     5    4   39 1   
     6    4   40 1   
     7    5    6 1   
     8    5   41 1   
     9    5   42 1   
    10    6    7 1   
    11    6   36 1   
    12    6   43 1   
    13    7    8 1   
    14    7   44 1   
    15    7   67 1   
    16    8    9 2   
    17    8   10 1   
    18   10   11 ar  
    19   10   15 ar  
    20   11   12 ar  
    21   11   45 1   
    22   12   13 ar  
    23   12   46 1   
    24   13   14 ar  
    25   13   16 1   
    26   14   15 ar  
    27   14   47 1   
    28   15   48 1   
    29   16   17 1   
    30   16   29 1   
    31   16   49 1   
    32   17   18 1   
    33   17   50 1   
    34   17   51 1   
    35   18   19 1   
    36   18   52 1   
    37   18   53 1   
    38   19   20 1   
    39   19   54 1   
    40   19   55 1   
    41   20   21 1   
    42   20   27 1   
    43   20   56 1   
    44   21   22 2   
    45   21   23 1   
    46   23   24 1   
    47   23   57 1   
    48   24   25 1   
    49   24   26 1   
    50   24   58 1   
    51   25   59 1   
    52   25   60 1   
    53   25   68 1   
    54   26   27 1   
    55   26   61 1   
    56   27   28 1   
    57   27   62 1   
    58   28   63 1   
    59   28   64 1   
    60   28   69 1   
    61   29   30 1   
    62   29   31 1   
    63   29   32 1   
    64   30   65 1   
    65   31   66 1   
    66   32   33 1   
    67   32   34 1   
    68   32   35 1   
    69   36   37 1   
    70   36   38 1   
@<TRIPOS>SUBSTRUCTURE
     1 KEU         1 TEMP              0 ****  ****    0 ROOT
