@<TRIPOS>MOLECULE
KFN
   30    30     1     0     0
SMALL
bcc


@<TRIPOS>ATOM
      1 C10         1.5150   -2.1360    0.6720 c         1 KFN      0.929800
      2 C2          2.5190    0.1430    0.0200 c2        1 KFN     -0.346200
      3 C3          2.2900    1.4790   -0.5840 c3        1 KFN      0.161300
      4 C4          0.8130    1.8730   -0.3640 c3        1 KFN      0.087100
      5 C5         -0.1590    0.7550   -0.7540 c3        1 KFN      0.109100
      6 C6         -1.3550    0.7190    0.2210 c3        1 KFN      0.118100
      7 C7         -2.4510   -0.2060   -0.3410 c3        1 KFN      0.065100
      8 C9         -3.5110   -0.5240    0.7210 c3        1 KFN      0.096400
      9 O4          0.4730    3.0100   -1.1490 oh        1 KFN     -0.612800
     10 O9          0.5030   -2.3220    1.4060 o         1 KFN     -0.805800
     11 O8          2.4800   -2.9210    0.5230 o         1 KFN     -0.805800
     12 O3          3.1220    2.4990   -0.0460 oh        1 KFN     -0.621800
     13 O5          0.4010   -0.5610   -0.7920 os        1 KFN     -0.331900
     14 C20         1.5480   -0.7850   -0.0530 ce        1 KFN      0.054900
     15 O6         -0.9740    0.3160    1.5160 oh        1 KFN     -0.626800
     16 O7         -3.0690    0.3690   -1.4810 oh        1 KFN     -0.604800
     17 O10        -4.8160   -0.2760    0.2290 oh        1 KFN     -0.620800
     18 H2          3.4730   -0.0550    0.5190 ha        1 KFN      0.153000
     19 H3          2.5260    1.4870   -1.6860 h1        1 KFN      0.077700
     20 H4          0.6690    2.1340    0.7250 h1        1 KFN      0.055700
     21 HA          3.1750    2.3520    0.9060 ho        1 KFN      0.403000
     22 H5         -0.5470    0.9250   -1.8000 h1        1 KFN      0.089700
     23 HB          1.2230    3.6150   -1.0810 ho        1 KFN      0.408000
     24 H6         -1.7590    1.7640    0.3440 h1        1 KFN      0.059700
     25 H7         -1.9730   -1.1520   -0.7260 h1        1 KFN      0.112700
     26 HC         -0.5430   -0.5610    1.4460 ho        1 KFN      0.468000
     27 H91C       -3.4190   -1.5930    1.0470 h1        1 KFN      0.062200
     28 H92C       -3.4050    0.1450    1.6160 h1        1 KFN      0.062200
     29 HD         -3.4910    1.1880   -1.1910 ho        1 KFN      0.399000
     30 H10        -4.8850   -0.7160   -0.6280 ho        1 KFN      0.404000
@<TRIPOS>BOND
     1    1   10 1   
     2    1   11 1   
     3    1   14 1   
     4    2    3 1   
     5    2   14 2   
     6    2   18 1   
     7    3    4 1   
     8    3   12 1   
     9    3   19 1   
    10    4    5 1   
    11    4    9 1   
    12    4   20 1   
    13    5    6 1   
    14    5   13 1   
    15    5   22 1   
    16    6    7 1   
    17    6   15 1   
    18    6   24 1   
    19    7    8 1   
    20    7   16 1   
    21    7   25 1   
    22    8   17 1   
    23    8   27 1   
    24    8   28 1   
    25    9   23 1   
    26   12   21 1   
    27   13   14 1   
    28   15   26 1   
    29   16   29 1   
    30   17   30 1   
@<TRIPOS>SUBSTRUCTURE
     1 KFN         1 TEMP              0 ****  ****    0 ROOT
