@<TRIPOS>MOLECULE
KFN
   30    28     1     0     0
SMALL
bcc


@<TRIPOS>ATOM
      1 C10         2.0580    1.4410    3.0870 c1        1 KFN      0.384000
      2 C2          0.6180    2.8950    1.1830 c1        1 KFN     -0.318000
      3 C3         -0.0300    2.7830   -0.1220 c2        1 KFN      0.043000
      4 C4         -0.6950    1.3010   -0.3430 c3        1 KFN     -0.022000
      5 C5          0.0850    0.3100   -0.1000 c3        1 KFN      0.001000
      6 C6         -0.7370   -1.0320   -0.3120 c3        1 KFN      0.032000
      7 C7          0.1810   -2.1090   -0.7810 c3        1 KFN     -0.050000
      8 C9         -0.5780   -3.4230   -0.8590 c3        1 KFN     -0.039000
      9 O4         -1.1520    1.1990   -1.7790 oh        1 KFN     -0.338000
     10 O9          3.3170    1.4410    3.0870 os        1 KFN     -0.506000
     11 O8          1.4280    1.4410    4.1770 o         1 KFN     -0.598000
     12 O3         -0.9970    3.8420   -0.3340 oh        1 KFN     -0.348000
     13 O5          0.6930    0.2850    1.3310 os        1 KFN     -0.221000
     14 C20         1.3010    1.4410    1.7770 c2        1 KFN      0.017000
     15 O6         -1.3170   -1.4090    0.8790 oh        1 KFN     -0.358000
     16 O7          0.6820   -1.7770   -2.0620 oh        1 KFN     -0.340000
     17 O10         0.2860   -4.4380   -1.3210 oh        1 KFN     -0.365000
     18 H2          0.9670    3.7560    1.4820 ha        1 KFN      0.149000
     19 H3          0.6110    2.9740   -0.8340 h4        1 KFN      0.120000
     20 H4         -1.4770    1.2250    0.2360 h1        1 KFN      0.096000
     21 HA         -0.5730    4.5880   -0.5600 ho        1 KFN      0.201000
     22 H5          0.8180    0.3290   -0.7450 h1        1 KFN      0.136000
     23 HB         -1.9160    1.6390   -1.8790 ho        1 KFN      0.202000
     24 H6         -1.4330   -0.8840   -0.9800 h1        1 KFN      0.111000
     25 H7          0.9240   -2.1990   -0.1540 h1        1 KFN      0.140000
     26 HC         -2.1990   -1.3260    0.8180 ho        1 KFN      0.254000
     27 H91C       -1.3290   -3.3290   -1.4750 h1        1 KFN      0.083000
     28 H92C       -0.9110   -3.6590    0.0280 h1        1 KFN      0.083000
     29 HD          1.5090   -2.0880   -2.1470 ho        1 KFN      0.197000
     30 H10        -0.1370   -5.2180   -1.3000 ho        1 KFN      0.253000
@<TRIPOS>BOND
     1    1   11 1   
     2    1   14 1   
     3    2   14 1   
     4    2   18 1   
     5    3    4 1   
     6    3   12 1   
     7    3   19 1   
     8    4    5 1   
     9    4    9 1   
    10    4   20 1   
    11    5    6 1   
    12    5   13 1   
    13    5   22 1   
    14    6    7 1   
    15    6   15 1   
    16    6   24 1   
    17    7    8 1   
    18    7   16 1   
    19    7   25 1   
    20    8   17 1   
    21    8   27 1   
    22    8   28 1   
    23    9   23 1   
    24   12   21 1   
    25   13   14 1   
    26   15   26 1   
    27   16   29 1   
    28   17   30 1   
@<TRIPOS>SUBSTRUCTURE
     1 KFN         1 TEMP              0 ****  ****    0 ROOT
