@<TRIPOS>MOLECULE
KFP
   41    42     1     0     0
SMALL
bcc


@<TRIPOS>ATOM
      1 O           8.7420   -0.6780   -1.0130 o         1 KFP     -0.843800
      2 C           7.7840    0.1160   -0.7870 c         1 KFP      0.887600
      3 CA          6.6960   -0.3220    0.2510 c3        1 KFP      0.017500
      4 N           6.9150   -1.6420    0.8300 n3        1 KFP     -0.892800
      5 CB          5.3250   -0.1690   -0.4070 c3        1 KFP     -0.063400
      6 CAI         4.1900   -0.2760    0.5880 c3        1 KFP     -0.075400
      7 CAH         2.8520   -0.0570   -0.0880 c3        1 KFP     -0.087400
      8 CAJ         1.7170   -0.2530    0.9140 c3        1 KFP      0.157800
      9 NAL         0.3930   -0.0830    0.3380 n3        1 KFP     -0.822200
     10 CAF        -0.6380   -0.7670    1.0890 c3        1 KFP      0.118500
     11 C6         -2.0090   -0.5910    0.4720 ca        1 KFP      0.284300
     12 N5         -3.0010   -0.0340    1.1800 nb        1 KFP     -0.556000
     13 C4A        -4.2090    0.0730    0.5590 ca        1 KFP      0.181500
     14 C4         -5.3430    0.6710    1.3060 c         1 KFP      0.621000
     15 O4         -5.3300    1.0730    2.4780 o         1 KFP     -0.580500
     16 N3         -6.5510    0.7920    0.5920 n         1 KFP     -0.511400
     17 C2         -6.6770    0.3120   -0.7270 cc        1 KFP      0.670800
     18 N2         -7.9710    0.3580   -1.3080 nh        1 KFP     -0.884800
     19 N1         -5.6700   -0.2280   -1.4290 nd        1 KFP     -0.729700
     20 C8A        -4.4330   -0.3710   -0.7930 ca        1 KFP      0.550000
     21 N8         -3.3940   -0.9520   -1.5040 nb        1 KFP     -0.622000
     22 C7         -2.2290   -1.0500   -0.8740 ca        1 KFP      0.335900
     23 H2          6.7600    0.4140    1.1050 h1        1 KFP      0.040700
     24 H3          6.7290   -2.3320    0.1240 hn        1 KFP      0.330300
     25 H4          7.8990   -1.7140    1.0370 hn        1 KFP      0.330300
     26 H6          5.3090    0.8380   -0.9050 hc        1 KFP      0.046700
     27 H7          5.1970   -0.9420   -1.2090 hc        1 KFP      0.046700
     28 H8          4.2050   -1.2850    1.0760 hc        1 KFP      0.038700
     29 H9          4.3300    0.4860    1.3990 hc        1 KFP      0.038700
     30 H10         2.8110    0.9770   -0.5180 hc        1 KFP      0.041700
     31 H11         2.7420   -0.7790   -0.9390 hc        1 KFP      0.041700
     32 H12         1.8370   -1.2720    1.3900 h1        1 KFP      0.034200
     33 H13         1.8140    0.5120    1.7370 h1        1 KFP      0.034200
     34 H14         0.3850   -0.3700   -0.6230 hn        1 KFP      0.351800
     35 H16        -0.4640   -1.8850    1.1650 h1        1 KFP      0.052700
     36 H17        -0.6220   -0.3530    2.1390 h1        1 KFP      0.052700
     37 H18        -7.3440    1.1430    1.0830 hn        1 KFP      0.335500
     38 H19        -8.4700    1.2040   -1.1370 hn        1 KFP      0.414800
     39 H20        -7.9920    0.0730   -2.2660 hn        1 KFP      0.414800
     40 H21        -1.4080   -1.5180   -1.4470 h4        1 KFP      0.041100
     41 OXT         7.6520    1.2490   -1.3270 o         1 KFP     -0.843800
@<TRIPOS>BOND
     1    1    2 1   
     2    2    3 1   
     3    2   41 1   
     4    3    4 1   
     5    3    5 1   
     6    3   23 1   
     7    4   24 1   
     8    4   25 1   
     9    5    6 1   
    10    5   26 1   
    11    5   27 1   
    12    6    7 1   
    13    6   28 1   
    14    6   29 1   
    15    7    8 1   
    16    7   30 1   
    17    7   31 1   
    18    8    9 1   
    19    8   32 1   
    20    8   33 1   
    21    9   10 1   
    22    9   34 1   
    23   10   11 1   
    24   10   35 1   
    25   10   36 1   
    26   11   12 ar  
    27   11   22 ar  
    28   12   13 ar  
    29   13   14 1   
    30   13   20 ar  
    31   14   15 2   
    32   14   16 1   
    33   16   17 1   
    34   16   37 1   
    35   17   18 1   
    36   17   19 2   
    37   18   38 1   
    38   18   39 1   
    39   19   20 1   
    40   20   21 ar  
    41   21   22 ar  
    42   22   40 1   
@<TRIPOS>SUBSTRUCTURE
     1 KFP         1 TEMP              0 ****  ****    0 ROOT
