@<TRIPOS>MOLECULE
KFP
   41    36     1     0     0
SMALL
bcc


@<TRIPOS>ATOM
      1 O           2.5970    3.7100    0.5330 o         1 KFP     -0.580500
      2 C           2.3890    3.8810   -0.7450 c1        1 KFP      0.306000
      3 CA          3.2580    3.1790   -1.7370 c2        1 KFP     -0.128000
      4 N           4.0020    4.1580   -2.5060 n3        1 KFP     -0.321000
      5 CB          2.4080    2.3520   -2.6650 c3        1 KFP     -0.128000
      6 CAI         2.6860    0.8820   -2.4270 c3        1 KFP     -0.173000
      7 CAH         1.3740    0.0800   -2.5450 c3        1 KFP     -0.158000
      8 CAJ         1.5420   -1.2620   -1.8870 c3        1 KFP     -0.081000
      9 NAL         0.2650   -1.7180   -1.3980 n3        1 KFP     -0.306000
     10 CAF         0.4470   -2.4090   -0.1910 c3        1 KFP     -0.017000
     11 C6         -0.8460   -2.4370    0.5720 c1        1 KFP     -0.073000
     12 N5         -1.1320   -1.4030    1.4090 n1        1 KFP     -0.067500
     13 C4A        -2.2630   -1.4370    2.1790 c1        1 KFP     -0.051500
     14 C4         -2.5990   -0.2450    3.1130 c1        1 KFP      0.366000
     15 O4         -1.7880    0.6790    3.2510 o         1 KFP     -0.301000
     16 N3         -3.7550   -0.2810    3.9040 n2        1 KFP     -0.351000
     17 C2         -4.6250   -1.4230    3.8510 c2        1 KFP      0.223000
     18 N2         -5.8490   -1.4140    4.5680 n3        1 KFP     -0.324000
     19 N1         -4.2960   -2.5690    2.9590 n1        1 KFP     -0.226000
     20 C8A        -3.1120   -2.5200    2.1090 c1        1 KFP     -0.051500
     21 N8         -2.8190   -3.5760    1.2540 n1        1 KFP     -0.067500
     22 C7         -1.7070   -3.5390    0.4980 c1        1 KFP     -0.058000
     23 H2          3.8920    2.5870   -1.2560 h4        1 KFP      0.081000
     24 H3          4.9350    4.1150   -2.2680 hn        1 KFP      0.124500
     25 H4          3.6650    5.0310   -2.3220 hn        1 KFP      0.124500
     26 H6          2.6190    2.5700   -3.5600 hc        1 KFP      0.063500
     27 H7          1.4380    2.5430   -2.4960 hc        1 KFP      0.063500
     28 H8          3.0690    0.7600   -1.5120 hc        1 KFP      0.104000
     29 H9          3.3340    0.5580   -3.1030 hc        1 KFP      0.104000
     30 H10         0.7030    0.5370   -2.1340 hc        1 KFP      0.076000
     31 H11         1.1540   -0.0430   -3.4810 hc        1 KFP      0.076000
     32 H12         2.1890   -1.1820   -1.1190 h1        1 KFP      0.074500
     33 H13         1.8940   -1.9120   -2.5490 h1        1 KFP      0.074500
     34 H14        -0.3120   -0.9650   -1.2530 hn        1 KFP      0.166000
     35 H16         0.7310   -3.3200   -0.3800 h1        1 KFP      0.085000
     36 H17         1.1310   -1.9580    0.3440 h1        1 KFP      0.085000
     37 H18        -3.9150    0.4030    4.5310 hn        1 KFP      0.249000
     38 H19        -6.5510   -1.9990    4.3170 hn        1 KFP      0.209500
     39 H20        -5.9800   -0.8080    5.2380 hn        1 KFP      0.209500
     40 H21        -1.7270   -4.3680    0.0470 ha        1 KFP      0.179000
     41 OXT         1.5520    4.7670   -1.1430 o         1 KFP     -0.580500
@<TRIPOS>BOND
     1    1    2 1   
     2    2   41 1   
     3    3    4 1   
     4    3    5 1   
     5    3   23 1   
     6    4   24 1   
     7    4   25 1   
     8    5    6 1   
     9    5   26 1   
    10    5   27 1   
    11    6    7 1   
    12    6   28 1   
    13    6   29 1   
    14    7    8 1   
    15    7   30 1   
    16    7   31 1   
    17    8    9 1   
    18    8   32 1   
    19    8   33 1   
    20    9   10 1   
    21    9   34 1   
    22   10   11 1   
    23   10   35 1   
    24   10   36 1   
    25   11   22 1   
    26   12   13 1   
    27   13   20 1   
    28   14   15 1   
    29   16   17 1   
    30   16   37 1   
    31   17   18 1   
    32   17   19 1   
    33   18   38 1   
    34   18   39 1   
    35   20   21 1   
    36   22   40 1   
@<TRIPOS>SUBSTRUCTURE
     1 KFP         1 TEMP              0 ****  ****    0 ROOT
