@<TRIPOS>MOLECULE
KFQ
   21    23     1     0     0
SMALL
bcc


@<TRIPOS>ATOM
      1 OAA        -0.4290   -3.5520    0.0300 o         1 KFQ     -0.569500
      2 CAJ        -0.4730   -2.3160   -0.0010 c         1 KFQ      0.650000
      3 CAN         0.7090   -1.4400   -0.1040 cc        1 KFQ      0.290000
      4 NAG         2.0400   -1.7510   -0.1850 nd        1 KFQ     -0.246000
      5 NAH         2.7260   -0.6440   -0.2620 nd        1 KFQ     -0.365000
      6 CAK         1.8820    0.4560   -0.2360 cc        1 KFQ      0.463800
      7 SAB         2.3340    2.0760   -0.3110 sh        1 KFQ     -0.267100
      8 NAO         0.5740   -0.0240   -0.1340 na        1 KFQ     -0.196800
      9 CAM        -0.6870    0.5900   -0.0670 ca        1 KFQ     -0.049200
     10 CAF        -0.8560    1.9860   -0.0940 ca        1 KFQ     -0.096000
     11 CAD        -2.1280    2.5380   -0.0240 ca        1 KFQ     -0.142000
     12 CAC        -3.2500    1.7140    0.0750 ca        1 KFQ     -0.089000
     13 CAE        -3.1140    0.3340    0.1040 ca        1 KFQ     -0.166000
     14 CAL        -1.8360   -0.2650    0.0340 ca        1 KFQ      0.078600
     15 NAI        -1.7050   -1.6550    0.0640 n         1 KFQ     -0.466100
     16 H2          0.0210    2.6530   -0.1710 ha        1 KFQ      0.158000
     17 H3         -2.2480    3.6320   -0.0460 ha        1 KFQ      0.148000
     18 H4         -4.2550    2.1610    0.1300 ha        1 KFQ      0.145000
     19 H5         -4.0110   -0.3000    0.1810 ha        1 KFQ      0.147000
     20 H6         -2.5310   -2.2080    0.1350 hn        1 KFQ      0.343500
     21 H1          3.6540    1.9190   -0.3950 hs        1 KFQ      0.230800
@<TRIPOS>BOND
     1    1    2 2   
     2    2    3 1   
     3    2   15 1   
     4    3    4 2   
     5    3    8 1   
     6    4    5 1   
     7    5    6 2   
     8    6    7 1   
     9    6    8 1   
    10    7   21 1   
    11    8    9 1   
    12    9   10 ar  
    13    9   14 ar  
    14   10   11 ar  
    15   10   16 1   
    16   11   12 ar  
    17   11   17 1   
    18   12   13 ar  
    19   12   18 1   
    20   13   14 ar  
    21   13   19 1   
    22   14   15 1   
    23   15   20 1   
@<TRIPOS>SUBSTRUCTURE
     1 KFQ         1 TEMP              0 ****  ****    0 ROOT
