@<TRIPOS>MOLECULE
KFQ
   21    23     1     0     0
SMALL
bcc


@<TRIPOS>ATOM
      1 OAA        -0.0760   -0.0060    0.0110 o         1 KFQ     -0.569500
      2 CAJ         1.1610   -0.0040    0.0500 c         1 KFQ      0.650000
      3 CAN         1.9570   -0.0030    1.2920 cc        1 KFQ      0.290000
      4 NAG         1.5580   -0.0050    2.6020 nd        1 KFQ     -0.246000
      5 NAH         2.6180   -0.0030    3.3630 nd        1 KFQ     -0.365000
      6 CAK         3.7720   -0.0000    2.5930 cc        1 KFQ      0.463800
      7 SAB         5.3590    0.0020    3.1550 sh        1 KFQ     -0.267100
      8 NAO         3.3790   -0.0000    1.2530 na        1 KFQ     -0.196800
      9 CAM         4.0750    0.0020    0.0330 ca        1 KFQ     -0.049200
     10 CAF         5.4790    0.0050   -0.0420 ca        1 KFQ     -0.096000
     11 CAD         6.1140    0.0070   -1.2770 ca        1 KFQ     -0.142000
     12 CAC         5.3650    0.0060   -2.4540 ca        1 KFQ     -0.089000
     13 CAE         3.9790    0.0040   -2.4120 ca        1 KFQ     -0.166000
     14 CAL         3.2970    0.0020   -1.1740 ca        1 KFQ      0.078600
     15 NAI         1.9020   -0.0010   -1.1370 n         1 KFQ     -0.466100
     16 H2          6.0870    0.0050    0.8800 ha        1 KFQ      0.158000
     17 H3          7.2140    0.0090   -1.3220 ha        1 KFQ      0.148000
     18 H4          5.8780    0.0080   -3.4290 ha        1 KFQ      0.145000
     19 H5          3.4050    0.0030   -3.3520 ha        1 KFQ      0.147000
     20 H6          1.4040   -0.0020   -2.0010 hn        1 KFQ      0.343500
     21 H1          5.1150    0.0010    4.4640 hs        1 KFQ      0.230800
@<TRIPOS>BOND
     1    1    2 2   
     2    2    3 1   
     3    2   15 1   
     4    3    4 2   
     5    3    8 1   
     6    4    5 1   
     7    5    6 2   
     8    6    7 1   
     9    6    8 1   
    10    7   21 1   
    11    8    9 1   
    12    9   10 ar  
    13    9   14 ar  
    14   10   11 ar  
    15   10   16 1   
    16   11   12 ar  
    17   11   17 1   
    18   12   13 ar  
    19   12   18 1   
    20   13   14 ar  
    21   13   19 1   
    22   14   15 1   
    23   15   20 1   
@<TRIPOS>SUBSTRUCTURE
     1 KFQ         1 TEMP              0 ****  ****    0 ROOT
