@<TRIPOS>MOLECULE
KFZ
   34    36     1     0     0
SMALL
bcc


@<TRIPOS>ATOM
      1 Cl1         0.0250   -0.0980    0.1810 cl        1 KFZ     -0.073400
      2 CAQ         1.7150    0.0340    0.0650 ca        1 KFZ      0.032400
      3 CAF         2.4510    0.1550    1.2500 ca        1 KFZ     -0.120000
      4 CAE         3.8370    0.2630    1.2070 ca        1 KFZ     -0.108000
      5 CAO         4.4910    0.2470   -0.0300 ca        1 KFZ      0.013400
      6 Cl2         6.1830    0.3750   -0.0910 cl        1 KFZ     -0.081400
      7 CAG         3.7640    0.1260   -1.2150 ca        1 KFZ     -0.101000
      8 CAS         2.3650    0.0210   -1.1810 ca        1 KFZ     -0.070300
      9 CAJ         1.6300   -0.1240   -2.4570 c3        1 KFZ      0.007000
     10 SAN         1.3010    1.5300   -3.0240 ss        1 KFZ     -0.059300
     11 CAT         0.4700    1.2980   -4.4750 cc        1 KFZ      0.512200
     12 NAL         0.1880    0.0290   -5.0230 nc        1 KFZ     -0.387300
     13 NAM         0.0090    2.3550   -5.2310 nd        1 KFZ     -0.592100
     14 NAV        -0.5820    1.7680   -6.2880 na        1 KFZ     -0.040800
     15 CAU        -0.4860    0.3030   -6.1840 cd        1 KFZ      0.448500
     16 NAK        -1.0170   -0.5390   -7.1450 nd        1 KFZ     -0.654000
     17 CAR        -1.6270    0.0390   -8.1810 cc        1 KFZ      0.498600
     18 CAI        -2.2360   -0.7910   -9.2780 c3        1 KFZ     -0.134700
     19 CAA        -2.1090   -2.2810   -9.1070 c3        1 KFZ     -0.089100
     20 CAH        -1.7580    1.4600   -8.3470 cc        1 KFZ     -0.357300
     21 CAP        -1.2280    2.3170   -7.3870 cd        1 KFZ      0.261800
     22 OAB        -1.3680    3.6640   -7.5720 oh        1 KFZ     -0.477100
     23 HAF         1.9320    0.1650    2.2210 ha        1 KFZ      0.155000
     24 HAE         4.4120    0.3580    2.1410 ha        1 KFZ      0.154000
     25 HAG         4.2840    0.1140   -2.1870 ha        1 KFZ      0.159000
     26 HAJ1        0.6780   -0.6970   -2.3250 h1        1 KFZ      0.100200
     27 HAJ2        2.2460   -0.6780   -3.2110 h1        1 KFZ      0.100200
     28 HAB        -0.9660    4.1630   -6.8400 ho        1 KFZ      0.463000
     29 HAH        -2.2720    1.8780   -9.2210 ha        1 KFZ      0.177000
     30 HAI1       -3.3230   -0.5090   -9.3430 hc        1 KFZ      0.062700
     31 HAI2       -1.7470   -0.4770  -10.2410 hc        1 KFZ      0.062700
     32 HAA1       -2.6070   -2.6210   -8.1670 hc        1 KFZ      0.046367
     33 HAA2       -1.0360   -2.5900   -9.0650 hc        1 KFZ      0.046367
     34 HAA3       -2.5930   -2.7980   -9.9720 hc        1 KFZ      0.046367
@<TRIPOS>BOND
     1    1    2 1   
     2    2    3 ar  
     3    2    8 ar  
     4    3    4 ar  
     5    3   23 1   
     6    4    5 ar  
     7    4   24 1   
     8    5    6 1   
     9    5    7 ar  
    10    7    8 ar  
    11    7   25 1   
    12    8    9 1   
    13    9   10 1   
    14    9   26 1   
    15    9   27 1   
    16   10   11 1   
    17   11   12 1   
    18   11   13 2   
    19   12   15 2   
    20   13   14 1   
    21   14   15 1   
    22   14   21 1   
    23   15   16 1   
    24   16   17 2   
    25   17   18 1   
    26   17   20 1   
    27   18   19 1   
    28   18   30 1   
    29   18   31 1   
    30   19   32 1   
    31   19   33 1   
    32   19   34 1   
    33   20   21 2   
    34   20   29 1   
    35   21   22 1   
    36   22   28 1   
@<TRIPOS>SUBSTRUCTURE
     1 KFZ         1 TEMP              0 ****  ****    0 ROOT
