@<TRIPOS>MOLECULE
KFZ
   34    36     1     0     0
SMALL
bcc


@<TRIPOS>ATOM
      1 CL1         2.6990   -2.8520    0.7190 cl        1 KFZ     -0.074400
      2 CAQ         3.5190   -1.4250    0.2950 ca        1 KFZ      0.031400
      3 CAF         4.9020   -1.3710    0.5040 ca        1 KFZ     -0.120000
      4 CAE         5.6190   -0.2270    0.1710 ca        1 KFZ     -0.109000
      5 CAO         4.9460    0.8710   -0.3770 ca        1 KFZ      0.014400
      6 CL2         5.8140    2.2710   -0.7900 cl        1 KFZ     -0.082400
      7 CAG         3.5670    0.8240   -0.5880 ca        1 KFZ     -0.101000
      8 CAS         2.8370   -0.3250   -0.2520 ca        1 KFZ     -0.069300
      9 CAJ         1.3790   -0.3430   -0.5070 c3        1 KFZ      0.005000
     10 SAN         0.6170    0.3450    0.9450 ss        1 KFZ     -0.055300
     11 CAT        -1.0340    0.3000    0.5890 cc        1 KFZ      0.494200
     12 NAL        -1.5590   -0.1750   -0.6330 nc        1 KFZ     -0.382300
     13 NAM        -1.9870    0.7350    1.4840 nd        1 KFZ     -0.535100
     14 NAV        -3.1520    0.5420    0.8390 na        1 KFZ     -0.003800
     15 CAU        -2.9100   -0.0330   -0.5010 cd        1 KFZ      0.439500
     16 NAK        -3.9420   -0.3310   -1.3750 nd        1 KFZ     -0.652000
     17 CAR        -5.1800   -0.0760   -0.9560 cc        1 KFZ      0.502600
     18 CAI        -6.3680   -0.3650   -1.8330 c3        1 KFZ     -0.133700
     19 CAA        -6.0470   -0.9480   -3.1830 c3        1 KFZ     -0.089100
     20 CAH        -5.4890    0.4810    0.3320 cc        1 KFZ     -0.418300
     21 CAP        -4.4600    0.7840    1.2170 cd        1 KFZ      0.263800
     22 OAB        -4.6490    1.3180    2.4660 oh        1 KFZ     -0.458100
     23 HAF         5.4270   -2.2390    0.9350 ha        1 KFZ      0.154000
     24 HAE         6.7060   -0.1890    0.3380 ha        1 KFZ      0.154000
     25 HAG         3.0420    1.6920   -1.0200 ha        1 KFZ      0.159000
     26 HAJ1        1.1260    0.2720   -1.4090 h1        1 KFZ      0.099200
     27 HAJ2        1.0050   -1.3800   -0.7010 h1        1 KFZ      0.099200
     28 HAB        -5.6070    1.4280    2.5880 ho        1 KFZ      0.444000
     29 HAH        -6.5330    0.6650    0.6110 ha        1 KFZ      0.161000
     30 HAI1       -7.0350   -1.0710   -1.2660 hc        1 KFZ      0.060700
     31 HAI2       -6.9290    0.6010   -1.9620 hc        1 KFZ      0.060700
     32 HAA1       -5.4030   -0.2540   -3.7760 hc        1 KFZ      0.046700
     33 HAA2       -5.5090   -1.9210   -3.0820 hc        1 KFZ      0.046700
     34 HAA3       -6.9950   -1.1230   -3.7490 hc        1 KFZ      0.046700
@<TRIPOS>BOND
     1    1    2 1   
     2    2    3 ar  
     3    2    8 ar  
     4    3    4 ar  
     5    3   23 1   
     6    4    5 ar  
     7    4   24 1   
     8    5    6 1   
     9    5    7 ar  
    10    7    8 ar  
    11    7   25 1   
    12    8    9 1   
    13    9   10 1   
    14    9   26 1   
    15    9   27 1   
    16   10   11 1   
    17   11   12 1   
    18   11   13 2   
    19   12   15 2   
    20   13   14 1   
    21   14   15 1   
    22   14   21 1   
    23   15   16 1   
    24   16   17 2   
    25   17   18 1   
    26   17   20 1   
    27   18   19 1   
    28   18   30 1   
    29   18   31 1   
    30   19   32 1   
    31   19   33 1   
    32   19   34 1   
    33   20   21 2   
    34   20   29 1   
    35   21   22 1   
    36   22   28 1   
@<TRIPOS>SUBSTRUCTURE
     1 KFZ         1 TEMP              0 ****  ****    0 ROOT
