@<TRIPOS>MOLECULE
KFZ
   34    31     1     0     0
SMALL
bcc


@<TRIPOS>ATOM
      1 CL1         3.9230    1.6280    1.8850 cl        1 KFZ      0.004000
      2 CAQ         3.1260    1.8370    3.4210 c2        1 KFZ     -0.047000
      3 CAF         3.8740    2.0770    4.5630 c2        1 KFZ     -0.119000
      4 CAE         3.2460    2.1880    5.7930 c1        1 KFZ     -0.108000
      5 CAO         1.8700    2.0580    5.8820 c1        1 KFZ     -0.064000
      6 CL2         1.0750    2.2470    7.4220 cl        1 KFZ     -0.003000
      7 CAG         1.1210    1.8170    4.7410 c1        1 KFZ     -0.102000
      8 CAS         1.7490    1.7060    3.5100 c1        1 KFZ     -0.061000
      9 CAJ         0.9230    1.5410    2.2520 c3        1 KFZ     -0.274000
     10 SAN         1.3140   -0.0110    1.4870 ss        1 KFZ      0.372000
     11 CAT         0.4450   -0.1470   -0.0550 c2        1 KFZ     -0.236000
     12 NAL         0.2020   -1.4020   -0.4980 n2        1 KFZ     -0.122000
     13 NAM        -0.1130    0.7200   -0.9280 n2        1 KFZ     -0.111000
     14 NAV        -0.7070   -0.0040   -1.9190 n2        1 KFZ     -0.116000
     15 CAU        -0.5130   -1.3100   -1.6540 c1        1 KFZ      0.084000
     16 NAK        -1.0160   -2.2730   -2.5110 n1        1 KFZ     -0.126000
     17 CAR        -1.6980   -1.9070   -3.6080 c1        1 KFZ      0.080000
     18 CAI        -2.0770   -3.0290   -4.5460 c3        1 KFZ     -0.119000
     19 CAA        -3.4430   -3.5580   -4.1720 c3        1 KFZ     -0.211000
     20 CAH        -1.8950   -0.5810   -3.8790 c1        1 KFZ     -0.345000
     21 CAP        -1.3990    0.3700   -3.0320 c1        1 KFZ      0.240000
     22 OAB        -1.5040    1.7600   -3.2250 oh        1 KFZ     -0.216000
     23 HAF         4.8440    2.1690    4.5000 ha        1 KFZ      0.155000
     24 HAE         3.7730    2.3580    6.5960 ha        1 KFZ      0.154000
     25 HAG         0.1520    1.7260    4.8040 ha        1 KFZ      0.158000
     26 HAJ1        1.1240    2.2700    1.6310 h1        1 KFZ      0.135000
     27 HAJ2       -0.0290    1.5610    2.4810 h1        1 KFZ      0.135000
     28 HAB        -1.2490    1.9650   -4.0520 ho        1 KFZ      0.244000
     29 HAH        -2.3910   -0.3140   -4.6760 ha        1 KFZ      0.162000
     30 HAI1       -2.0980   -2.6940   -5.4650 hc        1 KFZ      0.101500
     31 HAI2       -1.4180   -3.7500   -4.4770 hc        1 KFZ      0.101500
     32 HAA1       -3.7050   -4.2610   -4.8020 hc        1 KFZ      0.085000
     33 HAA2       -3.4120   -3.9270   -3.2650 hc        1 KFZ      0.085000
     34 HAA3       -4.0960   -2.8290   -4.2060 hc        1 KFZ      0.085000
@<TRIPOS>BOND
     1    1    2 1   
     2    2    3 1   
     3    2    8 1   
     4    3    4 1   
     5    3   23 1   
     6    4   24 1   
     7    5    6 1   
     8    5    7 1   
     9    7   25 1   
    10    8    9 1   
    11    9   10 1   
    12    9   26 1   
    13    9   27 1   
    14   10   11 1   
    15   11   12 1   
    16   11   13 1   
    17   12   15 1   
    18   13   14 1   
    19   14   21 1   
    20   15   16 1   
    21   17   18 1   
    22   17   20 1   
    23   18   19 1   
    24   18   30 1   
    25   18   31 1   
    26   19   32 1   
    27   19   33 1   
    28   19   34 1   
    29   20   29 1   
    30   21   22 1   
    31   22   28 1   
@<TRIPOS>SUBSTRUCTURE
     1 KFZ         1 TEMP              0 ****  ****    0 ROOT
