@<TRIPOS>MOLECULE
KFZ
   34    36     1     0     0
SMALL
bcc


@<TRIPOS>ATOM
      1 CL1         0.0240   -0.1010    0.1810 cl        1 KFZ     -0.073400
      2 CAQ         1.7130    0.0340    0.0650 ca        1 KFZ      0.032400
      3 CAF         2.4490    0.1550    1.2510 ca        1 KFZ     -0.120000
      4 CAE         3.8350    0.2650    1.2080 ca        1 KFZ     -0.108000
      5 CAO         4.4890    0.2510   -0.0280 ca        1 KFZ      0.013400
      6 CL2         6.1810    0.3820   -0.0890 cl        1 KFZ     -0.081400
      7 CAG         3.7620    0.1300   -1.2130 ca        1 KFZ     -0.101000
      8 CAS         2.3640    0.0220   -1.1800 ca        1 KFZ     -0.070300
      9 CAJ         1.6300   -0.1230   -2.4570 c3        1 KFZ      0.007000
     10 SAN         1.2970    1.5310   -3.0220 ss        1 KFZ     -0.059300
     11 CAT         0.4670    1.2980   -4.4740 cc        1 KFZ      0.512200
     12 NAL         0.1880    0.0290   -5.0230 nc        1 KFZ     -0.387300
     13 NAM         0.0040    2.3540   -5.2290 nd        1 KFZ     -0.592100
     14 NAV        -0.5860    1.7670   -6.2860 na        1 KFZ     -0.040800
     15 CAU        -0.4860    0.3020   -6.1840 cd        1 KFZ      0.448500
     16 NAK        -1.0150   -0.5400   -7.1460 nd        1 KFZ     -0.654000
     17 CAR        -1.6260    0.0380   -8.1810 cc        1 KFZ      0.498600
     18 CAI        -2.2330   -0.7930   -9.2790 c3        1 KFZ     -0.134700
     19 CAA        -2.0950   -2.2830   -9.1140 c3        1 KFZ     -0.089100
     20 CAH        -1.7600    1.4580   -8.3460 cc        1 KFZ     -0.357300
     21 CAP        -1.2330    2.3150   -7.3850 cd        1 KFZ      0.261800
     22 OAB        -1.3760    3.6630   -7.5690 oh        1 KFZ     -0.477100
     23 HAF         1.9290    0.1640    2.2220 ha        1 KFZ      0.155000
     24 HAE         4.4090    0.3600    2.1430 ha        1 KFZ      0.154000
     25 HAG         4.2820    0.1190   -2.1850 ha        1 KFZ      0.159000
     26 HAJ1        0.6780   -0.6980   -2.3250 h1        1 KFZ      0.100200
     27 HAJ2        2.2470   -0.6760   -3.2100 h1        1 KFZ      0.100200
     28 HAB        -0.9740    4.1620   -6.8370 ho        1 KFZ      0.463000
     29 HAH        -2.2750    1.8760   -9.2200 ha        1 KFZ      0.177000
     30 HAI1       -3.3220   -0.5180   -9.3400 hc        1 KFZ      0.062700
     31 HAI2       -1.7500   -0.4730  -10.2430 hc        1 KFZ      0.062700
     32 HAA1       -2.5890   -2.6290   -8.1740 hc        1 KFZ      0.046367
     33 HAA2       -1.0210   -2.5840   -9.0750 hc        1 KFZ      0.046367
     34 HAA3       -2.5780   -2.8000   -9.9790 hc        1 KFZ      0.046367
@<TRIPOS>BOND
     1    1    2 1   
     2    2    3 ar  
     3    2    8 ar  
     4    3    4 ar  
     5    3   23 1   
     6    4    5 ar  
     7    4   24 1   
     8    5    6 1   
     9    5    7 ar  
    10    7    8 ar  
    11    7   25 1   
    12    8    9 1   
    13    9   10 1   
    14    9   26 1   
    15    9   27 1   
    16   10   11 1   
    17   11   12 1   
    18   11   13 2   
    19   12   15 2   
    20   13   14 1   
    21   14   15 1   
    22   14   21 1   
    23   15   16 1   
    24   16   17 2   
    25   17   18 1   
    26   17   20 1   
    27   18   19 1   
    28   18   30 1   
    29   18   31 1   
    30   19   32 1   
    31   19   33 1   
    32   19   34 1   
    33   20   21 2   
    34   20   29 1   
    35   21   22 1   
    36   22   28 1   
@<TRIPOS>SUBSTRUCTURE
     1 KFZ         1 TEMP              0 ****  ****    0 ROOT
