@<TRIPOS>MOLECULE
KGC
   35    35     1     0     0
SMALL
bcc


@<TRIPOS>ATOM
      1 N           4.7710    1.5760    0.4610 n3        1 KGC     -0.893800
      2 CA          4.5310    0.1390    0.4310 c3        1 KGC      0.026500
      3 CB          3.2990   -0.2660   -0.3820 c3        1 KGC     -0.066400
      4 CG          2.0100    0.2920    0.1830 c3        1 KGC     -0.075400
      5 CD          0.8030   -0.2360   -0.5660 c3        1 KGC     -0.080400
      6 CE         -0.4910    0.3100    0.0420 c3        1 KGC      0.162800
      7 NZ         -1.6760   -0.3230   -0.5150 n3        1 KGC     -0.826200
      8 C11        -2.9340    0.1730    0.0500 c3        1 KGC      0.243000
      9 C13        -3.2230    1.7180   -0.1620 c         1 KGC      0.917600
     10 O15        -2.7040    2.2630   -1.1680 o         1 KGC     -0.814800
     11 O14        -3.9430    2.2890    0.6990 o         1 KGC     -0.814800
     12 O30        -4.0010   -0.5120   -0.7160 os        1 KGC     -0.386900
     13 C28        -4.6030   -1.4550    0.0580 c         1 KGC      0.729600
     14 O29        -5.4710   -2.1550   -0.4730 o         1 KGC     -0.659500
     15 C27        -4.1020   -1.4440    1.4780 c3        1 KGC     -0.166400
     16 C12        -3.1480   -0.2610    1.5290 c3        1 KGC     -0.104400
     17 C           5.7500   -0.7040   -0.0670 c         1 KGC      0.887600
     18 O1          6.7800   -0.0920   -0.4800 o         1 KGC     -0.854300
     19 OXT         5.6600   -1.9630   -0.0080 o         1 KGC     -0.854300
     20 H           5.7620    1.7160    0.5840 hn        1 KGC      0.328300
     21 H2          4.5390    1.9640   -0.4360 hn        1 KGC      0.328300
     22 HA          4.3560   -0.1670    1.5050 h1        1 KGC      0.040700
     23 HB2         3.4170    0.0660   -1.4460 hc        1 KGC      0.042700
     24 HB3         3.2620   -1.3880   -0.3840 hc        1 KGC      0.042700
     25 HG2         1.9290    0.0150    1.2680 hc        1 KGC      0.034700
     26 HG3         2.0210    1.4120    0.1310 hc        1 KGC      0.034700
     27 HD2         0.8690    0.0620   -1.6440 hc        1 KGC      0.035200
     28 HD3         0.8040   -1.3570   -0.5290 hc        1 KGC      0.035200
     29 HE2        -0.4730    0.1120    1.1510 h1        1 KGC      0.036200
     30 HE3        -0.5130    1.4320   -0.0970 h1        1 KGC      0.036200
     31 HZ         -1.7060   -0.1480   -1.5060 hn        1 KGC      0.371800
     32 H271       -4.9590   -1.3260    2.1840 hc        1 KGC      0.059200
     33 H272       -3.5860   -2.4090    1.7010 hc        1 KGC      0.059200
     34 H121       -2.1940   -0.5380    2.0350 hc        1 KGC      0.072700
     35 H122       -3.6070    0.6020    2.0770 hc        1 KGC      0.072700
@<TRIPOS>BOND
     1    1    2 1   
     2    1   20 1   
     3    1   21 1   
     4    2    3 1   
     5    2   17 1   
     6    2   22 1   
     7    3    4 1   
     8    3   23 1   
     9    3   24 1   
    10    4    5 1   
    11    4   25 1   
    12    4   26 1   
    13    5    6 1   
    14    5   27 1   
    15    5   28 1   
    16    6    7 1   
    17    6   29 1   
    18    6   30 1   
    19    7    8 1   
    20    7   31 1   
    21    8    9 1   
    22    8   12 1   
    23    8   16 1   
    24    9   10 1   
    25    9   11 1   
    26   12   13 1   
    27   13   14 2   
    28   13   15 1   
    29   15   16 1   
    30   15   32 1   
    31   15   33 1   
    32   16   34 1   
    33   16   35 1   
    34   17   18 1   
    35   17   19 1   
@<TRIPOS>SUBSTRUCTURE
     1 KGC         1 TEMP              0 ****  ****    0 ROOT
