@<TRIPOS>MOLECULE
KGG
   51    48     1     0     0
SMALL
bcc


@<TRIPOS>ATOM
      1 C1         -2.7590   -1.9570   -5.6270 c3        1 KGG     -0.076000
      2 O2         -2.4310   -0.7180   -5.0030 os        1 KGG     -0.212000
      3 C3         -1.8700   -0.8570   -3.7180 c2        1 KGG      0.079000
      4 C4         -0.4970   -0.8670   -3.5660 c2        1 KGG     -0.208000
      5 C5          0.0640   -0.8240   -2.2960 c1        1 KGG     -0.064000
      6 C6         -0.7630   -0.7700   -1.1650 c1        1 KGG     -0.093000
      7 C7         -2.1270   -0.7600   -1.3120 c1        1 KGG     -0.097000
      8 C8         -2.6930   -0.8030   -2.5940 c1        1 KGG     -0.158000
      9 C9         -0.1480   -0.7600    0.2200 c3        1 KGG      0.103000
     10 C10        -0.6780   -2.0200    1.0860 c3        1 KGG     -0.189000
     11 C11         0.6160   -2.9540    1.2610 c3        1 KGG      0.024000
     12 C12         1.5060   -2.2870    0.4640 c2        1 KGG      0.048000
     13 N13         1.0920   -0.9390    0.1440 n2        1 KGG     -0.233000
     14 N14         2.9130   -2.6130    0.5290 n3        1 KGG     -0.323000
     15 O15         0.4070   -4.3750    0.8960 os        1 KGG     -0.249000
     16 C16         0.5270   -5.2710    1.9950 c3        1 KGG     -0.077000
     17 C17        -0.4590    0.5750    0.9490 c2        1 KGG     -0.058000
     18 C18        -1.6370    0.7030    1.7250 c2        1 KGG     -0.125000
     19 C19        -1.8810    1.8890    2.4410 c1        1 KGG     -0.132000
     20 C20        -0.9640    2.9360    2.3840 c1        1 KGG     -0.118000
     21 C21         0.2140    2.8050    1.6050 c1        1 KGG     -0.044000
     22 C22         0.4570    1.6240    0.8940 c1        1 KGG     -0.092000
     23 C23         1.1910    3.9630    1.5040 c2        1 KGG     -0.080000
     24 C24         2.2380    4.0610    2.3960 c2        1 KGG     -0.086000
     25 C25         3.1480    5.0890    2.2790 c1        1 KGG     -0.182000
     26 C26         3.0070    6.0450    1.2410 c1        1 KGG     -0.074000
     27 N27         1.9710    5.9470    0.3600 n1        1 KGG     -0.138000
     28 C28         1.0530    4.9110    0.4780 c1        1 KGG     -0.063000
     29 H11C       -3.1590   -1.7840   -6.5010 h1        1 KGG      0.083000
     30 H12C       -1.9060   -2.5160   -5.7460 h1        1 KGG      0.083000
     31 H13C       -3.4120   -2.4600   -5.0520 h1        1 KGG      0.083000
     32 H4          0.0700   -0.9030   -4.3400 ha        1 KGG      0.136000
     33 H8         -3.6450   -0.7960   -2.6980 ha        1 KGG      0.147000
     34 H5          1.0240   -0.8310   -2.1930 ha        1 KGG      0.151000
     35 H7         -2.7000   -0.7220   -0.5270 ha        1 KGG      0.128000
     36 H101       -1.0080   -1.7180    1.9690 hc        1 KGG      0.114000
     37 H102       -1.4010   -2.5100    0.5870 hc        1 KGG      0.114000
     38 H11         0.9180   -3.0200    2.1980 h1        1 KGG      0.093000
     39 H141        3.5170   -2.2090   -0.0680 hn        1 KGG      0.200000
     40 H142        3.2040   -3.2770    1.0980 hn        1 KGG      0.200000
     41 H161        0.1050   -6.1300    1.7660 h1        1 KGG      0.076000
     42 H162        0.0890   -4.8940    2.7650 h1        1 KGG      0.076000
     43 H163        1.4940   -5.4170    2.2000 h1        1 KGG      0.076000
     44 H18        -2.3000   -0.0560    1.7650 ha        1 KGG      0.130000
     45 H22         1.3110    1.5320    0.3280 ha        1 KGG      0.154000
     46 H19        -2.7310    1.9830    3.0020 ha        1 KGG      0.133000
     47 H20        -1.1340    3.7690    2.8850 ha        1 KGG      0.135000
     48 H24         2.3340    3.4070    3.1040 ha        1 KGG      0.142000
     49 H28         0.2880    4.8410   -0.1750 ha        1 KGG      0.162000
     50 H25         3.8880    5.1590    2.9080 ha        1 KGG      0.142000
     51 H26         3.6550    6.7780    1.1570 ha        1 KGG      0.158000
@<TRIPOS>BOND
     1    1    2 1   
     2    1   29 1   
     3    1   30 1   
     4    1   31 1   
     5    2    3 1   
     6    3    4 1   
     7    3    8 1   
     8    4    5 1   
     9    4   32 1   
    10    5   34 1   
    11    6    7 1   
    12    6    9 1   
    13    7   35 1   
    14    8   33 1   
    15    9   10 1   
    16    9   13 1   
    17    9   17 1   
    18   10   11 1   
    19   10   36 1   
    20   10   37 1   
    21   11   12 1   
    22   11   15 1   
    23   11   38 1   
    24   12   13 1   
    25   12   14 1   
    26   14   39 1   
    27   14   40 1   
    28   15   16 1   
    29   16   41 1   
    30   16   42 1   
    31   16   43 1   
    32   17   18 1   
    33   17   22 1   
    34   18   19 1   
    35   18   44 1   
    36   19   46 1   
    37   20   21 1   
    38   20   47 1   
    39   21   23 1   
    40   22   45 1   
    41   23   24 1   
    42   23   28 1   
    43   24   25 1   
    44   24   48 1   
    45   25   50 1   
    46   26   27 1   
    47   26   51 1   
    48   28   49 1   
@<TRIPOS>SUBSTRUCTURE
     1 KGG         1 TEMP              0 ****  ****    0 ROOT
