@<TRIPOS>MOLECULE
KGG
   51    54     1     0     0
SMALL
bcc


@<TRIPOS>ATOM
      1 C1         -4.4170    5.1330    0.5150 c3        1 KGG      0.113700
      2 O2         -3.5910    4.6260   -0.5250 os        1 KGG     -0.327900
      3 C3         -3.0200    3.3880   -0.3000 ca        1 KGG      0.124100
      4 C4         -2.2050    2.9100   -1.3430 ca        1 KGG     -0.184500
      5 C5         -1.5880    1.6720   -1.2150 ca        1 KGG     -0.081500
      6 C6         -1.7750    0.8880   -0.0650 ca        1 KGG     -0.097300
      7 C7         -2.5760    1.3860    0.9670 ca        1 KGG     -0.081500
      8 C8         -3.2020    2.6270    0.8590 ca        1 KGG     -0.184500
      9 C9         -1.0810   -0.4560    0.0720 c3        1 KGG      0.238800
     10 C10        -1.9250   -1.4470    0.9560 c3        1 KGG     -0.115400
     11 C11        -1.9190   -2.7750    0.1850 c3        1 KGG      0.053800
     12 C12        -1.3790   -2.3430   -1.2010 c2        1 KGG      0.560200
     13 N13        -0.9320   -1.1090   -1.2530 n2        1 KGG     -0.636900
     14 N14        -1.3390   -3.2900   -2.2240 nh        1 KGG     -0.870800
     15 O15        -3.2470   -3.2630    0.0640 os        1 KGG     -0.412600
     16 C16        -3.3720   -4.6550    0.3090 c3        1 KGG      0.111700
     17 C17         0.2620   -0.2030    0.7460 ca        1 KGG     -0.069300
     18 C18         0.2780    0.2260    2.0810 ca        1 KGG     -0.123000
     19 C19         1.4840    0.4700    2.7320 ca        1 KGG     -0.132000
     20 C20         2.6920    0.2990    2.0610 ca        1 KGG     -0.118000
     21 C21         2.6950   -0.1150    0.7230 cp        1 KGG     -0.043000
     22 C22         1.4760   -0.3590    0.0710 ca        1 KGG     -0.094000
     23 C23         3.9540   -0.2890    0.0090 cp        1 KGG     -0.147300
     24 C24         5.0290    0.5930    0.1930 ca        1 KGG     -0.086000
     25 C25         6.2120    0.3810   -0.5140 ca        1 KGG     -0.247300
     26 C26         6.2860   -0.7180   -1.3890 ca        1 KGG      0.391200
     27 N27         5.2680   -1.5790   -1.5820 nb        1 KGG     -0.665000
     28 C28         4.1330   -1.3630   -0.8960 ca        1 KGG      0.404200
     29 H11C       -4.7610    6.1220    0.1170 h1        1 KGG      0.043033
     30 H12C       -5.2870    4.4560    0.6940 h1        1 KGG      0.043033
     31 H13C       -3.8290    5.2700    1.4550 h1        1 KGG      0.043033
     32 H4         -2.0650    3.5230   -2.2440 ha        1 KGG      0.142000
     33 H8         -3.8290    2.9910    1.6840 ha        1 KGG      0.142000
     34 H5         -0.9430    1.3160   -2.0340 ha        1 KGG      0.141000
     35 H7         -2.7220    0.8080    1.8920 ha        1 KGG      0.141000
     36 H101       -1.4800   -1.5750    1.9690 hc        1 KGG      0.073200
     37 H102       -2.9790   -1.0900    1.0590 hc        1 KGG      0.073200
     38 H11        -1.2340   -3.5310    0.6490 h1        1 KGG      0.074700
     39 H141       -2.1350   -3.8930   -2.2080 hn        1 KGG      0.401800
     40 H142       -1.1330   -2.9320   -3.1320 hn        1 KGG      0.401800
     41 H161       -3.0580   -4.9020    1.3530 h1        1 KGG      0.038367
     42 H162       -4.4630   -4.8610    0.1690 h1        1 KGG      0.038367
     43 H163       -2.7640   -5.2440   -0.4210 h1        1 KGG      0.038367
     44 H18        -0.6700    0.3860    2.6170 ha        1 KGG      0.132000
     45 H22         1.5000   -0.6610   -0.9890 ha        1 KGG      0.156000
     46 H19         1.4820    0.8030    3.7800 ha        1 KGG      0.132000
     47 H20         3.6440    0.4850    2.5810 ha        1 KGG      0.133000
     48 H24         4.9330    1.4470    0.8800 ha        1 KGG      0.141000
     49 H28         3.3170   -2.0870   -1.0730 h4        1 KGG      0.028100
     50 H25         7.0700    1.0550   -0.3950 ha        1 KGG      0.143000
     51 H26         7.2050   -0.9220   -1.9670 h4        1 KGG      0.021100
@<TRIPOS>BOND
     1    1    2 1   
     2    1   29 1   
     3    1   30 1   
     4    1   31 1   
     5    2    3 1   
     6    3    4 ar  
     7    3    8 ar  
     8    4    5 ar  
     9    4   32 1   
    10    5    6 ar  
    11    5   34 1   
    12    6    7 ar  
    13    6    9 1   
    14    7    8 ar  
    15    7   35 1   
    16    8   33 1   
    17    9   10 1   
    18    9   13 1   
    19    9   17 1   
    20   10   11 1   
    21   10   36 1   
    22   10   37 1   
    23   11   12 1   
    24   11   15 1   
    25   11   38 1   
    26   12   13 2   
    27   12   14 1   
    28   14   39 1   
    29   14   40 1   
    30   15   16 1   
    31   16   41 1   
    32   16   42 1   
    33   16   43 1   
    34   17   18 ar  
    35   17   22 ar  
    36   18   19 ar  
    37   18   44 1   
    38   19   20 ar  
    39   19   46 1   
    40   20   21 ar  
    41   20   47 1   
    42   21   22 ar  
    43   21   23 1   
    44   22   45 1   
    45   23   24 ar  
    46   23   28 ar  
    47   24   25 ar  
    48   24   48 1   
    49   25   26 ar  
    50   25   50 1   
    51   26   27 ar  
    52   26   51 1   
    53   27   28 ar  
    54   28   49 1   
@<TRIPOS>SUBSTRUCTURE
     1 KGG         1 TEMP              0 ****  ****    0 ROOT
