@<TRIPOS>MOLECULE
KGG
   52    55     1     0     0
SMALL
bcc


@<TRIPOS>ATOM
      1 C1         -0.7730   -0.1710    0.0280 c3        1 KGG      0.108700
      2 O2          0.5380    0.3860   -0.0360 os        1 KGG     -0.314900
      3 C3          1.3180    0.2520    1.0880 ca        1 KGG      0.156100
      4 C4          2.5890    0.8560    1.0060 ca        1 KGG     -0.179500
      5 C5          3.4570    0.7690    2.0840 ca        1 KGG     -0.074500
      6 C6          3.0930    0.0720    3.2470 ca        1 KGG     -0.146300
      7 C7          1.8190   -0.5000    3.3250 ca        1 KGG     -0.074500
      8 C8          0.9310   -0.4200    2.2540 ca        1 KGG     -0.179500
      9 C9          4.0380    0.0020    4.4280 c3        1 KGG      0.252800
     10 C10         3.7960   -1.2860    5.3070 c3        1 KGG     -0.136400
     11 C11         5.1890   -1.8790    5.5760 c3        1 KGG      0.079800
     12 C12         6.0310   -1.1080    4.5420 c2        1 KGG      0.415200
     13 N13         5.4500   -0.1160    3.9400 n2        1 KGG     -0.461900
     14 N14         7.3910   -1.5740    4.2570 n4        1 KGG     -0.778600
     15 O15         5.3250   -3.2550    5.2640 os        1 KGG     -0.450600
     16 C16         4.6400   -4.1170    6.1690 c3        1 KGG      0.116700
     17 C17         3.8400    1.2430    5.2830 ca        1 KGG     -0.100300
     18 C18         2.6160    1.3900    5.9500 ca        1 KGG     -0.116000
     19 C19         2.3770    2.5100    6.7410 ca        1 KGG     -0.114000
     20 C20         3.3510    3.4990    6.8740 ca        1 KGG     -0.100000
     21 C21         4.5720    3.3730    6.2010 cp        1 KGG     -0.018000
     22 C22         4.8060    2.2450    5.3980 ca        1 KGG     -0.114000
     23 C23         5.6000    4.3990    6.3260 cp        1 KGG     -0.168300
     24 C24         5.2800    5.7660    6.3490 ca        1 KGG     -0.074000
     25 C25         6.3080    6.7010    6.4650 ca        1 KGG     -0.235300
     26 C26         7.6350    6.2390    6.5540 ca        1 KGG      0.407200
     27 N27         7.9650    4.9330    6.5370 nb        1 KGG     -0.663000
     28 C28         6.9640    4.0430    6.4270 ca        1 KGG      0.399200
     29 H11C       -0.7220   -1.2770    0.1740 h1        1 KGG      0.053700
     30 H12C       -1.3660    0.3100    0.8430 h1        1 KGG      0.053700
     31 H13C       -1.2040    0.0770   -0.9760 h1        1 KGG      0.053700
     32 H4          2.8710    1.3970    0.0900 ha        1 KGG      0.157500
     33 H8         -0.0650   -0.8780    2.3390 ha        1 KGG      0.157500
     34 H5          4.4340    1.2740    2.0120 ha        1 KGG      0.137000
     35 H7          1.4820   -1.0090    4.2410 ha        1 KGG      0.137000
     36 H101        3.1840   -2.0360    4.7460 hc        1 KGG      0.097200
     37 H102        3.2810   -1.0270    6.2610 hc        1 KGG      0.097200
     38 H11         5.5440   -1.6790    6.6230 h1        1 KGG      0.085700
     39 H141        8.0090   -1.3000    5.0290 hn        1 KGG      0.478467
     40 H142        7.7520   -1.1880    3.3760 hn        1 KGG      0.478467
     41 H161        5.0660   -4.0140    7.1970 h1        1 KGG      0.059367
     42 H162        4.8300   -5.1410    5.7560 h1        1 KGG      0.059367
     43 H163        3.5460   -3.8880    6.1720 h1        1 KGG      0.059367
     44 H18         1.8280    0.6290    5.8310 ha        1 KGG      0.138000
     45 H22         5.7570    2.1970    4.8470 ha        1 KGG      0.136000
     46 H19         1.4120    2.6180    7.2600 ha        1 KGG      0.150000
     47 H20         3.1600    4.3800    7.5080 ha        1 KGG      0.151000
     48 H24         4.2320    6.0930    6.2690 ha        1 KGG      0.148000
     49 H28         7.2660    2.9810    6.4320 h4        1 KGG      0.005100
     50 H25         6.0930    7.7780    6.4840 ha        1 KGG      0.157000
     51 H26         8.4790    6.9480    6.6450 h4        1 KGG      0.034100
     52 H143        7.3480   -2.6040    4.1970 hn        1 KGG      0.478467
@<TRIPOS>BOND
     1    1    2 1   
     2    1   29 1   
     3    1   30 1   
     4    1   31 1   
     5    2    3 1   
     6    3    4 ar  
     7    3    8 ar  
     8    4    5 ar  
     9    4   32 1   
    10    5    6 ar  
    11    5   34 1   
    12    6    7 ar  
    13    6    9 1   
    14    7    8 ar  
    15    7   35 1   
    16    8   33 1   
    17    9   10 1   
    18    9   13 1   
    19    9   17 1   
    20   10   11 1   
    21   10   36 1   
    22   10   37 1   
    23   11   12 1   
    24   11   15 1   
    25   11   38 1   
    26   12   13 2   
    27   12   14 1   
    28   14   39 1   
    29   14   40 1   
    30   14   52 1   
    31   15   16 1   
    32   16   41 1   
    33   16   42 1   
    34   16   43 1   
    35   17   18 ar  
    36   17   22 ar  
    37   18   19 ar  
    38   18   44 1   
    39   19   20 ar  
    40   19   46 1   
    41   20   21 ar  
    42   20   47 1   
    43   21   22 ar  
    44   21   23 1   
    45   22   45 1   
    46   23   24 ar  
    47   23   28 ar  
    48   24   25 ar  
    49   24   48 1   
    50   25   26 ar  
    51   25   50 1   
    52   26   27 ar  
    53   26   51 1   
    54   27   28 ar  
    55   28   49 1   
@<TRIPOS>SUBSTRUCTURE
     1 KGG         1 TEMP              0 ****  ****    0 ROOT
