@<TRIPOS>MOLECULE
KGG
   52    55     1     0     0
SMALL
bcc


@<TRIPOS>ATOM
      1 C1         -0.4920   -0.3610   -0.2350 c3        1 KGG      0.108700
      2 O2          0.8290    0.1760   -0.2440 os        1 KGG     -0.313900
      3 C3          1.5330    0.0970    0.9330 ca        1 KGG      0.157100
      4 C4          2.8130    0.6840    0.9020 ca        1 KGG     -0.179500
      5 C5          3.6090    0.6490    2.0380 ca        1 KGG     -0.075500
      6 C6          3.1620    0.0200    3.2110 ca        1 KGG     -0.146300
      7 C7          1.8790   -0.5360    3.2360 ca        1 KGG     -0.075500
      8 C8          1.0630   -0.5060    2.1070 ca        1 KGG     -0.179500
      9 C9          4.0290    0.0080    4.4520 c3        1 KGG      0.252800
     10 C10         3.7130   -1.2260    5.3850 c3        1 KGG     -0.136400
     11 C11         5.0770   -1.8160    5.7780 c3        1 KGG      0.079800
     12 C12         5.9940   -1.1150    4.7560 c2        1 KGG      0.416200
     13 N13         5.4670   -0.1530    4.0630 n2        1 KGG     -0.461900
     14 N14         7.3620   -1.6130    4.5860 nz        1 KGG     -0.778600
     15 O15         5.2130   -3.2090    5.5550 os        1 KGG     -0.450600
     16 C16         4.4570   -4.0100    6.4600 c3        1 KGG      0.116700
     17 C17         3.7940    1.2970    5.2230 ca        1 KGG     -0.100300
     18 C18         2.5240    1.5010    5.7820 ca        1 KGG     -0.116000
     19 C19         2.2500    2.6670    6.4910 ca        1 KGG     -0.114000
     20 C20         3.2310    3.6430    6.6490 ca        1 KGG     -0.100000
     21 C21         4.5000    3.4600    6.0830 cp        1 KGG     -0.017000
     22 C22         4.7710    2.2840    5.3650 ca        1 KGG     -0.115000
     23 C23         5.5330    4.4770    6.2290 cp        1 KGG     -0.174300
     24 C24         5.6930    5.1950    7.4250 ca        1 KGG     -0.079000
     25 C25         6.7020    6.1520    7.5130 ca        1 KGG     -0.239300
     26 C26         7.5300    6.3650    6.3950 ca        1 KGG      0.406200
     27 N27         7.3920    5.6920    5.2360 nb        1 KGG     -0.659000
     28 C28         6.4110    4.7760    5.1620 ca        1 KGG      0.403200
     29 H11C       -0.4680   -1.4580   -0.0260 h1        1 KGG      0.053700
     30 H12C       -1.1280    0.1710    0.5140 h1        1 KGG      0.053700
     31 H13C       -0.8550   -0.1630   -1.2760 h1        1 KGG      0.053700
     32 H4          3.1600    1.1720   -0.0210 ha        1 KGG      0.157500
     33 H8          0.0580   -0.9510    2.1520 ha        1 KGG      0.157500
     34 H5          4.5950    1.1400    2.0020 ha        1 KGG      0.136500
     35 H7          1.4770   -0.9920    4.1540 ha        1 KGG      0.136500
     36 H101        3.1270   -2.0010    4.8290 hc        1 KGG      0.097200
     37 H102        3.1400   -0.9060    6.2870 hc        1 KGG      0.097200
     38 H11         5.3680   -1.5580    6.8320 h1        1 KGG      0.084700
     39 H141        7.3080   -2.6430    4.5850 hn        1 KGG      0.478133
     40 H142        7.9350   -1.2980    5.3770 hn        1 KGG      0.478133
     41 H161        4.6590   -5.0580    6.1200 h1        1 KGG      0.059367
     42 H162        4.8160   -3.8520    7.5070 h1        1 KGG      0.059367
     43 H163        3.3690   -3.7690    6.3770 h1        1 KGG      0.059367
     44 H18         1.7320    0.7490    5.6390 ha        1 KGG      0.138000
     45 H22         5.7680    2.1790    4.9120 ha        1 KGG      0.134000
     46 H19         1.2480    2.8210    6.9220 ha        1 KGG      0.150000
     47 H20         3.0050    4.5680    7.2040 ha        1 KGG      0.152000
     48 H24         5.0310    5.0010    8.2830 ha        1 KGG      0.144000
     49 H28         6.3090    4.2620    4.1880 h4        1 KGG      0.021100
     50 H25         6.8520    6.7340    8.4330 ha        1 KGG      0.155000
     51 H26         8.3420    7.1140    6.4230 h4        1 KGG      0.034100
     52 H143        7.7820   -1.2840    3.7070 hn        1 KGG      0.478133
@<TRIPOS>BOND
     1    1    2 1   
     2    1   29 1   
     3    1   30 1   
     4    1   31 1   
     5    2    3 1   
     6    3    4 ar  
     7    3    8 ar  
     8    4    5 ar  
     9    4   32 1   
    10    5    6 ar  
    11    5   34 1   
    12    6    7 ar  
    13    6    9 1   
    14    7    8 ar  
    15    7   35 1   
    16    8   33 1   
    17    9   10 1   
    18    9   13 1   
    19    9   17 1   
    20   10   11 1   
    21   10   36 1   
    22   10   37 1   
    23   11   12 1   
    24   11   15 1   
    25   11   38 1   
    26   12   13 2   
    27   12   14 1   
    28   14   39 1   
    29   14   40 1   
    30   14   52 1   
    31   15   16 1   
    32   16   41 1   
    33   16   42 1   
    34   16   43 1   
    35   17   18 ar  
    36   17   22 ar  
    37   18   19 ar  
    38   18   44 1   
    39   19   20 ar  
    40   19   46 1   
    41   20   21 ar  
    42   20   47 1   
    43   21   22 ar  
    44   21   23 1   
    45   22   45 1   
    46   23   24 ar  
    47   23   28 ar  
    48   24   25 ar  
    49   24   48 1   
    50   25   26 ar  
    51   25   50 1   
    52   26   27 ar  
    53   26   51 1   
    54   27   28 ar  
    55   28   49 1   
@<TRIPOS>SUBSTRUCTURE
     1 KGG         1 TEMP              0 ****  ****    0 ROOT
