@<TRIPOS>MOLECULE
KGG
   52    55     1     0     0
SMALL
bcc


@<TRIPOS>ATOM
      1 C1         -0.6420   -0.1480   -0.1040 c3        1 KGG      0.108700
      2 O2          0.6730    0.4050   -0.1290 os        1 KGG     -0.314900
      3 C3          1.4190    0.2670    1.0160 ca        1 KGG      0.156100
      4 C4          2.6940    0.8670    0.9710 ca        1 KGG     -0.179500
      5 C5          3.5310    0.7760    2.0740 ca        1 KGG     -0.074500
      6 C6          3.1300    0.0800    3.2260 ca        1 KGG     -0.146300
      7 C7          1.8530   -0.4870    3.2660 ca        1 KGG     -0.074500
      8 C8          0.9970   -0.4030    2.1710 ca        1 KGG     -0.179500
      9 C9          4.0410    0.0060    4.4330 c3        1 KGG      0.252800
     10 C10         3.7690   -1.2830    5.3030 c3        1 KGG     -0.136400
     11 C11         5.1520   -1.8810    5.6130 c3        1 KGG      0.079800
     12 C12         6.0260   -1.1120    4.6030 c2        1 KGG      0.415200
     13 N13         5.4670   -0.1170    3.9860 n2        1 KGG     -0.461900
     14 N14         7.3920   -1.5830    4.3580 n4        1 KGG     -0.778600
     15 O15         5.2910   -3.2570    5.3030 os        1 KGG     -0.450600
     16 C16         4.5770   -4.1170    6.1870 c3        1 KGG      0.116700
     17 C17         3.8240    1.2470    5.2820 ca        1 KGG     -0.100300
     18 C18         2.5810    1.3970    5.9160 ca        1 KGG     -0.116000
     19 C19         2.3250    2.5180    6.7000 ca        1 KGG     -0.114000
     20 C20         3.2970    3.5040    6.8600 ca        1 KGG     -0.100000
     21 C21         4.5360    3.3750    6.2210 cp        1 KGG     -0.018000
     22 C22         4.7890    2.2460    5.4250 ca        1 KGG     -0.114000
     23 C23         5.5630    4.3980    6.3740 cp        1 KGG     -0.168300
     24 C24         5.2470    5.7650    6.3890 ca        1 KGG     -0.074000
     25 C25         6.2750    6.6970    6.5340 ca        1 KGG     -0.235300
     26 C26         7.5970    6.2310    6.6600 ca        1 KGG      0.407200
     27 N27         7.9240    4.9240    6.6520 nb        1 KGG     -0.663000
     28 C28         6.9230    4.0370    6.5140 ca        1 KGG      0.399200
     29 H11C       -0.5990   -1.2540    0.0430 h1        1 KGG      0.053700
     30 H12C       -1.2560    0.3350    0.6940 h1        1 KGG      0.053700
     31 H13C       -1.0430    0.1020   -1.1200 h1        1 KGG      0.053700
     32 H4          3.0050    1.4070    0.0640 ha        1 KGG      0.157500
     33 H8         -0.0030   -0.8580    2.2270 ha        1 KGG      0.157500
     34 H5          4.5110    1.2770    2.0300 ha        1 KGG      0.137000
     35 H7          1.4870   -0.9960    4.1720 ha        1 KGG      0.137000
     36 H101        3.2280   -1.0220    6.2430 hc        1 KGG      0.097200
     37 H102        3.1710   -2.0300    4.7250 hc        1 KGG      0.097200
     38 H11         5.4770   -1.6830    6.6690 h1        1 KGG      0.085700
     39 H141        7.9880   -1.3120    5.1470 hn        1 KGG      0.478467
     40 H142        7.3470   -2.6130    4.2950 hn        1 KGG      0.478467
     41 H161        4.9740   -4.0170    7.2270 h1        1 KGG      0.059367
     42 H162        3.4850   -3.8840    6.1590 h1        1 KGG      0.059367
     43 H163        4.7740   -5.1410    5.7790 h1        1 KGG      0.059367
     44 H18         1.7950    0.6390    5.7750 ha        1 KGG      0.138000
     45 H22         5.7550    2.1950    4.9000 ha        1 KGG      0.136000
     46 H19         1.3460    2.6290    7.1920 ha        1 KGG      0.150000
     47 H20         3.0920    4.3850    7.4880 ha        1 KGG      0.151000
     48 H24         4.2030    6.0950    6.2810 ha        1 KGG      0.148000
     49 H28         7.2210    2.9740    6.5260 h4        1 KGG      0.005100
     50 H25         6.0620    7.7750    6.5480 ha        1 KGG      0.157000
     51 H26         8.4400    6.9370    6.7740 h4        1 KGG      0.034100
     52 H143        7.7790   -1.1970    3.4870 hn        1 KGG      0.478467
@<TRIPOS>BOND
     1    1    2 1   
     2    1   29 1   
     3    1   30 1   
     4    1   31 1   
     5    2    3 1   
     6    3    4 ar  
     7    3    8 ar  
     8    4    5 ar  
     9    4   32 1   
    10    5    6 ar  
    11    5   34 1   
    12    6    7 ar  
    13    6    9 1   
    14    7    8 ar  
    15    7   35 1   
    16    8   33 1   
    17    9   10 1   
    18    9   13 1   
    19    9   17 1   
    20   10   11 1   
    21   10   36 1   
    22   10   37 1   
    23   11   12 1   
    24   11   15 1   
    25   11   38 1   
    26   12   13 2   
    27   12   14 1   
    28   14   39 1   
    29   14   40 1   
    30   14   52 1   
    31   15   16 1   
    32   16   41 1   
    33   16   42 1   
    34   16   43 1   
    35   17   18 ar  
    36   17   22 ar  
    37   18   19 ar  
    38   18   44 1   
    39   19   20 ar  
    40   19   46 1   
    41   20   21 ar  
    42   20   47 1   
    43   21   22 ar  
    44   21   23 1   
    45   22   45 1   
    46   23   24 ar  
    47   23   28 ar  
    48   24   25 ar  
    49   24   48 1   
    50   25   26 ar  
    51   25   50 1   
    52   26   27 ar  
    53   26   51 1   
    54   27   28 ar  
    55   28   49 1   
@<TRIPOS>SUBSTRUCTURE
     1 KGG         1 TEMP              0 ****  ****    0 ROOT
