@<TRIPOS>MOLECULE
KGM
   45    45     1     0     0
SMALL
bcc


@<TRIPOS>ATOM
      1 O6         -0.0380    0.2760    0.2220 oh        1 KGM     -0.597800
      2 C6          1.3150   -0.1390    0.1290 c3        1 KGM      0.135400
      3 C5          1.9190    0.0030    1.5260 c3        1 KGM      0.141100
      4 C10        -2.5230    1.9470    6.0980 c3        1 KGM     -0.078400
      5 O5          1.6070   -1.2080    2.2240 os        1 KGM     -0.444600
      6 C4          3.4470    0.1590    1.4580 c3        1 KGM      0.086100
      7 O4          3.7290    1.3590    0.7620 oh        1 KGM     -0.592800
      8 C3          4.0190    0.1980    2.8870 c3        1 KGM      0.076100
      9 O3          5.4260    0.3170    2.8300 oh        1 KGM     -0.595800
     10 C2          3.5810   -1.0400    3.6790 c3        1 KGM      0.093100
     11 O2          4.2670   -2.1910    3.2250 oh        1 KGM     -0.593800
     12 C1          2.0580   -1.2500    3.5640 c3        1 KGM      0.300900
     13 O1          1.4280   -0.2030    4.2680 os        1 KGM     -0.445600
     14 C7          0.0170   -0.3940    4.4290 c3        1 KGM      0.131400
     15 C8         -0.4990    0.8370    5.1520 c3        1 KGM     -0.083400
     16 C9         -1.9900    0.7260    5.3780 c3        1 KGM     -0.078400
     17 C13        -6.0360    2.9580    7.2770 c3        1 KGM     -0.092100
     18 C12        -4.5510    3.0590    7.0460 c3        1 KGM     -0.080400
     19 C11        -4.0160    1.8400    6.3270 c3        1 KGM     -0.079400
     20 H131       -6.5810    2.8680    6.3060 hc        1 KGM      0.032700
     21 H132       -6.2790    2.0620    7.8980 hc        1 KGM      0.032700
     22 H133       -6.4100    3.8660    7.8080 hc        1 KGM      0.032700
     23 H121       -4.3250    3.9780    6.4430 hc        1 KGM      0.039200
     24 H122       -4.0240    3.1740    8.0300 hc        1 KGM      0.039200
     25 H111       -4.2400    0.9200    6.9290 hc        1 KGM      0.039700
     26 H112       -4.5400    1.7250    5.3420 hc        1 KGM      0.039700
     27 H101       -2.3000    2.8660    5.4950 hc        1 KGM      0.041700
     28 H102       -1.9990    2.0610    7.0830 hc        1 KGM      0.041700
     29 H91C       -2.2150   -0.1940    5.9800 hc        1 KGM      0.041700
     30 H92C       -2.5140    0.6130    4.3920 hc        1 KGM      0.041700
     31 H81C       -0.2660    1.7490    4.5420 hc        1 KGM      0.054200
     32 H82C        0.0350    0.9470    6.1310 hc        1 KGM      0.054200
     33 H71C       -0.1610   -1.3240    5.0320 h1        1 KGM      0.042700
     34 H72C       -0.4580   -0.5050    3.4190 h1        1 KGM      0.042700
     35 H1          1.7540   -2.2700    3.9340 h2        1 KGM      0.088700
     36 H2          3.8790   -0.9320    4.7590 h1        1 KGM      0.109700
     37 HA          3.8910   -2.4330    2.3670 ho        1 KGM      0.412000
     38 H3          3.6630    1.1300    3.4120 h1        1 KGM      0.108700
     39 HB          5.7870   -0.5670    2.6760 ho        1 KGM      0.417000
     40 H4          3.9010   -0.7040    0.8930 h1        1 KGM      0.037700
     41 HC          4.6340    1.6100    0.9980 ho        1 KGM      0.423000
     42 H5          1.4600    0.8770    2.0640 h1        1 KGM      0.092700
     43 H61C        1.3720   -1.2050   -0.2160 h1        1 KGM      0.045200
     44 H62C        1.8760    0.5280   -0.5800 h1        1 KGM      0.045200
     45 H6         -0.4200    0.1580   -0.6560 ho        1 KGM      0.402000
@<TRIPOS>BOND
     1    1    2 1   
     2    1   45 1   
     3    2    3 1   
     4    2   43 1   
     5    2   44 1   
     6    3    5 1   
     7    3    6 1   
     8    3   42 1   
     9    4   16 1   
    10    4   19 1   
    11    4   27 1   
    12    4   28 1   
    13    5   12 1   
    14    6    7 1   
    15    6    8 1   
    16    6   40 1   
    17    7   41 1   
    18    8    9 1   
    19    8   10 1   
    20    8   38 1   
    21    9   39 1   
    22   10   11 1   
    23   10   12 1   
    24   10   36 1   
    25   11   37 1   
    26   12   13 1   
    27   12   35 1   
    28   13   14 1   
    29   14   15 1   
    30   14   33 1   
    31   14   34 1   
    32   15   16 1   
    33   15   31 1   
    34   15   32 1   
    35   16   29 1   
    36   16   30 1   
    37   17   18 1   
    38   17   20 1   
    39   17   21 1   
    40   17   22 1   
    41   18   19 1   
    42   18   23 1   
    43   18   24 1   
    44   19   25 1   
    45   19   26 1   
@<TRIPOS>SUBSTRUCTURE
     1 KGM         1 TEMP              0 ****  ****    0 ROOT
