@<TRIPOS>MOLECULE
KGM
   45    45     1     0     0
SMALL
bcc


@<TRIPOS>ATOM
      1 O6          0.0110    0.0820    0.0690 oh        1 KGM     -0.594800
      2 C6          1.4210    0.0620    0.0660 c3        1 KGM      0.141400
      3 C5          1.9790    0.1130    1.4900 c3        1 KGM      0.101100
      4 C10        -2.5390    1.9470    6.0800 c3        1 KGM     -0.078400
      5 O5          1.5750   -1.1130    2.1110 os        1 KGM     -0.460600
      6 C4          3.5100    0.2120    1.4890 c3        1 KGM      0.091100
      7 O4          3.8570    1.4470    0.8910 oh        1 KGM     -0.591800
      8 C3          4.0310    0.1330    2.9360 c3        1 KGM      0.075100
      9 O3          5.4420    0.1890    2.9370 oh        1 KGM     -0.594800
     10 C2          3.5090   -1.1310    3.6310 c3        1 KGM      0.095100
     11 O2          4.1560   -2.2840    3.1260 oh        1 KGM     -0.591800
     12 C1          1.9830   -1.2620    3.4570 c3        1 KGM      0.302900
     13 O1          1.3750   -0.2310    4.2020 os        1 KGM     -0.442600
     14 C7         -0.0410   -0.3960    4.3520 c3        1 KGM      0.134400
     15 C8         -0.5340    0.8240    5.1080 c3        1 KGM     -0.084400
     16 C9         -2.0290    0.7390    5.3240 c3        1 KGM     -0.078400
     17 C13        -6.0350    2.9980    7.2750 c3        1 KGM     -0.093100
     18 C12        -4.5460    3.0740    7.0540 c3        1 KGM     -0.080400
     19 C11        -4.0340    1.8660    6.2980 c3        1 KGM     -0.079400
     20 H131       -6.3910    3.8970    7.8330 hc        1 KGM      0.033033
     21 H132       -6.5760    2.9510    6.2990 hc        1 KGM      0.033033
     22 H133       -6.3000    2.0880    7.8660 hc        1 KGM      0.033033
     23 H121       -4.2970    4.0060    6.4810 hc        1 KGM      0.039200
     24 H122       -4.0210    3.1460    8.0430 hc        1 KGM      0.039200
     25 H111       -4.2810    0.9330    6.8710 hc        1 KGM      0.039700
     26 H112       -4.5560    1.7940    5.3080 hc        1 KGM      0.039700
     27 H101       -2.0160    2.0200    7.0700 hc        1 KGM      0.041700
     28 H102       -2.2920    2.8800    5.5060 hc        1 KGM      0.041700
     29 H91C       -2.2760   -0.1940    5.8970 hc        1 KGM      0.041700
     30 H92C       -2.5500    0.6670    4.3330 hc        1 KGM      0.041700
     31 H81C       -0.2780    1.7490    4.5280 hc        1 KGM      0.056200
     32 H82C       -0.0030    0.8920    6.0930 hc        1 KGM      0.056200
     33 H71C       -0.2420   -1.3390    4.9240 h1        1 KGM      0.036700
     34 H72C       -0.5130   -0.4660    3.3370 h1        1 KGM      0.036700
     35 H1          1.6230   -2.2890    3.7510 h2        1 KGM      0.089700
     36 H2          3.7740   -1.1070    4.7240 h1        1 KGM      0.110700
     37 HA          3.8120   -2.4420    2.2350 ho        1 KGM      0.412000
     38 H3          3.6980    1.0440    3.5090 h1        1 KGM      0.108700
     39 HB          5.7700   -0.6990    2.7330 ho        1 KGM      0.417000
     40 H4          3.9550   -0.6270    0.8810 h1        1 KGM      0.039700
     41 HC          4.7700    1.6350    1.1530 ho        1 KGM      0.424000
     42 H5          1.5360    0.9780    2.0550 h1        1 KGM      0.085700
     43 H61C        1.7980   -0.8530   -0.4630 h1        1 KGM      0.062200
     44 H62C        1.7360    0.9890   -0.4840 h1        1 KGM      0.062200
     45 H6         -0.2820   -0.6760    0.5920 ho        1 KGM      0.407000
@<TRIPOS>BOND
     1    1    2 1   
     2    1   45 1   
     3    2    3 1   
     4    2   43 1   
     5    2   44 1   
     6    3    5 1   
     7    3    6 1   
     8    3   42 1   
     9    4   16 1   
    10    4   19 1   
    11    4   27 1   
    12    4   28 1   
    13    5   12 1   
    14    6    7 1   
    15    6    8 1   
    16    6   40 1   
    17    7   41 1   
    18    8    9 1   
    19    8   10 1   
    20    8   38 1   
    21    9   39 1   
    22   10   11 1   
    23   10   12 1   
    24   10   36 1   
    25   11   37 1   
    26   12   13 1   
    27   12   35 1   
    28   13   14 1   
    29   14   15 1   
    30   14   33 1   
    31   14   34 1   
    32   15   16 1   
    33   15   31 1   
    34   15   32 1   
    35   16   29 1   
    36   16   30 1   
    37   17   18 1   
    38   17   20 1   
    39   17   21 1   
    40   17   22 1   
    41   18   19 1   
    42   18   23 1   
    43   18   24 1   
    44   19   25 1   
    45   19   26 1   
@<TRIPOS>SUBSTRUCTURE
     1 KGM         1 TEMP              0 ****  ****    0 ROOT
