@<TRIPOS>MOLECULE
KGR
   19    18     1     0     0
SMALL
bcc


@<TRIPOS>ATOM
      1 O1B         0.2140    1.1170    0.7020 o         1 KGR     -0.852800
      2 O1A         1.5870    0.5300   -0.9590 o         1 KGR     -0.852800
      3 C1          1.2760    0.5900    0.2670 c         1 KGR      0.897600
      4 C2          2.2930    0.0170    1.2850 c3        1 KGR      0.029100
      5 O2          3.5400   -0.2370    0.6640 oh        1 KGR     -0.628800
      6 C3          1.7630   -1.2490    1.9810 c3        1 KGR      0.138100
      7 O3          1.9540   -2.3380    1.0850 oh        1 KGR     -0.614800
      8 C4          2.4920   -1.4990    3.3000 c3        1 KGR     -0.222400
      9 O5          1.2220   -3.5180    3.6170 o         1 KGR     -0.618100
     10 C5          2.0190   -2.6900    4.0840 c         1 KGR      0.480100
     11 C6          2.6100   -2.8150    5.4950 c         1 KGR      0.847600
     12 O6A         3.6580   -3.5060    5.6330 o         1 KGR     -0.833300
     13 O6B         2.0240   -2.2090    6.4360 o         1 KGR     -0.833300
     14 H21         2.5030    0.7950    2.0690 h1        1 KGR      0.044700
     15 HO21        3.3290   -0.5660   -0.2230 ho        1 KGR      0.419000
     16 H31         0.6620   -1.1150    2.1780 h1        1 KGR      0.048700
     17 HO31        1.5680   -3.1090    1.5210 ho        1 KGR      0.403000
     18 H41         2.3850   -0.5950    3.9560 hc        1 KGR      0.072700
     19 H42         3.5850   -1.6450    3.0870 hc        1 KGR      0.072700
@<TRIPOS>BOND
     1    1    3 1   
     2    2    3 1   
     3    3    4 1   
     4    4    5 1   
     5    4    6 1   
     6    4   14 1   
     7    5   15 1   
     8    6    7 1   
     9    6    8 1   
    10    6   16 1   
    11    7   17 1   
    12    8   10 1   
    13    8   18 1   
    14    8   19 1   
    15    9   10 2   
    16   10   11 1   
    17   11   12 1   
    18   11   13 1   
@<TRIPOS>SUBSTRUCTURE
     1 KGR         1 TEMP              0 ****  ****    0 ROOT
