@<TRIPOS>MOLECULE
KGT
   32    31     1     0     0
SMALL
bcc


@<TRIPOS>ATOM
      1 C01         3.2430   -0.1590    0.0000 c3        1 KGT     -0.193400
      2 C02         2.2250   -0.9080    0.8290 c3        1 KGT     -0.141400
      3 C03         0.9480   -0.1160    1.0280 c         1 KGT      0.658100
      4 O04         0.6940    0.4540    2.1120 o         1 KGT     -0.643100
      5 N05         0.0770   -0.0160   -0.0420 n         1 KGT     -0.561900
      6 C06        -1.2630    0.5000    0.0930 c3        1 KGT      0.024700
      7 C07        -1.4520    1.8710   -0.5630 c3        1 KGT      0.009700
      8 S08        -0.7560    3.2270    0.3430 sh        1 KGT     -0.439900
      9 C09        -2.3030   -0.4550   -0.5700 c         1 KGT      0.623100
     10 O10        -1.9580   -1.1880   -1.5270 o         1 KGT     -0.655100
     11 N11        -3.5550   -0.4660   -0.0340 n         1 KGT     -0.512900
     12 C12        -4.6590   -1.1620   -0.6440 c3        1 KGT     -0.051000
     13 C13        -6.0510   -0.5810   -0.2610 c         1 KGT      0.907600
     14 O14        -6.1090    0.4360    0.4870 o         1 KGT     -0.839300
     15 O15        -7.0510   -1.1830   -0.7370 o         1 KGT     -0.839300
     16 C16         4.5520   -0.9010   -0.1220 c         1 KGT      0.470100
     17 C17         5.6440   -0.1290   -0.8800 c         1 KGT      0.855600
     18 O18         6.3840    0.6330   -0.2000 o         1 KGT     -0.815800
     19 O19         5.7040   -0.2920   -2.1270 o         1 KGT     -0.815800
     20 O20         4.7050   -2.0300    0.3600 o         1 KGT     -0.595100
     21 H1          2.8570    0.0200   -1.0380 hc        1 KGT      0.073700
     22 H2          3.4630    0.8410    0.4600 hc        1 KGT      0.073700
     23 H3          2.0010   -1.8970    0.3500 hc        1 KGT      0.073700
     24 H4          2.6560   -1.1170    1.8450 hc        1 KGT      0.073700
     25 H5          0.2540   -0.5530   -0.8630 hn        1 KGT      0.332500
     26 H6         -1.4910    0.6010    1.2000 h1        1 KGT      0.099700
     27 H7         -1.0320    1.8690   -1.5980 h1        1 KGT      0.083200
     28 H8         -2.5460    2.1010   -0.6290 h1        1 KGT      0.083200
     29 H9          0.2340    2.6070    0.9810 hs        1 KGT      0.249800
     30 H10        -3.8220    0.2430    0.6200 hn        1 KGT      0.332500
     31 H11        -4.5590   -1.1380   -1.7640 h1        1 KGT      0.040200
     32 H12        -4.6260   -2.2390   -0.3220 h1        1 KGT      0.040200
@<TRIPOS>BOND
     1    1    2 1   
     2    1   16 1   
     3    1   21 1   
     4    1   22 1   
     5    2    3 1   
     6    2   23 1   
     7    2   24 1   
     8    3    4 2   
     9    3    5 1   
    10    5    6 1   
    11    5   25 1   
    12    6    7 1   
    13    6    9 1   
    14    6   26 1   
    15    7    8 1   
    16    7   27 1   
    17    7   28 1   
    18    8   29 1   
    19    9   10 2   
    20    9   11 1   
    21   11   12 1   
    22   11   30 1   
    23   12   13 1   
    24   12   31 1   
    25   12   32 1   
    26   13   14 1   
    27   13   15 1   
    28   16   17 1   
    29   16   20 2   
    30   17   18 1   
    31   17   19 1   
@<TRIPOS>SUBSTRUCTURE
     1 KGT         1 TEMP              0 ****  ****    0 ROOT
