@<TRIPOS>MOLECULE
KGT
   32    31     1     0     0
SMALL
bcc


@<TRIPOS>ATOM
      1 C01         0.4270   -0.1510   -0.0710 c3        1 KGT     -0.193400
      2 C02         1.1370    1.0610    0.4860 c3        1 KGT     -0.141400
      3 C03         1.7140    0.8090    1.8640 c         1 KGT      0.658100
      4 O04         1.1660    1.2590    2.8950 o         1 KGT     -0.643100
      5 N05         2.8570    0.0360    1.9550 n         1 KGT     -0.561900
      6 C06         3.6260   -0.0750    3.1710 c3        1 KGT      0.024700
      7 C07         3.5200   -1.4530    3.8310 c3        1 KGT      0.009700
      8 S08         1.9910   -1.7500    4.6800 sh        1 KGT     -0.439900
      9 C09         5.1420    0.1700    2.9000 c         1 KGT      0.623100
     10 O10         5.6270   -0.0870    1.7730 o         1 KGT     -0.655100
     11 N11         5.8710    0.6990    3.9240 n         1 KGT     -0.512900
     12 C12         7.3050    0.8180    3.8800 c3        1 KGT     -0.051000
     13 C13         7.9710    0.8540    5.2860 c         1 KGT      0.907600
     14 O14         7.2450    0.7390    6.3140 o         1 KGT     -0.839300
     15 O15         9.2230    0.9990    5.3010 o         1 KGT     -0.839300
     16 C16        -0.2320    0.1210   -1.4020 c         1 KGT      0.470100
     17 C17        -1.0440   -1.0610   -1.9550 c         1 KGT      0.855600
     18 O18        -2.2540   -1.1350   -1.6130 o         1 KGT     -0.815800
     19 O19        -0.4350   -1.8840   -2.6890 o         1 KGT     -0.815800
     20 O20        -0.1130    1.2120   -1.9720 o         1 KGT     -0.595100
     21 H1         -0.3730   -0.4960    0.6370 hc        1 KGT      0.073700
     22 H2          1.1440   -1.0020   -0.2150 hc        1 KGT      0.073700
     23 H3          1.9450    1.3840   -0.2230 hc        1 KGT      0.073700
     24 H4          0.4080    1.9110    0.5730 hc        1 KGT      0.073700
     25 H5          3.3270   -0.2350    1.1190 hn        1 KGT      0.332500
     26 H6          3.2400    0.7020    3.9020 h1        1 KGT      0.099700
     27 H7          4.3090   -1.5460    4.6190 h1        1 KGT      0.083200
     28 H8          3.6810   -2.2600    3.0770 h1        1 KGT      0.083200
     29 H9          1.1730   -0.9620    3.9850 hs        1 KGT      0.249800
     30 H10         5.4780    0.7390    4.8430 hn        1 KGT      0.332500
     31 H11         7.5710    1.7680    3.3400 h1        1 KGT      0.040200
     32 H12         7.7460   -0.0380    3.2990 h1        1 KGT      0.040200
@<TRIPOS>BOND
     1    1    2 1   
     2    1   16 1   
     3    1   21 1   
     4    1   22 1   
     5    2    3 1   
     6    2   23 1   
     7    2   24 1   
     8    3    4 2   
     9    3    5 1   
    10    5    6 1   
    11    5   25 1   
    12    6    7 1   
    13    6    9 1   
    14    6   26 1   
    15    7    8 1   
    16    7   27 1   
    17    7   28 1   
    18    8   29 1   
    19    9   10 2   
    20    9   11 1   
    21   11   12 1   
    22   11   30 1   
    23   12   13 1   
    24   12   31 1   
    25   12   32 1   
    26   13   14 1   
    27   13   15 1   
    28   16   17 1   
    29   16   20 2   
    30   17   18 1   
    31   17   19 1   
@<TRIPOS>SUBSTRUCTURE
     1 KGT         1 TEMP              0 ****  ****    0 ROOT
