@<TRIPOS>MOLECULE
KGW
   60    63     1     0     0
SMALL
bcc


@<TRIPOS>ATOM
      1 CBC        -0.4010   -0.6830    0.0040 c3        1 KGW      0.153300
      2 CBE         1.0530   -0.6550   -0.4920 c3        1 KGW      0.113900
      3 OBG         1.8740    0.1470    0.3390 os        1 KGW     -0.369600
      4 CBF         1.4370    1.4950    0.3350 c3        1 KGW      0.113900
      5 CBD         0.0130    1.6310    0.8910 c3        1 KGW      0.153300
      6 NBB        -0.9200    0.5920    0.4790 nh        1 KGW     -0.588000
      7 CBA        -2.2370    0.7040    0.8040 ca        1 KGW      0.303600
      8 CAY        -2.7640    1.8860    1.4160 ca        1 KGW     -0.305000
      9 CAS        -4.1090    2.0020    1.7170 ca        1 KGW      0.264100
     10 OAT        -4.6780    3.0980    2.3130 os        1 KGW     -0.367900
     11 CAU        -3.8010    4.1480    2.7480 c3        1 KGW      0.115700
     12 CAX        -3.1770   -0.3610    0.5300 ca        1 KGW     -0.212000
     13 CAR        -4.5050   -0.2440    0.8290 ca        1 KGW     -0.024000
     14 CAL        -5.0140    0.9270    1.4490 ca        1 KGW     -0.262400
     15 NAH        -6.3930    1.0080    1.8610 n4        1 KGW     -0.550100
     16 C2         -7.3200    1.4720    0.7620 ca        1 KGW      0.792900
     17 N3         -8.3050    0.5940    0.3490 nb        1 KGW     -0.709000
     18 N1         -7.1240    2.7300    0.2420 nb        1 KGW     -0.602000
     19 C6         -7.9900    3.0870   -0.7440 ca        1 KGW      0.735900
     20 C4         -9.1200    1.0920   -0.6410 ca        1 KGW      0.775900
     21 NAE       -10.2520    0.2020   -1.0750 n4        1 KGW     -0.634100
     22 CAJ       -10.3920    0.1140   -2.5380 ca        1 KGW      0.031600
     23 CAQ        -9.5540   -0.7970   -3.1980 ca        1 KGW     -0.095000
     24 CAW        -9.6500   -0.9750   -4.5830 ca        1 KGW     -0.025000
     25 CAZ       -10.5770   -0.2370   -5.3130 ca        1 KGW     -0.058000
     26 CAV       -11.4140    0.6740   -4.6610 ca        1 KGW     -0.065000
     27 CAP       -11.3500    0.8730   -3.2750 ca        1 KGW     -0.155600
     28 CAO       -12.2560    1.8230   -2.6060 c         1 KGW      0.569700
     29 OAI       -12.2960    2.0550   -1.3990 o         1 KGW     -0.456100
     30 NAN       -13.2450    2.5860   -3.4470 n4        1 KGW     -0.655800
     31 NAQ        -9.0160    2.3230   -1.2330 nb        1 KGW     -0.679000
     32 CAM       -14.1360    3.4780   -2.6530 c3        1 KGW      0.082100
     33 HBC1       -1.0380   -1.0350   -0.8580 h1        1 KGW      0.070700
     34 HBC2       -0.4800   -1.4310    0.8460 h1        1 KGW      0.070700
     35 HBE1        1.4920   -1.6870   -0.4190 h1        1 KGW      0.084700
     36 HBE2        1.0980   -0.2900   -1.5520 h1        1 KGW      0.084700
     37 HBF1        2.1570    2.0310    1.0110 h1        1 KGW      0.084700
     38 HBF2        1.4940    1.9180   -0.7030 h1        1 KGW      0.084700
     39 HBD1        0.0650    1.6290    2.0200 h1        1 KGW      0.070700
     40 HBD2       -0.3840    2.6300    0.5470 h1        1 KGW      0.070700
     41 HAY        -2.0910    2.7190    1.6770 ha        1 KGW      0.178000
     42 HAX        -2.8220   -1.3080    0.0890 ha        1 KGW      0.172000
     43 HAU1       -4.5050    4.8700    3.2380 h1        1 KGW      0.075367
     44 HAU2       -3.2980    4.6150    1.8670 h1        1 KGW      0.075367
     45 HAU3       -3.0580    3.7520    3.4810 h1        1 KGW      0.075367
     46 HAR        -5.1800   -1.0890    0.6140 ha        1 KGW      0.139000
     47 HAH        -6.4640    1.7070    2.6280 hn        1 KGW      0.496800
     48 H6         -7.8540    4.1060   -1.1940 h5        1 KGW      0.137100
     49 HAE       -11.1170    0.5740   -0.6380 hn        1 KGW      0.503800
     50 HAQ        -8.8100   -1.4020   -2.6450 ha        1 KGW      0.186000
     51 HAW        -8.9870   -1.7060   -5.0900 ha        1 KGW      0.214000
     52 HAZ       -10.6580   -0.3720   -6.4110 ha        1 KGW      0.215000
     53 HAV       -12.1290    1.2230   -5.2990 ha        1 KGW      0.163000
     54 HAN       -13.8270    1.9100   -3.9640 hn        1 KGW      0.480300
     55 HAM1      -14.7260    2.8650   -1.9170 hx        1 KGW      0.131367
     56 HAM2      -14.8360    4.0030   -3.3620 hx        1 KGW      0.131367
     57 HAM3      -13.5170    4.2320   -2.0940 hx        1 KGW      0.131367
     58 HAH2       -6.7050    0.0820    2.1930 hn        1 KGW      0.496800
     59 HAE2      -10.0870   -0.7550   -0.7060 hn        1 KGW      0.503800
     60 HAN2      -12.7240    3.1550   -4.1310 hn        1 KGW      0.480300
@<TRIPOS>BOND
     1    1    2 1   
     2    1    6 1   
     3    1   33 1   
     4    1   34 1   
     5    2    3 1   
     6    2   35 1   
     7    2   36 1   
     8    3    4 1   
     9    4    5 1   
    10    4   37 1   
    11    4   38 1   
    12    5    6 1   
    13    5   39 1   
    14    5   40 1   
    15    6    7 1   
    16    7    8 ar  
    17    7   12 ar  
    18    8    9 ar  
    19    8   41 1   
    20    9   10 1   
    21    9   14 ar  
    22   10   11 1   
    23   11   43 1   
    24   11   44 1   
    25   11   45 1   
    26   12   13 ar  
    27   12   42 1   
    28   13   14 ar  
    29   13   46 1   
    30   14   15 1   
    31   15   16 1   
    32   15   47 1   
    33   15   58 1   
    34   16   17 ar  
    35   16   18 ar  
    36   17   20 ar  
    37   18   19 ar  
    38   19   31 ar  
    39   19   48 1   
    40   20   21 1   
    41   20   31 ar  
    42   21   22 1   
    43   21   49 1   
    44   21   59 1   
    45   22   23 ar  
    46   22   27 ar  
    47   23   24 ar  
    48   23   50 1   
    49   24   25 ar  
    50   24   51 1   
    51   25   26 ar  
    52   25   52 1   
    53   26   27 ar  
    54   26   53 1   
    55   27   28 1   
    56   28   29 2   
    57   28   30 1   
    58   30   32 1   
    59   30   54 1   
    60   30   60 1   
    61   32   55 1   
    62   32   56 1   
    63   32   57 1   
@<TRIPOS>SUBSTRUCTURE
     1 KGW         1 TEMP              0 ****  ****    0 ROOT
