@<TRIPOS>MOLECULE
KGW
   58    61     1     0     0
SMALL
bcc


@<TRIPOS>ATOM
      1 CBC         0.1890    0.7780   -0.3080 c3        1 KGW      0.153800
      2 CBE         1.6230    1.3270   -0.3140 c3        1 KGW      0.121900
      3 OBG         2.2200    1.2460    0.9740 os        1 KGW     -0.404600
      4 CBF         1.4600    1.9390    1.9550 c3        1 KGW      0.121900
      5 CBD         0.0210    1.4100    2.0330 c3        1 KGW      0.153800
      6 NBB        -0.6310    1.3810    0.7310 nh        1 KGW     -0.638000
      7 CBA        -2.0050    1.0680    0.7190 ca        1 KGW      0.201600
      8 CAY        -2.8860    1.7260    1.6110 ca        1 KGW     -0.237000
      9 CAS        -4.2600    1.5060    1.5450 ca        1 KGW      0.145100
     10 OAT        -5.1690    2.1250    2.3840 os        1 KGW     -0.347900
     11 CAU        -4.6340    2.9260    3.4330 c3        1 KGW      0.116700
     12 CAX        -2.5660    0.1720   -0.2210 ca        1 KGW     -0.215000
     13 CAR        -3.9350   -0.0460   -0.2820 ca        1 KGW     -0.037000
     14 CAL        -4.8190    0.6080    0.5910 ca        1 KGW      0.028600
     15 NAH        -6.2110    0.3380    0.5780 nu        1 KGW     -0.660300
     16 C2         -7.0080    0.6080   -0.5250 ca        1 KGW      0.922900
     17 N3         -8.3930    0.5810   -0.3170 nb        1 KGW     -0.814000
     18 N1         -6.4260    0.8020   -1.7850 nb        1 KGW     -0.756000
     19 C6         -7.3040    0.9470   -2.7950 ca        1 KGW      0.701900
     20 C4         -9.1570    0.7520   -1.4440 ca        1 KGW      0.869900
     21 NAE       -10.5760    0.8390   -1.2600 nu        1 KGW     -0.735300
     22 CAJ       -11.3910    0.2010   -2.2340 ca        1 KGW      0.186600
     23 CAQ       -11.1400   -1.0880   -2.7450 ca        1 KGW     -0.128000
     24 CAW       -11.9870   -1.6460   -3.6970 ca        1 KGW     -0.056000
     25 CAZ       -13.1000   -0.9410   -4.1650 ca        1 KGW     -0.119000
     26 CAV       -13.3600    0.3390   -3.6870 ca        1 KGW     -0.090000
     27 CAP       -12.5120    0.9100   -2.7320 ca        1 KGW     -0.204600
     28 CAO       -12.7870    2.2560   -2.2150 c         1 KGW      0.601700
     29 OAI       -13.1810    2.6310   -1.1270 o         1 KGW     -0.394100
     30 NAN       -12.5140    3.3680   -3.2300 ny        1 KGW     -0.678800
     31 NAQ        -8.6650    0.9370   -2.7280 nb        1 KGW     -0.826000
     32 CAM       -11.0900    3.7710   -3.2020 c3        1 KGW      0.079100
     33 HBC1        0.2380   -0.3440   -0.1870 h1        1 KGW      0.050700
     34 HBC2       -0.2770    1.0100   -1.3070 h1        1 KGW      0.050700
     35 HBE1        1.6380    2.3900   -0.6720 h1        1 KGW      0.061700
     36 HBE2        2.2730    0.6880   -0.9670 h1        1 KGW      0.061700
     37 HBF1        1.4670    3.0380    1.7320 h1        1 KGW      0.061700
     38 HBF2        1.9930    1.7350    2.9210 h1        1 KGW      0.061700
     39 HBD1       -0.5570    2.0840    2.7220 h1        1 KGW      0.050700
     40 HBD2        0.0430    0.3770    2.4870 h1        1 KGW      0.050700
     41 HAY        -2.4910    2.4410    2.3470 ha        1 KGW      0.150000
     42 HAX        -1.9270   -0.3810   -0.9260 ha        1 KGW      0.145000
     43 HAU1       -4.0980    3.8120    3.0140 h1        1 KGW      0.051700
     44 HAU2       -3.9570    2.3240    4.0860 h1        1 KGW      0.051700
     45 HAU3       -5.5450    3.2480    3.9990 h1        1 KGW      0.051700
     46 HAR        -4.3250   -0.7560   -1.0300 ha        1 KGW      0.151000
     47 HAH        -6.6530    0.4030    1.4760 hn        1 KGW      0.464800
     48 H6         -6.8670    1.0950   -3.8070 h5        1 KGW      0.065100
     49 HAE       -10.8740    0.6400   -0.3190 hn        1 KGW      0.450800
     50 HAQ       -10.2620   -1.6550   -2.3910 ha        1 KGW      0.172000
     51 HAW       -11.7800   -2.6590   -4.0830 ha        1 KGW      0.168000
     52 HAZ       -13.7720   -1.3980   -4.9090 ha        1 KGW      0.167000
     53 HAV       -14.2450    0.8880   -4.0440 ha        1 KGW      0.143000
     54 HAN       -12.7550    3.0240   -4.1660 hn        1 KGW      0.454300
     55 HAM1      -10.4420    2.8810   -3.4370 hx        1 KGW      0.115700
     56 HAM2      -10.8350    4.1530   -2.1760 hx        1 KGW      0.115700
     57 HAM3      -10.9180    4.5790   -3.9620 hx        1 KGW      0.115700
     58 HAN2      -13.1010    4.1810   -3.0100 hn        1 KGW      0.454300
@<TRIPOS>BOND
     1    1    2 1   
     2    1    6 1   
     3    1   33 1   
     4    1   34 1   
     5    2    3 1   
     6    2   35 1   
     7    2   36 1   
     8    3    4 1   
     9    4    5 1   
    10    4   37 1   
    11    4   38 1   
    12    5    6 1   
    13    5   39 1   
    14    5   40 1   
    15    6    7 1   
    16    7    8 ar  
    17    7   12 ar  
    18    8    9 ar  
    19    8   41 1   
    20    9   10 1   
    21    9   14 ar  
    22   10   11 1   
    23   11   43 1   
    24   11   44 1   
    25   11   45 1   
    26   12   13 ar  
    27   12   42 1   
    28   13   14 ar  
    29   13   46 1   
    30   14   15 1   
    31   15   16 1   
    32   15   47 1   
    33   16   17 ar  
    34   16   18 ar  
    35   17   20 ar  
    36   18   19 ar  
    37   19   31 ar  
    38   19   48 1   
    39   20   21 1   
    40   20   31 ar  
    41   21   22 1   
    42   21   49 1   
    43   22   23 ar  
    44   22   27 ar  
    45   23   24 ar  
    46   23   50 1   
    47   24   25 ar  
    48   24   51 1   
    49   25   26 ar  
    50   25   52 1   
    51   26   27 ar  
    52   26   53 1   
    53   27   28 1   
    54   28   29 2   
    55   28   30 1   
    56   30   32 1   
    57   30   54 1   
    58   30   58 1   
    59   32   55 1   
    60   32   56 1   
    61   32   57 1   
@<TRIPOS>SUBSTRUCTURE
     1 KGW         1 TEMP              0 ****  ****    0 ROOT
