@<TRIPOS>MOLECULE
KGW
   58    61     1     0     0
SMALL
bcc


@<TRIPOS>ATOM
      1 CBC         0.1910    0.8010   -0.3120 c3        1 KGW      0.153800
      2 CBE         1.6220    1.3570   -0.3160 c3        1 KGW      0.121900
      3 OBG         2.2200    1.2740    0.9700 os        1 KGW     -0.404600
      4 CBF         1.4580    1.9610    1.9540 c3        1 KGW      0.121900
      5 CBD         0.0210    1.4260    2.0310 c3        1 KGW      0.153800
      6 NBB        -0.6310    1.3990    0.7290 nh        1 KGW     -0.638000
      7 CBA        -2.0040    1.0800    0.7170 ca        1 KGW      0.201600
      8 CAY        -2.8870    1.7320    1.6110 ca        1 KGW     -0.237000
      9 CAS        -4.2600    1.5080    1.5450 ca        1 KGW      0.145100
     10 OAT        -5.1710    2.1210    2.3860 os        1 KGW     -0.347900
     11 CAU        -4.6390    2.9210    3.4380 c3        1 KGW      0.116700
     12 CAX        -2.5620    0.1840   -0.2240 ca        1 KGW     -0.215000
     13 CAR        -3.9300   -0.0390   -0.2850 ca        1 KGW     -0.037000
     14 CAL        -4.8170    0.6100    0.5900 ca        1 KGW      0.028600
     15 NAH        -6.2070    0.3350    0.5760 nh        1 KGW     -0.660300
     16 C2         -7.0060    0.6040   -0.5250 ca        1 KGW      0.922900
     17 N3         -8.3900    0.5720   -0.3180 nb        1 KGW     -0.814000
     18 N1         -6.4250    0.8030   -1.7860 nb        1 KGW     -0.756000
     19 C6         -7.3040    0.9470   -2.7940 ca        1 KGW      0.701900
     20 C4         -9.1560    0.7440   -1.4440 ca        1 KGW      0.869900
     21 NAE       -10.5750    0.8250   -1.2590 nh        1 KGW     -0.735300
     22 CAJ       -11.3880    0.1870   -2.2330 ca        1 KGW      0.186600
     23 CAQ       -11.1330   -1.1010   -2.7460 ca        1 KGW     -0.128000
     24 CAW       -11.9790   -1.6610   -3.6990 ca        1 KGW     -0.056000
     25 CAZ       -13.0940   -0.9590   -4.1650 ca        1 KGW     -0.119000
     26 CAV       -13.3580    0.3200   -3.6860 ca        1 KGW     -0.090000
     27 CAP       -12.5110    0.8930   -2.7300 ca        1 KGW     -0.204600
     28 CAO       -12.7900    2.2370   -2.2120 c         1 KGW      0.601700
     29 OAI       -13.1840    2.6100   -1.1230 o         1 KGW     -0.394100
     30 NAN       -12.5220    3.3510   -3.2260 n4        1 KGW     -0.678800
     31 NAQ        -8.6650    0.9320   -2.7280 nb        1 KGW     -0.826000
     32 CAM       -11.0980    3.7570   -3.2000 c3        1 KGW      0.079100
     33 HBC1       -0.2770    1.0340   -1.3090 h1        1 KGW      0.050700
     34 HBC2        0.2440   -0.3200   -0.1930 h1        1 KGW      0.050700
     35 HBE1        2.2740    0.7220   -0.9720 h1        1 KGW      0.061700
     36 HBE2        1.6330    2.4210   -0.6720 h1        1 KGW      0.061700
     37 HBF1        1.9930    1.7560    2.9180 h1        1 KGW      0.061700
     38 HBF2        1.4600    3.0610    1.7350 h1        1 KGW      0.061700
     39 HBD1        0.0480    0.3920    2.4820 h1        1 KGW      0.050700
     40 HBD2       -0.5590    2.0950    2.7230 h1        1 KGW      0.050700
     41 HAY        -2.4940    2.4470    2.3500 ha        1 KGW      0.150000
     42 HAX        -1.9210   -0.3650   -0.9300 ha        1 KGW      0.145000
     43 HAU1       -4.1060    3.8100    3.0200 h1        1 KGW      0.051700
     44 HAU2       -5.5510    3.2380    4.0040 h1        1 KGW      0.051700
     45 HAU3       -3.9590    2.3200    4.0880 h1        1 KGW      0.051700
     46 HAR        -4.3180   -0.7490   -1.0350 ha        1 KGW      0.151000
     47 HAH        -6.6490    0.3960    1.4750 hn        1 KGW      0.464800
     48 H6         -6.8680    1.0990   -3.8070 h5        1 KGW      0.065100
     49 HAE       -10.8710    0.6250   -0.3180 hn        1 KGW      0.450800
     50 HAQ       -10.2540   -1.6660   -2.3930 ha        1 KGW      0.172000
     51 HAW       -11.7690   -2.6730   -4.0850 ha        1 KGW      0.168000
     52 HAZ       -13.7650   -1.4170   -4.9100 ha        1 KGW      0.167000
     53 HAV       -14.2450    0.8670   -4.0420 ha        1 KGW      0.143000
     54 HAN       -13.1100    4.1630   -3.0050 hn        1 KGW      0.454300
     55 HAM1      -10.4480    2.8690   -3.4370 hx        1 KGW      0.115700
     56 HAM2      -10.8430    4.1390   -2.1740 hx        1 KGW      0.115700
     57 HAM3      -10.9290    4.5660   -3.9600 hx        1 KGW      0.115700
     58 HAN2      -12.7620    3.0070   -4.1620 hn        1 KGW      0.454300
@<TRIPOS>BOND
     1    1    2 1   
     2    1    6 1   
     3    1   33 1   
     4    1   34 1   
     5    2    3 1   
     6    2   35 1   
     7    2   36 1   
     8    3    4 1   
     9    4    5 1   
    10    4   37 1   
    11    4   38 1   
    12    5    6 1   
    13    5   39 1   
    14    5   40 1   
    15    6    7 1   
    16    7    8 ar  
    17    7   12 ar  
    18    8    9 ar  
    19    8   41 1   
    20    9   10 1   
    21    9   14 ar  
    22   10   11 1   
    23   11   43 1   
    24   11   44 1   
    25   11   45 1   
    26   12   13 ar  
    27   12   42 1   
    28   13   14 ar  
    29   13   46 1   
    30   14   15 1   
    31   15   16 1   
    32   15   47 1   
    33   16   17 ar  
    34   16   18 ar  
    35   17   20 ar  
    36   18   19 ar  
    37   19   31 ar  
    38   19   48 1   
    39   20   21 1   
    40   20   31 ar  
    41   21   22 1   
    42   21   49 1   
    43   22   23 ar  
    44   22   27 ar  
    45   23   24 ar  
    46   23   50 1   
    47   24   25 ar  
    48   24   51 1   
    49   25   26 ar  
    50   25   52 1   
    51   26   27 ar  
    52   26   53 1   
    53   27   28 1   
    54   28   29 2   
    55   28   30 1   
    56   30   32 1   
    57   30   54 1   
    58   30   58 1   
    59   32   55 1   
    60   32   56 1   
    61   32   57 1   
@<TRIPOS>SUBSTRUCTURE
     1 KGW         1 TEMP              0 ****  ****    0 ROOT
