@<TRIPOS>MOLECULE
KGW
   57    60     1     0     0
SMALL
bcc


@<TRIPOS>ATOM
      1 CBC        -6.7400   -1.5090    0.2650 c3        1 KGW      0.150300
      2 CBE        -8.1140   -1.5490    0.9480 c3        1 KGW      0.123400
      3 OBG        -8.9890   -0.5560    0.4270 os        1 KGW     -0.413600
      4 CBF        -8.4390    0.7510    0.5350 c3        1 KGW      0.123400
      5 CBD        -7.0710    0.8510   -0.1530 c3        1 KGW      0.150300
      6 NBB        -6.1510   -0.1790    0.3110 nh        1 KGW     -0.633000
      7 CBA        -4.8190   -0.0660   -0.1640 ca        1 KGW      0.166600
      8 CAY        -4.1100    1.1370    0.0590 ca        1 KGW     -0.222000
      9 CAS        -2.7710    1.2470   -0.3090 ca        1 KGW      0.124100
     10 OAT        -2.0310    2.4040   -0.1360 os        1 KGW     -0.340900
     11 CAU        -2.6250    3.4330    0.6450 c3        1 KGW      0.118700
     12 CAX        -4.1370   -1.1330   -0.7810 ca        1 KGW     -0.205000
     13 CAR        -2.8030   -1.0180   -1.1530 ca        1 KGW     -0.048000
     14 CAL        -2.0800    0.1650   -0.9310 ca        1 KGW      0.065600
     15 NAH        -0.7430    0.3060   -1.3790 nh        1 KGW     -0.677300
     16 C2          0.2860   -0.4780   -0.8210 ca        1 KGW      0.906900
     17 N3          1.5770    0.0050   -0.9770 nb        1 KGW     -0.814000
     18 N1         -0.0230   -1.7010   -0.2240 nb        1 KGW     -0.786000
     19 C6          1.0570   -2.4100    0.1740 ca        1 KGW      0.698900
     20 C4          2.5870   -0.8390   -0.5410 ca        1 KGW      0.918900
     21 NAE         3.9010   -0.3850   -0.7790 nh        1 KGW     -0.704300
     22 CAJ         5.0370   -1.0070   -0.2230 ca        1 KGW      0.194600
     23 CAQ         5.2460   -2.4000   -0.3520 ca        1 KGW     -0.125000
     24 CAW         6.3930   -2.9940    0.1600 ca        1 KGW     -0.096000
     25 CAZ         7.3710   -2.2270    0.7930 ca        1 KGW     -0.154000
     26 CAV         7.2040   -0.8500    0.8910 ca        1 KGW     -0.093000
     27 CAP         6.0580   -0.2290    0.3830 ca        1 KGW     -0.182600
     28 CAO         5.9200    1.2530    0.5020 c         1 KGW      0.668700
     29 OAI         4.8540    1.7980    0.8590 o         1 KGW     -0.614100
     30 NAN         7.0270    2.0100    0.1770 n         1 KGW     -0.570900
     31 NAQ         2.3650   -2.0750    0.0590 nb        1 KGW     -0.797000
     32 CAM         7.0470    3.4350    0.2650 c3        1 KGW      0.078300
     33 HBC1       -6.0520   -2.2170    0.8050 h1        1 KGW      0.048450
     34 HBC2       -6.8630   -1.8710   -0.7970 h1        1 KGW      0.048450
     35 HBE1       -8.6250   -2.5210    0.7210 h1        1 KGW      0.056450
     36 HBE2       -8.0110   -1.4160    2.0570 h1        1 KGW      0.056450
     37 HBF1       -9.1800    1.4110    0.0120 h1        1 KGW      0.056450
     38 HBF2       -8.3610    1.0380    1.6170 h1        1 KGW      0.056450
     39 HBD1       -7.2270    0.7820   -1.2690 h1        1 KGW      0.048450
     40 HBD2       -6.6330    1.8610    0.0760 h1        1 KGW      0.048450
     41 HAY        -4.6090    1.9850    0.5510 ha        1 KGW      0.144000
     42 HAX        -4.6470   -2.0870   -0.9850 ha        1 KGW      0.138000
     43 HAU1       -2.9160    3.0520    1.6530 h1        1 KGW      0.047033
     44 HAU2       -1.8080    4.1950    0.7290 h1        1 KGW      0.047033
     45 HAU3       -3.5100    3.8630    0.1150 h1        1 KGW      0.047033
     46 HAR        -2.3100   -1.8790   -1.6330 ha        1 KGW      0.156000
     47 HAH        -0.4840    1.2590   -1.5620 hn        1 KGW      0.449800
     48 H6          0.8480   -3.3870    0.6610 h5        1 KGW      0.054100
     49 HAE         3.9730    0.6150   -0.8740 hn        1 KGW      0.461800
     50 HAQ         4.5000   -3.0320   -0.8590 ha        1 KGW      0.162000
     51 HAW         6.5270   -4.0820    0.0620 ha        1 KGW      0.138000
     52 HAZ         8.2680   -2.7060    1.2100 ha        1 KGW      0.138000
     53 HAV         7.9760   -0.2490    1.3950 ha        1 KGW      0.135000
     54 HAN         7.8550    1.5530   -0.1200 hn        1 KGW      0.313500
     55 HAM1        7.8350    3.7660    0.9960 h1        1 KGW      0.045700
     56 HAM2        7.2820    3.8790   -0.7400 h1        1 KGW      0.045700
     57 HAM3        6.0480    3.8180    0.6090 h1        1 KGW      0.045700
@<TRIPOS>BOND
     1    1    2 1   
     2    1    6 1   
     3    1   33 1   
     4    1   34 1   
     5    2    3 1   
     6    2   35 1   
     7    2   36 1   
     8    3    4 1   
     9    4    5 1   
    10    4   37 1   
    11    4   38 1   
    12    5    6 1   
    13    5   39 1   
    14    5   40 1   
    15    6    7 1   
    16    7    8 ar  
    17    7   12 ar  
    18    8    9 ar  
    19    8   41 1   
    20    9   10 1   
    21    9   14 ar  
    22   10   11 1   
    23   11   43 1   
    24   11   44 1   
    25   11   45 1   
    26   12   13 ar  
    27   12   42 1   
    28   13   14 ar  
    29   13   46 1   
    30   14   15 1   
    31   15   16 1   
    32   15   47 1   
    33   16   17 ar  
    34   16   18 ar  
    35   17   20 ar  
    36   18   19 ar  
    37   19   31 ar  
    38   19   48 1   
    39   20   21 1   
    40   20   31 ar  
    41   21   22 1   
    42   21   49 1   
    43   22   23 ar  
    44   22   27 ar  
    45   23   24 ar  
    46   23   50 1   
    47   24   25 ar  
    48   24   51 1   
    49   25   26 ar  
    50   25   52 1   
    51   26   27 ar  
    52   26   53 1   
    53   27   28 1   
    54   28   29 2   
    55   28   30 1   
    56   30   32 1   
    57   30   54 1   
    58   32   55 1   
    59   32   56 1   
    60   32   57 1   
@<TRIPOS>SUBSTRUCTURE
     1 KGW         1 TEMP              0 ****  ****    0 ROOT
