@<TRIPOS>MOLECULE
KGY
   62    64     1     0     0
SMALL
bcc


@<TRIPOS>ATOM
      1 S1          6.0580    1.8370   -0.1260 sy        1 KGY      1.543200
      2 C2          5.3610    1.6880   -1.6350 cc        1 KGY     -0.636100
      3 O3          7.2510    1.0760   -0.1460 o         1 KGY     -0.652800
      4 O4          6.1790    3.2060    0.1870 o         1 KGY     -0.652800
      5 C5          4.3330    2.5580   -2.2370 cc        1 KGY      0.417600
      6 C6          5.6400    0.7730   -2.6480 cd        1 KGY      0.438000
      7 N7          4.0750    2.1300   -3.4870 nd        1 KGY     -0.371300
      8 C8          3.7070    3.7160   -1.5690 c3        1 KGY     -0.163400
      9 O9          4.8340    1.0790   -3.7510 os        1 KGY     -0.113100
     10 C10         6.5560   -0.3610   -2.7810 c3        1 KGY     -0.182400
     11 N11         4.9850    1.1370    0.8760 n3        1 KGY     -0.811500
     12 C12         4.9190   -0.2870    1.0750 c3        1 KGY      0.221300
     13 C13         3.5290   -0.8770    0.8300 c3        1 KGY     -0.098400
     14 C14         2.4650   -0.1760    1.6740 c3        1 KGY     -0.055000
     15 C15         2.5590    1.3360    1.4120 c3        1 KGY     -0.098400
     16 C16         3.9780    1.8780    1.5930 c3        1 KGY      0.221300
     17 C17         2.6790   -0.4260    3.1740 c         1 KGY      0.589100
     18 C18         1.0570   -0.6250    1.2830 c3        1 KGY     -0.301600
     19 O19         2.7550    0.5000    3.9960 o         1 KGY     -0.553100
     20 N20         2.6020   -1.7750    3.6220 n         1 KGY     -0.372400
     21 S21         0.5690   -2.2860    1.4130 sy        1 KGY      1.394300
     22 O22        -0.2420   -2.4190    2.5460 o         1 KGY     -0.655800
     23 O23         1.6900   -3.1280    1.2890 o         1 KGY     -0.655800
     24 C24        -0.3630   -2.3880    0.0370 ca        1 KGY     -0.446500
     25 C25         0.1920   -2.7830   -1.1870 ca        1 KGY      0.020000
     26 C26        -0.5810   -2.8970   -2.3360 ca        1 KGY     -0.212000
     27 C27        -1.9540   -2.6140   -2.2650 ca        1 KGY      0.202100
     28 C28        -2.5410   -2.2270   -1.0390 ca        1 KGY     -0.212000
     29 C29        -1.7440   -2.1230    0.0860 ca        1 KGY      0.020000
     30 O30        -2.8260   -2.6810   -3.3200 os        1 KGY     -0.311900
     31 C31        -2.2580   -3.0920   -4.5850 c3        1 KGY      0.222500
     32 C32        -3.3220   -3.1040   -5.5460 c1        1 KGY     -0.174100
     33 C33        -4.1980   -3.1200   -6.3620 c1        1 KGY     -0.069100
     34 C34        -5.2320   -3.1440   -7.3430 c3        1 KGY     -0.029000
     35 O35         3.0370   -1.9780    4.8650 oh        1 KGY     -0.425100
     36 H81         2.9380    3.3540   -0.8390 hc        1 KGY      0.075700
     37 H82         4.4880    4.2980   -1.0130 hc        1 KGY      0.075700
     38 H83         3.2060    4.3940   -2.3040 hc        1 KGY      0.075700
     39 H101        6.9740   -0.4070   -3.8180 hc        1 KGY      0.091700
     40 H102        7.3960   -0.2610   -2.0420 hc        1 KGY      0.091700
     41 H103        6.0050   -1.3160   -2.5790 hc        1 KGY      0.091700
     42 H121        5.2240   -0.5210    2.1380 h1        1 KGY      0.066450
     43 H122        5.6590   -0.7890    0.3860 h1        1 KGY      0.066450
     44 H131        3.2500   -0.7570   -0.2510 hc        1 KGY      0.066200
     45 H132        3.5710   -1.9780    1.0380 hc        1 KGY      0.066200
     46 H151        1.8890    1.8800    2.1280 hc        1 KGY      0.066200
     47 H152        2.2020    1.5420    0.3690 hc        1 KGY      0.066200
     48 H161        4.0030    2.9540    1.2500 h1        1 KGY      0.066450
     49 H162        4.2250    1.8570    2.6970 h1        1 KGY      0.066450
     50 H181        0.9010   -0.2700    0.2270 h1        1 KGY      0.117200
     51 H182        0.3440   -0.0130    1.9070 h1        1 KGY      0.117200
     52 HN20        3.0580   -2.4490    3.0110 hn        1 KGY      0.326500
     53 H25         1.2700   -3.0240   -1.2340 ha        1 KGY      0.156500
     54 H26        -0.1120   -3.2110   -3.2780 ha        1 KGY      0.156000
     55 H28        -3.6210   -2.0210   -1.0000 ha        1 KGY      0.156000
     56 H29        -2.2000   -1.8420    1.0540 ha        1 KGY      0.156500
     57 H311       -1.4600   -2.3550   -4.8810 h1        1 KGY      0.062700
     58 H312       -1.8130   -4.1190   -4.4670 h1        1 KGY      0.062700
     59 H341       -5.0020   -2.4290   -8.1750 hc        1 KGY      0.063033
     60 H342       -6.2110   -2.8480   -6.8820 hc        1 KGY      0.063033
     61 H343       -5.3410   -4.1720   -7.7760 hc        1 KGY      0.063033
     62 HO35        2.3090   -1.6870    5.4520 ho        1 KGY      0.435000
@<TRIPOS>BOND
     1    1    2 1   
     2    1    3 2   
     3    1    4 2   
     4    1   11 1   
     5    2    5 1   
     6    2    6 2   
     7    5    7 2   
     8    5    8 1   
     9    6    9 1   
    10    6   10 1   
    11    7    9 1   
    12    8   36 1   
    13    8   37 1   
    14    8   38 1   
    15   10   39 1   
    16   10   40 1   
    17   10   41 1   
    18   11   12 1   
    19   11   16 1   
    20   12   13 1   
    21   12   42 1   
    22   12   43 1   
    23   13   14 1   
    24   13   44 1   
    25   13   45 1   
    26   14   15 1   
    27   14   17 1   
    28   14   18 1   
    29   15   16 1   
    30   15   46 1   
    31   15   47 1   
    32   16   48 1   
    33   16   49 1   
    34   17   19 2   
    35   17   20 1   
    36   18   21 1   
    37   18   50 1   
    38   18   51 1   
    39   20   35 1   
    40   20   52 1   
    41   21   22 2   
    42   21   23 2   
    43   21   24 1   
    44   24   25 ar  
    45   24   29 ar  
    46   25   26 ar  
    47   25   53 1   
    48   26   27 ar  
    49   26   54 1   
    50   27   28 ar  
    51   27   30 1   
    52   28   29 ar  
    53   28   55 1   
    54   29   56 1   
    55   30   31 1   
    56   31   32 1   
    57   31   57 1   
    58   31   58 1   
    59   32   33 3   
    60   33   34 1   
    61   34   59 1   
    62   34   60 1   
    63   34   61 1   
    64   35   62 1   
@<TRIPOS>SUBSTRUCTURE
     1 KGY         1 TEMP              0 ****  ****    0 ROOT
