@<TRIPOS>MOLECULE
KGY
   63    65     1     0     0
SMALL
bcc


@<TRIPOS>ATOM
      1 S1          0.2870    0.2760   -0.6610 sy        1 KGY      1.557200
      2 C2          1.6530    0.1190    0.2440 cc        1 KGY     -0.683100
      3 O3          0.6610    0.5340   -1.9950 o         1 KGY     -0.639300
      4 O4         -0.5930   -0.7870   -0.4060 o         1 KGY     -0.639300
      5 C5          1.7600   -0.4320    1.6110 cc        1 KGY      0.413600
      6 C6          2.9830    0.3870   -0.0950 cd        1 KGY      0.463000
      7 N7          3.0530   -0.4360    1.9810 nd        1 KGY     -0.347300
      8 C8          0.6280   -0.9200    2.4250 c3        1 KGY     -0.163400
      9 O9          3.7890    0.0420    0.9910 os        1 KGY     -0.095100
     10 C10         3.6560    0.9010   -1.2890 c3        1 KGY     -0.191400
     11 N11        -0.4190    1.6610   -0.0750 n3        1 KGY     -0.802500
     12 C12        -0.0870    2.9560   -0.5870 c3        1 KGY      0.224800
     13 C13         0.1060    4.0370    0.4810 c3        1 KGY     -0.119400
     14 C14        -0.9560    4.0480    1.5760 c3        1 KGY     -0.033000
     15 C15        -1.1790    2.6140    2.0860 c3        1 KGY     -0.119400
     16 C16        -1.4370    1.6410    0.9360 c3        1 KGY      0.224800
     17 C17        -2.3280    4.5700    1.1490 c         1 KGY      0.556100
     18 C18        -0.4990    4.9230    2.7470 c3        1 KGY     -0.321600
     19 O19        -3.3690    4.5000    1.7830 o         1 KGY     -0.428100
     20 N20        -2.4690    5.2940   -0.1890 ny        1 KGY     -0.462300
     21 S21        -0.0410    6.5640    2.3610 sy        1 KGY      1.436300
     22 O22        -1.0710    6.9710    1.4680 o         1 KGY     -0.691300
     23 O23         1.2430    6.5220    1.8130 o         1 KGY     -0.691300
     24 C24        -0.1200    7.2800    3.8060 ca        1 KGY     -0.526500
     25 C25         1.0490    7.5080    4.5600 ca        1 KGY      0.038000
     26 C26         1.0150    8.1550    5.7830 ca        1 KGY     -0.213500
     27 C27        -0.2180    8.6050    6.2920 ca        1 KGY      0.247100
     28 C28        -1.4100    8.3980    5.5490 ca        1 KGY     -0.213500
     29 C29        -1.3430    7.7500    4.3350 ca        1 KGY      0.038000
     30 O30        -0.3900    9.2470    7.4750 os        1 KGY     -0.296900
     31 C31         0.8080    9.5060    8.2580 c3        1 KGY      0.230500
     32 C32         0.3920   10.1950    9.4410 c1        1 KGY     -0.206100
     33 C33         0.0650   10.7740   10.4370 c1        1 KGY     -0.028100
     34 C34        -0.3080   11.4640   11.6270 c3        1 KGY     -0.040000
     35 O35        -3.7440    5.3580   -0.6350 oh        1 KGY     -0.361300
     36 H81        -0.0840   -1.4960    1.7780 hc        1 KGY      0.076367
     37 H82         0.0900   -0.0500    2.8790 hc        1 KGY      0.076367
     38 H83         0.9770   -1.5890    3.2520 hc        1 KGY      0.076367
     39 H101        4.0810    1.9170   -1.0810 hc        1 KGY      0.099367
     40 H102        2.9360    0.9630   -2.1470 hc        1 KGY      0.099367
     41 H103        4.5030    0.2220   -1.5710 hc        1 KGY      0.099367
     42 H121        0.8710    2.8820   -1.1850 h1        1 KGY      0.059950
     43 H122       -0.8880    3.2780   -1.3170 h1        1 KGY      0.059950
     44 H131        0.1970    5.0400   -0.0150 hc        1 KGY      0.087450
     45 H132        1.0970    3.8580    0.9900 hc        1 KGY      0.087450
     46 H151       -0.2630    2.3020    2.6550 hc        1 KGY      0.087450
     47 H152       -2.0490    2.5870    2.7920 hc        1 KGY      0.087450
     48 H161       -1.5170    0.5930    1.3560 h1        1 KGY      0.059950
     49 H162       -2.4360    1.8940    0.4710 h1        1 KGY      0.059950
     50 H181        0.3790    4.4010    3.2200 h1        1 KGY      0.135200
     51 H182       -1.3030    4.9060    3.5320 h1        1 KGY      0.135200
     52 HN20       -1.9430    4.7890   -0.9280 hn        1 KGY      0.506300
     53 H25         2.0220    7.1700    4.1540 ha        1 KGY      0.155000
     54 H26         1.9500    8.3170    6.3400 ha        1 KGY      0.171500
     55 H28        -2.3640    8.7660    5.9570 ha        1 KGY      0.171500
     56 H29        -2.2680    7.6070    3.7480 ha        1 KGY      0.155000
     57 H311        1.2880    8.5200    8.5090 h1        1 KGY      0.068200
     58 H312        1.5060   10.1390    7.6430 h1        1 KGY      0.068200
     59 H341        0.0340   10.8980   12.5330 hc        1 KGY      0.071367
     60 H342       -1.4230   11.5760   11.6780 hc        1 KGY      0.071367
     61 H343        0.1530   12.4860   11.6500 hc        1 KGY      0.071367
     62 HO35       -4.3380    5.5710    0.1250 ho        1 KGY      0.481000
     63 H202       -2.0790    6.2660   -0.0890 hn        1 KGY      0.506300
@<TRIPOS>BOND
     1    1    2 1   
     2    1    3 2   
     3    1    4 2   
     4    1   11 1   
     5    2    5 1   
     6    2    6 2   
     7    5    7 2   
     8    5    8 1   
     9    6    9 1   
    10    6   10 1   
    11    7    9 1   
    12    8   36 1   
    13    8   37 1   
    14    8   38 1   
    15   10   39 1   
    16   10   40 1   
    17   10   41 1   
    18   11   12 1   
    19   11   16 1   
    20   12   13 1   
    21   12   42 1   
    22   12   43 1   
    23   13   14 1   
    24   13   44 1   
    25   13   45 1   
    26   14   15 1   
    27   14   17 1   
    28   14   18 1   
    29   15   16 1   
    30   15   46 1   
    31   15   47 1   
    32   16   48 1   
    33   16   49 1   
    34   17   19 2   
    35   17   20 1   
    36   18   21 1   
    37   18   50 1   
    38   18   51 1   
    39   20   35 1   
    40   20   52 1   
    41   20   63 1   
    42   21   22 2   
    43   21   23 2   
    44   21   24 1   
    45   24   25 ar  
    46   24   29 ar  
    47   25   26 ar  
    48   25   53 1   
    49   26   27 ar  
    50   26   54 1   
    51   27   28 ar  
    52   27   30 1   
    53   28   29 ar  
    54   28   55 1   
    55   29   56 1   
    56   30   31 1   
    57   31   32 1   
    58   31   57 1   
    59   31   58 1   
    60   32   33 3   
    61   33   34 1   
    62   34   59 1   
    63   34   60 1   
    64   34   61 1   
    65   35   62 1   
@<TRIPOS>SUBSTRUCTURE
     1 KGY         1 TEMP              0 ****  ****    0 ROOT
