@<TRIPOS>MOLECULE
KGY
   63    61     1     0     0
SMALL
bcc


@<TRIPOS>ATOM
      1 S1          0.1060    0.6000    0.0790 sy        1 KGY      1.568200
      2 C2          0.1140    0.1440   -1.4900 cc        1 KGY     -0.692100
      3 O3         -0.7020    1.7810    0.2100 o         1 KGY     -0.690300
      4 O4         -0.3080   -0.4430    0.9270 o         1 KGY     -0.690300
      5 C5          0.3710   -1.2230   -1.9990 cc        1 KGY      0.429600
      6 C6         -0.1570    0.8700   -2.6560 cd        1 KGY      0.463000
      7 N7          0.2410   -1.2190   -3.3370 nd        1 KGY     -0.338300
      8 C8          0.7130   -2.3900   -1.1630 c3        1 KGY     -0.168400
      9 O9         -0.0710    0.0040   -3.7410 os        1 KGY     -0.085100
     10 C10        -0.4860    2.2680   -2.9330 c3        1 KGY     -0.187400
     11 N11         1.6570    1.0100    0.4110 nh        1 KGY     -0.679300
     12 C12         2.2560    2.0820   -0.2660 c2        1 KGY      0.034000
     13 C13         3.3720    2.7450    0.0620 c2        1 KGY     -0.241000
     14 C14         2.1060    1.7750    3.3140 c1        1 KGY     -0.144100
     15 C15         2.0140    0.4290    2.8370 c3        1 KGY     -0.044300
     16 C16         2.4240    0.2470    1.3680 c3        1 KGY      0.219800
     17 C17        -1.8410    4.1480    2.8730 c1        1 KGY      0.770500
     18 C18         2.1760    2.8880    3.7540 c1        1 KGY     -0.183500
     19 O19        -2.8740    4.5410    3.2590 o         1 KGY     -0.217500
     20 N20        -0.6990    3.7520    2.4100 n3        1 KGY     -0.377400
     21 S21        -0.0240    5.5480    5.8780 sy        1 KGY      1.445300
     22 O22        -0.8530    5.0100    4.8480 o         1 KGY     -0.720300
     23 O23         1.3390    5.3760    5.5900 o         1 KGY     -0.720300
     24 C24        -0.4280    7.0680    6.2770 ca        1 KGY     -0.510500
     25 C25         0.5610    8.0070    6.6240 ca        1 KGY      0.034500
     26 C26         0.2400    9.3090    6.9680 ca        1 KGY     -0.212000
     27 C27        -1.1100    9.7070    6.9730 ca        1 KGY      0.237100
     28 C28        -2.1260    8.7810    6.6250 ca        1 KGY     -0.212000
     29 C29        -1.7740    7.4910    6.2890 ca        1 KGY      0.034500
     30 O30        -1.5590   10.9510    7.2910 os        1 KGY     -0.300900
     31 C31        -0.5530   11.9260    7.6750 c3        1 KGY      0.229500
     32 C32        -1.2430   13.1420    7.9820 c1        1 KGY     -0.200100
     33 C33        -1.8020   14.1680    8.2450 c1        1 KGY     -0.036100
     34 C34        -2.4530   15.3960    8.5620 c3        1 KGY     -0.038000
     35 O35        -3.0810    3.1660    1.0940 oh        1 KGY     -0.871000
     36 H81         0.6360   -3.3450   -1.7400 hc        1 KGY      0.083033
     37 H82         1.7640   -2.2880   -0.7890 hc        1 KGY      0.083033
     38 H83         0.0190   -2.4450   -0.2830 hc        1 KGY      0.083033
     39 H101       -1.2600    2.3350   -3.7420 hc        1 KGY      0.094700
     40 H102       -0.8730    2.7640   -2.0060 hc        1 KGY      0.094700
     41 H103        0.4320    2.8070   -3.2870 hc        1 KGY      0.094700
     42 H121        3.9860    2.5300    0.9450 ha        1 KGY      0.137500
     43 H122        1.6860    2.3670   -1.1790 h4        1 KGY      0.125000
     44 H131        3.7330    3.5650   -0.5730 ha        1 KGY      0.137500
     45 H132        0.1150    3.7950    3.0090 hn        1 KGY      0.388700
     46 H151        2.7000   -0.2240    3.4510 hc        1 KGY      0.088700
     47 H152        0.9660    0.0390    2.9870 hc        1 KGY      0.088700
     48 H161        3.5190    0.4930    1.2600 h1        1 KGY      0.072700
     49 H162        2.2950   -0.8500    1.1220 h1        1 KGY      0.072700
     50 H181       -0.3150    4.9720    6.9140 hs        1 KGY     -0.008200
     51 H182        2.2950    3.8580    4.1840 ha        1 KGY      0.197500
     52 HN20       -2.7120    2.5390    0.4580 ho        1 KGY      0.440500
     53 H25         1.6230    7.6940    6.6150 ha        1 KGY      0.155500
     54 H26         1.0400   10.0160    7.2330 ha        1 KGY      0.168500
     55 H28        -3.1760    9.1100    6.6350 ha        1 KGY      0.168500
     56 H29        -2.5640    6.7680    6.0150 ha        1 KGY      0.155500
     57 H311       -0.0000   11.5360    8.5740 h1        1 KGY      0.066700
     58 H312        0.1530   12.0680    6.8100 h1        1 KGY      0.066700
     59 H341       -3.5650   15.2820    8.4660 hc        1 KGY      0.070033
     60 H342       -2.1180   16.2100    7.8670 hc        1 KGY      0.070033
     61 H343       -2.2170   15.7060    9.6130 hc        1 KGY      0.070033
     62 HO35       -4.0310    3.0220    1.0610 ho        1 KGY      0.440500
     63 H202       -0.6760    3.2590    1.5200 hn        1 KGY      0.388700
@<TRIPOS>BOND
     1    1    2 1   
     2    1    3 2   
     3    1    4 2   
     4    1   11 1   
     5    2    5 1   
     6    2    6 2   
     7    5    7 2   
     8    5    8 1   
     9    6    9 1   
    10    6   10 1   
    11    7    9 1   
    12    8   36 1   
    13    8   37 1   
    14    8   38 1   
    15   10   39 1   
    16   10   40 1   
    17   10   41 1   
    18   11   12 1   
    19   11   16 1   
    20   12   13 2   
    21   12   43 1   
    22   13   42 1   
    23   13   44 1   
    24   14   15 1   
    25   14   18 3   
    26   15   16 1   
    27   15   46 1   
    28   15   47 1   
    29   16   48 1   
    30   16   49 1   
    31   17   19 2   
    32   17   20 2   
    33   18   51 1   
    34   20   45 1   
    35   20   63 1   
    36   21   22 2   
    37   21   23 2   
    38   21   24 1   
    39   21   50 1   
    40   24   25 ar  
    41   24   29 ar  
    42   25   26 ar  
    43   25   53 1   
    44   26   27 ar  
    45   26   54 1   
    46   27   28 ar  
    47   27   30 1   
    48   28   29 ar  
    49   28   55 1   
    50   29   56 1   
    51   30   31 1   
    52   31   32 1   
    53   31   57 1   
    54   31   58 1   
    55   32   33 3   
    56   33   34 1   
    57   34   59 1   
    58   34   60 1   
    59   34   61 1   
    60   35   52 1   
    61   35   62 1   
@<TRIPOS>SUBSTRUCTURE
     1 KGY         1 TEMP              0 ****  ****    0 ROOT
