@<TRIPOS>MOLECULE
KH1
   81    83     1     0     0
SMALL
bcc


@<TRIPOS>ATOM
      1 O2         -0.2920    1.0480    0.2260 oh        1 KH1     -0.599800
      2 C1          3.1560    2.5650    0.0630 c3        1 KH1      0.186300
      3 C2          1.6310    2.5230    0.0900 c3        1 KH1     -0.146400
      4 C3          1.1260    1.0860    0.1180 c3        1 KH1      0.146100
      5 C4          1.6700    0.3460    1.3380 c3        1 KH1     -0.035200
      6 C5          3.1610    0.3990    1.3700 ce        1 KH1     -0.075200
      7 C6          3.8730   -0.7230    1.6020 cf        1 KH1     -0.107000
      8 C7          5.3160   -0.8000    1.6210 cf        1 KH1     -0.153000
      9 C8          6.0430   -1.7410    2.2470 c2        1 KH1     -0.078400
     10 C9          5.4830   -2.8190    3.1200 c3        1 KH1     -0.044200
     11 C10         3.7550    1.7180    1.1590 ce        1 KH1     -0.069200
     12 C11         6.0800   -4.1950    2.8690 c3        1 KH1     -0.073400
     13 C12         7.5910   -4.2020    2.7210 c3        1 KH1     -0.065400
     14 C13         8.0330   -3.1550    1.7130 c3        1 KH1     -0.032000
     15 C14         7.5290   -1.7770    2.2190 c3        1 KH1     -0.038500
     16 C15         8.3340   -0.7710    1.4060 c3        1 KH1     -0.073400
     17 C16         9.6900   -1.4490    1.1850 c3        1 KH1     -0.076400
     18 C17         9.5550   -2.9120    1.6450 c3        1 KH1     -0.060700
     19 C18         7.4840   -3.4810    0.3340 c3        1 KH1     -0.083100
     20 C19         4.7660    2.1920    1.8980 c2        1 KH1     -0.193000
     21 O1          3.6710    2.0820   -1.1750 oh        1 KH1     -0.589800
     22 C20        10.3340   -3.8630    0.7370 c3        1 KH1      0.149100
     23 O4         10.0930   -5.1890    1.2270 os        1 KH1     -0.423600
     24 C22        10.2510   -6.1920    0.2270 c3        1 KH1      0.131400
     25 C23         9.9830   -7.5230    0.9090 c3        1 KH1     -0.083400
     26 C25         9.9280  -10.0340    0.5150 c3        1 KH1      0.153800
     27 O3         11.2250  -10.1950    1.0930 oh        1 KH1     -0.597800
     28 C26         9.6970  -11.0990   -0.5650 c3        1 KH1     -0.108900
     29 C27         8.8510  -10.1290    1.6030 c3        1 KH1     -0.108900
     30 C21        11.8240   -3.5680    0.7900 c3        1 KH1     -0.122100
     31 C24         9.9300   -8.6340   -0.1150 c3        1 KH1     -0.066400
     32 C28         8.6110  -11.5230    2.1210 c3        1 KH1     -0.093600
     33 C29        10.6660  -10.9990   -1.7130 c3        1 KH1     -0.093600
     34 HO2        -0.6400    1.5020   -0.5500 ho        1 KH1      0.398000
     35 HC1         3.4880    3.6380    0.1890 h1        1 KH1      0.034700
     36 HC21        1.2620    3.0650    0.9990 hc        1 KH1      0.052700
     37 HC22        1.2240    3.0500   -0.8110 hc        1 KH1      0.052700
     38 HC3         1.4480    0.5590   -0.8250 h1        1 KH1      0.048700
     39 HC41        1.2580    0.8220    2.2690 hc        1 KH1      0.061700
     40 HC42        1.3010   -0.7130    1.3120 hc        1 KH1      0.061700
     41 HC6         3.3310   -1.6740    1.7580 ha        1 KH1      0.124000
     42 HC7         5.8340   -0.0060    1.0500 ha        1 KH1      0.136000
     43 HC91        5.6830   -2.5240    4.1870 hc        1 KH1      0.046200
     44 HC92        4.3700   -2.8890    3.0030 hc        1 KH1      0.046200
     45 H111        5.7950   -4.8660    3.7220 hc        1 KH1      0.038700
     46 H112        5.6200   -4.6290    1.9420 hc        1 KH1      0.038700
     47 H121        8.0700   -3.9920    3.7130 hc        1 KH1      0.050700
     48 H122        7.9400   -5.2150    2.3880 hc        1 KH1      0.050700
     49 H14         7.8650   -1.6700    3.2950 hc        1 KH1      0.054700
     50 H151        7.8400   -0.5590    0.4250 hc        1 KH1      0.046200
     51 H152        8.4460    0.1960    1.9520 hc        1 KH1      0.046200
     52 H161       10.4920   -0.9360    1.7700 hc        1 KH1      0.041700
     53 H162        9.9730   -1.3980    0.1040 hc        1 KH1      0.041700
     54 H17         9.9710   -3.0190    2.6840 hc        1 KH1      0.061700
     55 H181        7.8860   -2.7680   -0.4250 hc        1 KH1      0.037033
     56 H182        7.7790   -4.5200    0.0470 hc        1 KH1      0.037033
     57 H183        6.3700   -3.4060    0.3260 hc        1 KH1      0.037033
     58 H191        5.2050    3.1830    1.7270 ha        1 KH1      0.120000
     59 H192        5.2080    1.6140    2.7210 ha        1 KH1      0.120000
     60 HO1         3.2290    2.5840   -1.8700 ho        1 KH1      0.396000
     61 H20         9.9660   -3.7720   -0.3240 h1        1 KH1      0.040700
     62 H221        9.5170   -6.0130   -0.6050 h1        1 KH1      0.024200
     63 H222       11.2910   -6.1570   -0.1910 h1        1 KH1      0.024200
     64 H231       10.7920   -7.7330    1.6560 hc        1 KH1      0.060700
     65 H232        9.0140   -7.4550    1.4700 hc        1 KH1      0.060700
     66 HO3        11.2480  -11.0750    1.4850 ho        1 KH1      0.398000
     67 H261        9.7990  -12.1120   -0.0920 hc        1 KH1      0.048700
     68 H262        8.6440  -11.0040   -0.9390 hc        1 KH1      0.048700
     69 H271        9.1680   -9.4720    2.4570 hc        1 KH1      0.048700
     70 H272        7.8940   -9.7150    1.1890 hc        1 KH1      0.048700
     71 H211       12.3750   -4.2370    0.0870 hc        1 KH1      0.042367
     72 H212       12.2150   -3.7410    1.8210 hc        1 KH1      0.042367
     73 H213       12.0140   -2.5060    0.5030 hc        1 KH1      0.042367
     74 H241        9.0110   -8.5330   -0.7480 hc        1 KH1      0.049700
     75 H242       10.8270   -8.5570   -0.7860 hc        1 KH1      0.049700
     76 H281        9.5690  -12.0100    2.4250 hc        1 KH1      0.035867
     77 H282        7.9400  -11.4860    3.0140 hc        1 KH1      0.035867
     78 H283        8.1210  -12.1620    1.3470 hc        1 KH1      0.035867
     79 H291       11.7100  -10.8890   -1.3290 hc        1 KH1      0.035867
     80 H292       10.6110  -11.9170   -2.3460 hc        1 KH1      0.035867
     81 H293       10.4330  -10.1170   -2.3570 hc        1 KH1      0.035867
@<TRIPOS>BOND
     1    1    4 1   
     2    1   34 1   
     3    2    3 1   
     4    2   11 1   
     5    2   21 1   
     6    2   35 1   
     7    3    4 1   
     8    3   36 1   
     9    3   37 1   
    10    4    5 1   
    11    4   38 1   
    12    5    6 1   
    13    5   39 1   
    14    5   40 1   
    15    6    7 2   
    16    6   11 1   
    17    7    8 1   
    18    7   41 1   
    19    8    9 2   
    20    8   42 1   
    21    9   10 1   
    22    9   15 1   
    23   10   12 1   
    24   10   43 1   
    25   10   44 1   
    26   11   20 2   
    27   12   13 1   
    28   12   45 1   
    29   12   46 1   
    30   13   14 1   
    31   13   47 1   
    32   13   48 1   
    33   14   15 1   
    34   14   18 1   
    35   14   19 1   
    36   15   16 1   
    37   15   49 1   
    38   16   17 1   
    39   16   50 1   
    40   16   51 1   
    41   17   18 1   
    42   17   52 1   
    43   17   53 1   
    44   18   22 1   
    45   18   54 1   
    46   19   55 1   
    47   19   56 1   
    48   19   57 1   
    49   20   58 1   
    50   20   59 1   
    51   21   60 1   
    52   22   23 1   
    53   22   30 1   
    54   22   61 1   
    55   23   24 1   
    56   24   25 1   
    57   24   62 1   
    58   24   63 1   
    59   25   31 1   
    60   25   64 1   
    61   25   65 1   
    62   26   27 1   
    63   26   28 1   
    64   26   29 1   
    65   26   31 1   
    66   27   66 1   
    67   28   33 1   
    68   28   67 1   
    69   28   68 1   
    70   29   32 1   
    71   29   69 1   
    72   29   70 1   
    73   30   71 1   
    74   30   72 1   
    75   30   73 1   
    76   31   74 1   
    77   31   75 1   
    78   32   76 1   
    79   32   77 1   
    80   32   78 1   
    81   33   79 1   
    82   33   80 1   
    83   33   81 1   
@<TRIPOS>SUBSTRUCTURE
     1 KH1         1 TEMP              0 ****  ****    0 ROOT
