@<TRIPOS>MOLECULE
KH1
   81    83     1     0     0
SMALL
bcc


@<TRIPOS>ATOM
      1 O2          3.3700   -0.4460   -8.0680 oh        1 KH1     -0.600800
      2 C1          0.1860    1.2590   -7.1600 c3        1 KH1      0.183300
      3 C2          1.3170    0.7210   -8.0290 c3        1 KH1     -0.069400
      4 C3          2.3940    0.0710   -7.1710 c3        1 KH1      0.145100
      5 C4          1.8120   -1.0510   -6.3130 c3        1 KH1     -0.075200
      6 C5          0.6700   -0.5670   -5.4840 ce        1 KH1     -0.069200
      7 C6          0.6020   -0.8690   -4.1700 cf        1 KH1     -0.115000
      8 C7         -0.4390   -0.4300   -3.2710 cf        1 KH1     -0.155000
      9 C8         -0.7510   -0.9960   -2.0930 c2        1 KH1     -0.073400
     10 C9         -0.1340   -2.2450   -1.5500 c3        1 KH1     -0.045200
     11 C10        -0.3350    0.2140   -6.2040 ce        1 KH1     -0.120200
     12 C11         0.2390   -2.1650   -0.0770 c3        1 KH1     -0.073400
     13 C12        -0.8270   -1.5360    0.8020 c3        1 KH1     -0.065400
     14 C13        -1.2860   -0.2100    0.2180 c3        1 KH1     -0.032000
     15 C14        -1.8330   -0.4910   -1.2070 c3        1 KH1     -0.040500
     16 C15        -2.6230    0.7650   -1.5500 c3        1 KH1     -0.072400
     17 C16        -3.1950    1.2410   -0.2110 c3        1 KH1     -0.077400
     18 C17        -2.5230    0.4120    0.8980 c3        1 KH1     -0.060700
     19 C18        -0.1360    0.7840    0.1920 c3        1 KH1     -0.083100
     20 C19        -1.6510    0.0130   -6.0650 c2        1 KH1     -0.194000
     21 O1          0.6960    2.4010   -6.4760 oh        1 KH1     -0.596800
     22 C20        -2.2370    1.2570    2.1390 c3        1 KH1      0.149100
     23 O4         -1.5710    0.4000    3.0750 os        1 KH1     -0.425600
     24 C22        -0.7580    1.1100    4.0050 c3        1 KH1      0.131400
     25 C23        -0.1310    0.0620    4.9110 c3        1 KH1     -0.084400
     26 C25         1.3430   -0.2180    6.9800 c3        1 KH1      0.154800
     27 O3          0.3100   -0.4380    7.9410 oh        1 KH1     -0.596800
     28 C26         2.4890    0.4520    7.7520 c3        1 KH1     -0.086900
     29 C27         1.8110   -1.5540    6.3880 c3        1 KH1     -0.086900
     30 C21        -3.5280    1.7730    2.7550 c3        1 KH1     -0.122100
     31 C24         0.8380    0.7150    5.8700 c3        1 KH1     -0.109400
     32 C28         2.4120   -2.4770    7.4160 c3        1 KH1     -0.092600
     33 C29         2.1580    1.8430    8.2270 c3        1 KH1     -0.092600
     34 HO2         4.0740   -0.8180   -7.5250 ho        1 KH1      0.399000
     35 HC1        -0.6550    1.6070   -7.8300 h1        1 KH1      0.038700
     36 HC21        1.7700    1.5620   -8.6140 hc        1 KH1      0.067200
     37 HC22        0.9040   -0.0280   -8.7510 hc        1 KH1      0.067200
     38 HC3         2.8650    0.8520   -6.5080 h1        1 KH1      0.053700
     39 HC41        2.6230   -1.4770   -5.6650 hc        1 KH1      0.053700
     40 HC42        1.4540   -1.8760   -6.9870 hc        1 KH1      0.053700
     41 HC6         1.4130   -1.4720   -3.7230 ha        1 KH1      0.125000
     42 HC7        -1.0070    0.4580   -3.6080 ha        1 KH1      0.127000
     43 HC91       -0.8780   -3.0770   -1.6920 hc        1 KH1      0.047200
     44 HC92        0.7840   -2.5250   -2.1320 hc        1 KH1      0.047200
     45 H111        0.4480   -3.2040    0.2920 hc        1 KH1      0.040200
     46 H112        1.1910   -1.5800    0.0270 hc        1 KH1      0.040200
     47 H121       -1.7040   -2.2290    0.8910 hc        1 KH1      0.050200
     48 H122       -0.4230   -1.3710    1.8360 hc        1 KH1      0.050200
     49 H14        -2.5830   -1.3350   -1.1190 hc        1 KH1      0.056700
     50 H151       -3.4330    0.5470   -2.2860 hc        1 KH1      0.044700
     51 H152       -1.9590    1.5500   -1.9900 hc        1 KH1      0.044700
     52 H161       -4.3030    1.0980   -0.1780 hc        1 KH1      0.042200
     53 H162       -2.9880    2.3320   -0.0720 hc        1 KH1      0.042200
     54 H17        -3.2070   -0.4250    1.2080 hc        1 KH1      0.061700
     55 H181        0.6630    0.4440   -0.5100 hc        1 KH1      0.037367
     56 H182       -0.4940    1.7860   -0.1460 hc        1 KH1      0.037367
     57 H183        0.3010    0.8830    1.2160 hc        1 KH1      0.037367
     58 H191       -2.0590   -0.7550   -5.3940 ha        1 KH1      0.121000
     59 H192       -2.3960    0.5960   -6.6220 ha        1 KH1      0.121000
     60 HO1         0.0910    2.5910   -5.7500 ho        1 KH1      0.403000
     61 H20        -1.5710    2.1250    1.8710 h1        1 KH1      0.041700
     62 H221       -1.3880    1.8280    4.5950 h1        1 KH1      0.027200
     63 H222        0.0330    1.6860    3.4540 h1        1 KH1      0.027200
     64 H231        0.3930   -0.6990    4.2740 hc        1 KH1      0.051700
     65 H232       -0.9430   -0.4710    5.4700 hc        1 KH1      0.051700
     66 HO3        -0.4010   -0.9050    7.4870 ho        1 KH1      0.399000
     67 H261        2.7250   -0.1900    8.6420 hc        1 KH1      0.046700
     68 H262        3.3900    0.4730    7.0880 hc        1 KH1      0.046700
     69 H271        2.5550   -1.3440    5.5770 hc        1 KH1      0.046700
     70 H272        0.9290   -2.0640    5.9160 hc        1 KH1      0.046700
     71 H211       -4.1570    0.9200    3.1050 hc        1 KH1      0.042700
     72 H212       -3.3030    2.4270    3.6310 hc        1 KH1      0.042700
     73 H213       -4.1020    2.3630    2.0020 hc        1 KH1      0.042700
     74 H241        0.3350    1.5910    6.3620 hc        1 KH1      0.053700
     75 H242        1.7230    1.1020    5.3020 hc        1 KH1      0.053700
     76 H281        2.5220   -3.5050    6.9940 hc        1 KH1      0.037867
     77 H282        3.4220   -2.1190    7.7320 hc        1 KH1      0.037867
     78 H283        1.7570   -2.5270    8.3210 hc        1 KH1      0.037867
     79 H291        2.9420    2.2000    8.9380 hc        1 KH1      0.037867
     80 H292        2.1110    2.5600    7.3720 hc        1 KH1      0.037867
     81 H293        1.1710    1.8470    8.7510 hc        1 KH1      0.037867
@<TRIPOS>BOND
     1    1    4 1   
     2    1   34 1   
     3    2    3 1   
     4    2   11 1   
     5    2   21 1   
     6    2   35 1   
     7    3    4 1   
     8    3   36 1   
     9    3   37 1   
    10    4    5 1   
    11    4   38 1   
    12    5    6 1   
    13    5   39 1   
    14    5   40 1   
    15    6    7 2   
    16    6   11 1   
    17    7    8 1   
    18    7   41 1   
    19    8    9 2   
    20    8   42 1   
    21    9   10 1   
    22    9   15 1   
    23   10   12 1   
    24   10   43 1   
    25   10   44 1   
    26   11   20 2   
    27   12   13 1   
    28   12   45 1   
    29   12   46 1   
    30   13   14 1   
    31   13   47 1   
    32   13   48 1   
    33   14   15 1   
    34   14   18 1   
    35   14   19 1   
    36   15   16 1   
    37   15   49 1   
    38   16   17 1   
    39   16   50 1   
    40   16   51 1   
    41   17   18 1   
    42   17   52 1   
    43   17   53 1   
    44   18   22 1   
    45   18   54 1   
    46   19   55 1   
    47   19   56 1   
    48   19   57 1   
    49   20   58 1   
    50   20   59 1   
    51   21   60 1   
    52   22   23 1   
    53   22   30 1   
    54   22   61 1   
    55   23   24 1   
    56   24   25 1   
    57   24   62 1   
    58   24   63 1   
    59   25   31 1   
    60   25   64 1   
    61   25   65 1   
    62   26   27 1   
    63   26   28 1   
    64   26   29 1   
    65   26   31 1   
    66   27   66 1   
    67   28   33 1   
    68   28   67 1   
    69   28   68 1   
    70   29   32 1   
    71   29   69 1   
    72   29   70 1   
    73   30   71 1   
    74   30   72 1   
    75   30   73 1   
    76   31   74 1   
    77   31   75 1   
    78   32   76 1   
    79   32   77 1   
    80   32   78 1   
    81   33   79 1   
    82   33   80 1   
    83   33   81 1   
@<TRIPOS>SUBSTRUCTURE
     1 KH1         1 TEMP              0 ****  ****    0 ROOT
