@<TRIPOS>MOLECULE
KH1
   81    80     1     0     0
SMALL
bcc


@<TRIPOS>ATOM
      1 O2         -4.0590    1.5530   -6.9280 oh        1 KH1     -0.325000
      2 C1         -5.0610   -1.0430   -6.0700 c3        1 KH1      0.067000
      3 C2         -5.8670    0.2120   -6.8190 c3        1 KH1     -0.223000
      4 C3         -5.4870    1.3790   -6.4890 c3        1 KH1      0.039000
      5 C4         -5.5740    1.7260   -4.8520 c3        1 KH1     -0.158000
      6 C5         -4.9510    0.7130   -4.0540 c2        1 KH1     -0.088000
      7 C6         -4.3220    1.0140   -2.8550 c1        1 KH1     -0.110000
      8 C7         -3.6580   -0.1250   -2.0140 c1        1 KH1     -0.154000
      9 C8         -2.3960    0.0730   -1.4320 c1        1 KH1     -0.072000
     10 C9         -1.8520    1.1740   -1.6220 c2        1 KH1     -0.126000
     11 C10        -5.0200   -0.8760   -4.6420 c2        1 KH1     -0.093000
     12 C11        -1.1920    1.5540   -0.3880 c3        1 KH1     -0.148000
     13 C12        -1.6810    0.7440    0.8720 c3        1 KH1     -0.145000
     14 C13        -1.2810   -0.4670    0.4590 c3        1 KH1     -0.038000
     15 C14        -1.8990   -0.9300   -0.7110 c3        1 KH1     -0.073000
     16 C15        -0.9280   -1.6400   -1.4440 c3        1 KH1     -0.153000
     17 C16        -0.1130   -1.5350   -0.9710 c3        1 KH1     -0.153000
     18 C17        -0.4230   -0.4430    0.3060 c3        1 KH1     -0.102000
     19 C18        -1.5510   -1.5060    1.6040 c3        1 KH1     -0.206000
     20 C19        -5.0350   -1.9320   -3.8090 c1        1 KH1     -0.173000
     21 O1         -5.6170   -2.3570   -6.4520 oh        1 KH1     -0.325000
     22 C20         0.4600   -0.9710    1.7590 c3        1 KH1      0.044000
     23 O4          1.6600   -0.3920    1.7870 os        1 KH1     -0.288000
     24 C22         2.1310   -0.0640    3.1330 c3        1 KH1     -0.019000
     25 C23         3.6900   -0.0380    3.1360 c3        1 KH1     -0.163000
     26 C25         5.7300    0.9060    4.3720 c3        1 KH1      0.082000
     27 O3          6.4120    0.4340    3.2130 oh        1 KH1     -0.325000
     28 C26         6.3640    2.2550    4.8320 c3        1 KH1     -0.165500
     29 C27         5.8590   -0.1520    5.5210 c3        1 KH1     -0.165500
     30 C21         0.6120   -2.3990    1.7310 c3        1 KH1     -0.240000
     31 C24         4.1950    1.1310    4.0260 c3        1 KH1     -0.188000
     32 C28         7.2400   -0.7250    5.5200 c3        1 KH1     -0.210500
     33 C29         7.5230    2.6250    3.8810 c3        1 KH1     -0.210500
     34 HO2        -3.9930    2.2640   -7.4220 ho        1 KH1      0.202000
     35 HC1        -4.1660   -1.1170   -6.4220 h1        1 KH1      0.078000
     36 HC21       -6.8040    0.1340   -6.6130 hc        1 KH1      0.099500
     37 HC22       -5.7550    0.1160   -7.7790 hc        1 KH1      0.099500
     38 HC3        -6.0480    2.0360   -6.9760 h1        1 KH1      0.115000
     39 HC41       -5.1970    2.5980   -4.6690 hc        1 KH1      0.101000
     40 HC42       -6.5120    1.8630   -4.5690 hc        1 KH1      0.101000
     41 HC6        -4.2940    1.9380   -2.5340 ha        1 KH1      0.125000
     42 HC7        -4.1100   -0.9500   -1.8960 ha        1 KH1      0.130000
     43 HC91       -1.2160    1.3010   -2.3670 ha        1 KH1      0.087500
     44 HC92       -2.5580    1.7820   -1.8800 ha        1 KH1      0.087500
     45 H111       -1.3520    2.4900   -0.2320 hc        1 KH1      0.080500
     46 H112       -0.2180    1.4160   -0.4940 hc        1 KH1      0.080500
     47 H121       -2.6880    0.7920    0.9770 hc        1 KH1      0.081000
     48 H122       -1.2030    1.0250    1.6990 hc        1 KH1      0.081000
     49 H14        -2.6340   -1.5460   -0.4650 hc        1 KH1      0.095000
     50 H151       -0.8440   -1.2590   -2.3580 hc        1 KH1      0.085000
     51 H152       -1.1670   -2.5780   -1.4940 hc        1 KH1      0.085000
     52 H161        0.1840   -2.4140   -0.6010 hc        1 KH1      0.086500
     53 H162        0.5590   -1.1800   -1.5510 hc        1 KH1      0.086500
     54 H17        -0.1510    0.4570    0.0540 hc        1 KH1      0.113000
     55 H181       -1.0760   -1.2390    2.4020 hc        1 KH1      0.075333
     56 H182       -2.4980   -1.5430    1.7900 hc        1 KH1      0.075333
     57 H183       -1.2450   -2.3780    1.3240 hc        1 KH1      0.075333
     58 H191       -5.0750   -2.8400   -4.1710 DU        1 KH1      0.135000
     59 H192       -5.0080   -1.7940   -2.8560 ha        1 KH1      0.119000
     60 HO1        -5.3280   -2.5810   -7.2760 ho        1 KH1      0.202000
     61 H20        -0.0330   -0.7180    2.5420 h1        1 KH1      0.076000
     62 H221        1.7900    0.8050    3.3940 h1        1 KH1      0.065500
     63 H222        1.8030   -0.7630    3.7840 h1        1 KH1      0.065500
     64 H231        4.0230   -0.8710    3.4810 hc        1 KH1      0.091000
     65 H232        4.0090    0.0840    2.2340 hc        1 KH1      0.091000
     66 HO3         5.9850   -0.2690    2.8860 ho        1 KH1      0.197000
     67 H261        6.7130    2.1600    5.7570 hc        1 KH1      0.086000
     68 H262        5.6880    2.9550    4.8100 hc        1 KH1      0.086000
     69 H271        5.2030   -0.8780    5.3780 hc        1 KH1      0.086000
     70 H272        5.6810    0.2900    6.4050 hc        1 KH1      0.086000
     71 H211        1.5620   -2.6280    1.7560 hc        1 KH1      0.083333
     72 H212        0.2030   -2.7600    0.8910 hc        1 KH1      0.083333
     73 H213        0.1570   -2.7930    2.5140 hc        1 KH1      0.083333
     74 H241        3.6880    1.1600    4.8340 hc        1 KH1      0.092500
     75 H242        4.0870    1.9940    3.5340 hc        1 KH1      0.092500
     76 H281        7.3800   -1.2590    4.6830 hc        1 KH1      0.076833
     77 H282        7.8970    0.0020    5.5580 hc        1 KH1      0.076833
     78 H283        7.3500   -1.3020    6.2940 hc        1 KH1      0.076833
     79 H291        7.1950    2.6630    2.9720 hc        1 KH1      0.076833
     80 H292        8.2240    1.9500    3.9450 hc        1 KH1      0.076833
     81 H293        7.8810    3.4820    4.1280 hc        1 KH1      0.076833
@<TRIPOS>BOND
     1    1    4 1   
     2    1   34 1   
     3    2    3 1   
     4    2   11 1   
     5    2   21 1   
     6    2   35 1   
     7    3    4 1   
     8    3   36 1   
     9    3   37 1   
    10    4    5 1   
    11    4   38 1   
    12    5    6 1   
    13    5   39 1   
    14    5   40 1   
    15    6    7 1   
    16    6   11 1   
    17    7   41 1   
    18    8    9 1   
    19    8   42 1   
    20    9   15 1   
    21   10   12 1   
    22   10   43 1   
    23   10   44 1   
    24   11   20 1   
    25   12   13 1   
    26   12   45 1   
    27   12   46 1   
    28   13   14 1   
    29   13   47 1   
    30   13   48 1   
    31   14   15 1   
    32   14   18 1   
    33   14   19 1   
    34   15   16 1   
    35   15   49 1   
    36   16   17 1   
    37   16   50 1   
    38   16   51 1   
    39   17   18 1   
    40   17   52 1   
    41   17   53 1   
    42   18   22 1   
    43   18   54 1   
    44   19   55 1   
    45   19   56 1   
    46   19   57 1   
    47   20   59 1   
    48   21   60 1   
    49   22   23 1   
    50   22   30 1   
    51   22   61 1   
    52   23   24 1   
    53   24   25 1   
    54   24   62 1   
    55   24   63 1   
    56   25   31 1   
    57   25   64 1   
    58   25   65 1   
    59   26   27 1   
    60   26   28 1   
    61   26   29 1   
    62   26   31 1   
    63   27   66 1   
    64   28   33 1   
    65   28   67 1   
    66   28   68 1   
    67   29   32 1   
    68   29   69 1   
    69   29   70 1   
    70   30   71 1   
    71   30   72 1   
    72   30   73 1   
    73   31   74 1   
    74   31   75 1   
    75   32   76 1   
    76   32   77 1   
    77   32   78 1   
    78   33   79 1   
    79   33   80 1   
    80   33   81 1   
@<TRIPOS>SUBSTRUCTURE
     1 KH1         1 TEMP              0 ****  ****    0 ROOT
