@<TRIPOS>MOLECULE
KH1
   81    83     1     0     0
SMALL
bcc


@<TRIPOS>ATOM
      1 O2         -0.3150    1.0290    0.2590 oh        1 KH1     -0.599800
      2 C1          3.1290    2.5530    0.0670 c3        1 KH1      0.186300
      3 C2          1.6040    2.5080    0.1050 c3        1 KH1     -0.146400
      4 C3          1.1020    1.0700    0.1410 c3        1 KH1      0.146100
      5 C4          1.6570    0.3350    1.3590 c3        1 KH1     -0.035200
      6 C5          3.1480    0.3920    1.3810 ce        1 KH1     -0.075200
      7 C6          3.8650   -0.7280    1.6110 cf        1 KH1     -0.107000
      8 C7          5.3070   -0.8020    1.6210 cf        1 KH1     -0.153000
      9 C8          6.0410   -1.7390    2.2450 c2        1 KH1     -0.078400
     10 C9          5.4890   -2.8140    3.1260 c3        1 KH1     -0.044200
     11 C10         3.7370    1.7110    1.1600 ce        1 KH1     -0.069200
     12 C11         6.0880   -4.1890    2.8780 c3        1 KH1     -0.073400
     13 C12         7.5980   -4.1940    2.7190 c3        1 KH1     -0.065400
     14 C13         8.0300   -3.1500    1.7030 c3        1 KH1     -0.032000
     15 C14         7.5270   -1.7710    2.2060 c3        1 KH1     -0.038500
     16 C15         8.3240   -0.7680    1.3830 c3        1 KH1     -0.073400
     17 C16         9.6800   -1.4440    1.1550 c3        1 KH1     -0.076400
     18 C17         9.5510   -2.9050    1.6230 c3        1 KH1     -0.060700
     19 C18         7.4710   -3.4850    0.3300 c3        1 KH1     -0.083100
     20 C19         4.7530    2.1890    1.8910 c2        1 KH1     -0.193000
     21 O1          3.6360    2.0670   -1.1740 oh        1 KH1     -0.589800
     22 C20        10.3250   -3.8580    0.7140 c3        1 KH1      0.149100
     23 O4         10.0920   -5.1820    1.2120 os        1 KH1     -0.423600
     24 C22        10.2440   -6.1900    0.2160 c3        1 KH1      0.131400
     25 C23         9.9890   -7.5190    0.9080 c3        1 KH1     -0.083400
     26 C25         9.9430  -10.0320    0.5290 c3        1 KH1      0.153800
     27 O3         11.2470  -10.1840    1.0920 oh        1 KH1     -0.597800
     28 C26         9.7040  -11.1040   -0.5430 c3        1 KH1     -0.108900
     29 C27         8.8780  -10.1270    1.6290 c3        1 KH1     -0.108900
     30 C21        11.8150   -3.5590    0.7540 c3        1 KH1     -0.122100
     31 C24         9.9300   -8.6360   -0.1090 c3        1 KH1     -0.066400
     32 C28         8.6520  -11.5190    2.1580 c3        1 KH1     -0.093600
     33 C29        10.6590  -11.0050   -1.7030 c3        1 KH1     -0.093600
     34 HO2        -0.6700    1.4800   -0.5160 ho        1 KH1      0.398000
     35 HC1         3.4590    3.6270    0.1860 h1        1 KH1      0.034700
     36 HC21        1.1890    3.0310   -0.7950 hc        1 KH1      0.052700
     37 HC22        1.2410    3.0520    1.0140 hc        1 KH1      0.052700
     38 HC3         1.4190    0.5410   -0.8020 h1        1 KH1      0.048700
     39 HC41        1.2900   -0.7240    1.3400 hc        1 KH1      0.061700
     40 HC42        1.2510    0.8130    2.2910 hc        1 KH1      0.061700
     41 HC6         3.3250   -1.6790    1.7740 ha        1 KH1      0.124000
     42 HC7         5.8190   -0.0090    1.0420 ha        1 KH1      0.136000
     43 HC91        4.3750   -2.8870    3.0180 hc        1 KH1      0.046200
     44 HC92        5.6970   -2.5140    4.1910 hc        1 KH1      0.046200
     45 H111        5.8100   -4.8570    3.7360 hc        1 KH1      0.038700
     46 H112        5.6220   -4.6290    1.9560 hc        1 KH1      0.038700
     47 H121        7.9470   -5.2080    2.3880 hc        1 KH1      0.050700
     48 H122        8.0830   -3.9790    3.7070 hc        1 KH1      0.050700
     49 H14         7.8700   -1.6590    3.2800 hc        1 KH1      0.054700
     50 H151        8.4370    0.2020    1.9230 hc        1 KH1      0.046200
     51 H152        7.8220   -0.5610    0.4050 hc        1 KH1      0.046200
     52 H161       10.4840   -0.9270    1.7320 hc        1 KH1      0.041700
     53 H162        9.9540   -1.3980    0.0710 hc        1 KH1      0.041700
     54 H17         9.9750   -3.0060    2.6590 hc        1 KH1      0.061700
     55 H181        7.8670   -2.7740   -0.4360 hc        1 KH1      0.037033
     56 H182        6.3570   -3.4120    0.3290 hc        1 KH1      0.037033
     57 H183        7.7670   -4.5240    0.0450 hc        1 KH1      0.037033
     58 H191        5.1880    3.1810    1.7130 ha        1 KH1      0.120000
     59 H192        5.2020    1.6150    2.7120 ha        1 KH1      0.120000
     60 HO1         3.1880    2.5670   -1.8680 ho        1 KH1      0.396000
     61 H20         9.9500   -3.7750   -0.3450 h1        1 KH1      0.040700
     62 H221        9.5010   -6.0190   -0.6090 h1        1 KH1      0.024200
     63 H222       11.2800   -6.1530   -0.2130 h1        1 KH1      0.024200
     64 H231        9.0260   -7.4520    1.4800 hc        1 KH1      0.060700
     65 H232       10.8070   -7.7210    1.6480 hc        1 KH1      0.060700
     66 HO3        11.2790  -11.0620    1.4890 ho        1 KH1      0.398000
     67 H261        8.6470  -11.0170   -0.9050 hc        1 KH1      0.048700
     68 H262        9.8160  -12.1140   -0.0660 hc        1 KH1      0.048700
     69 H271        9.2010   -9.4630    2.4770 hc        1 KH1      0.048700
     70 H272        7.9150   -9.7190    1.2240 hc        1 KH1      0.048700
     71 H211       12.3630   -4.2310    0.0510 hc        1 KH1      0.042367
     72 H212       12.0000   -2.4990    0.4590 hc        1 KH1      0.042367
     73 H213       12.2140   -3.7250    1.7830 hc        1 KH1      0.042367
     74 H241       10.8190   -8.5580   -0.7910 hc        1 KH1      0.049700
     75 H242        9.0040   -8.5430   -0.7320 hc        1 KH1      0.049700
     76 H281        7.9910  -11.4800    3.0580 hc        1 KH1      0.035867
     77 H282        8.1560  -12.1650    1.3930 hc        1 KH1      0.035867
     78 H283        9.6160  -11.9990    2.4540 hc        1 KH1      0.035867
     79 H291       10.4150  -10.1280   -2.3490 hc        1 KH1      0.035867
     80 H292       10.6010  -11.9280   -2.3300 hc        1 KH1      0.035867
     81 H293       11.7070  -10.8880   -1.3310 hc        1 KH1      0.035867
@<TRIPOS>BOND
     1    1    4 1   
     2    1   34 1   
     3    2    3 1   
     4    2   11 1   
     5    2   21 1   
     6    2   35 1   
     7    3    4 1   
     8    3   36 1   
     9    3   37 1   
    10    4    5 1   
    11    4   38 1   
    12    5    6 1   
    13    5   39 1   
    14    5   40 1   
    15    6    7 2   
    16    6   11 1   
    17    7    8 1   
    18    7   41 1   
    19    8    9 2   
    20    8   42 1   
    21    9   10 1   
    22    9   15 1   
    23   10   12 1   
    24   10   43 1   
    25   10   44 1   
    26   11   20 2   
    27   12   13 1   
    28   12   45 1   
    29   12   46 1   
    30   13   14 1   
    31   13   47 1   
    32   13   48 1   
    33   14   15 1   
    34   14   18 1   
    35   14   19 1   
    36   15   16 1   
    37   15   49 1   
    38   16   17 1   
    39   16   50 1   
    40   16   51 1   
    41   17   18 1   
    42   17   52 1   
    43   17   53 1   
    44   18   22 1   
    45   18   54 1   
    46   19   55 1   
    47   19   56 1   
    48   19   57 1   
    49   20   58 1   
    50   20   59 1   
    51   21   60 1   
    52   22   23 1   
    53   22   30 1   
    54   22   61 1   
    55   23   24 1   
    56   24   25 1   
    57   24   62 1   
    58   24   63 1   
    59   25   31 1   
    60   25   64 1   
    61   25   65 1   
    62   26   27 1   
    63   26   28 1   
    64   26   29 1   
    65   26   31 1   
    66   27   66 1   
    67   28   33 1   
    68   28   67 1   
    69   28   68 1   
    70   29   32 1   
    71   29   69 1   
    72   29   70 1   
    73   30   71 1   
    74   30   72 1   
    75   30   73 1   
    76   31   74 1   
    77   31   75 1   
    78   32   76 1   
    79   32   77 1   
    80   32   78 1   
    81   33   79 1   
    82   33   80 1   
    83   33   81 1   
@<TRIPOS>SUBSTRUCTURE
     1 KH1         1 TEMP              0 ****  ****    0 ROOT
