@<TRIPOS>MOLECULE
KH2
   33    33     1     0     0
SMALL
bcc


@<TRIPOS>ATOM
      1 S           1.3710   -1.4490   -0.6590 s6        1 KH2      1.433800
      2 C1          1.7120    0.2100   -0.0740 c3        1 KH2     -0.306600
      3 O1          0.4870   -2.0000    0.2700 o         1 KH2     -0.744200
      4 N2          4.1680    0.3700   -2.8270 n4        1 KH2     -0.589800
      5 O2          0.8780   -1.2380   -1.9730 o         1 KH2     -0.744200
      6 C4          2.3730    1.0740   -1.1110 c3        1 KH2     -0.040400
      7 O4          2.6750   -2.0280   -0.7180 o         1 KH2     -0.744200
      8 C7          3.8050    0.6050   -1.3770 c3        1 KH2      0.099800
      9 C11         3.9630    1.6220   -3.5990 c3        1 KH2      0.089100
     10 C12         3.7940   -1.2040   -4.7800 c3        1 KH2     -0.095900
     11 C13         6.1130   -0.4730   -4.2320 c3        1 KH2     -0.095900
     12 C14         5.2560   -1.5910   -4.7870 c3        1 KH2     -0.093400
     13 C15         5.6210   -0.0270   -2.8630 c3        1 KH2      0.094800
     14 C16         3.3400   -0.7520   -3.4030 c3        1 KH2      0.094800
     15 H1          0.7450    0.6830    0.2270 h1        1 KH2      0.086200
     16 H1A         2.3390    0.1510    0.8470 h1        1 KH2      0.086200
     17 H4          1.7360    1.0510   -2.0370 hc        1 KH2      0.053700
     18 H4A         2.4160    2.1410   -0.7660 hc        1 KH2      0.053700
     19 H7          4.5290    1.3750   -0.9900 hx        1 KH2      0.107200
     20 H7A         3.9860   -0.3780   -0.8360 hx        1 KH2      0.107200
     21 H11         2.8750    1.8990   -3.5760 hx        1 KH2      0.085033
     22 H11A        4.2790    1.4680   -4.6640 hx        1 KH2      0.085033
     23 H11B        4.5680    2.4470   -3.1420 hx        1 KH2      0.085033
     24 H12         3.6010   -0.4080   -5.5460 hc        1 KH2      0.066200
     25 H12A        3.1610   -2.0910   -5.0530 hc        1 KH2      0.066200
     26 H13         7.1710   -0.8260   -4.1090 hc        1 KH2      0.066200
     27 H13A        6.1300    0.3910   -4.9460 hc        1 KH2      0.066200
     28 H14         5.4010   -2.5170   -4.1680 hc        1 KH2      0.065200
     29 H14A        5.5820   -1.8300   -5.8320 hc        1 KH2      0.065200
     30 H15         5.7450   -0.8800   -2.1330 hx        1 KH2      0.124700
     31 H15A        6.2280    0.8510   -2.5060 hx        1 KH2      0.124700
     32 H16         3.3950   -1.6200   -2.6690 hx        1 KH2      0.124700
     33 H16A        2.2550   -0.4270   -3.4320 hx        1 KH2      0.124700
@<TRIPOS>BOND
     1    1    2 1   
     2    1    3 1   
     3    1    5 1   
     4    1    7 1   
     5    2    6 1   
     6    2   15 1   
     7    2   16 1   
     8    4    8 1   
     9    4    9 1   
    10    4   13 1   
    11    4   14 1   
    12    6    8 1   
    13    6   17 1   
    14    6   18 1   
    15    8   19 1   
    16    8   20 1   
    17    9   21 1   
    18    9   22 1   
    19    9   23 1   
    20   10   12 1   
    21   10   14 1   
    22   10   24 1   
    23   10   25 1   
    24   11   12 1   
    25   11   13 1   
    26   11   26 1   
    27   11   27 1   
    28   12   28 1   
    29   12   29 1   
    30   13   30 1   
    31   13   31 1   
    32   14   32 1   
    33   14   33 1   
@<TRIPOS>SUBSTRUCTURE
     1 KH2         1 TEMP              0 ****  ****    0 ROOT
