@<TRIPOS>MOLECULE
KH2
   33    31     1     0     0
SMALL
bcc


@<TRIPOS>ATOM
      1 S          -3.7000   -2.2200   -1.4470 ss        1 KH2      2.863000
      2 C1         -1.9200   -2.2330   -1.3810 c2        1 KH2     -0.846000
      3 O1         -4.2300   -3.4310   -2.1830 o         1 KH2     -1.051000
      4 N2          0.5900    0.0780    0.3210 n4        1 KH2      0.043000
      5 O2         -4.3010   -2.4220   -0.0810 o         1 KH2     -1.051000
      6 C4         -1.4280   -1.0530   -0.5260 c3        1 KH2     -0.119000
      7 O4         -4.1900   -0.9400   -2.0760 os        1 KH2     -1.099000
      8 C7          0.1150   -1.0800   -0.4520 c3        1 KH2     -0.137000
      9 C11        -0.1440    0.1620    1.5010 c3        1 KH2     -0.187000
     10 C12         0.9880    2.5280    0.1740 c3        1 KH2     -0.174500
     11 C13         2.6240    1.1010    1.2970 c3        1 KH2     -0.174500
     12 C14         2.4010    2.3290    0.5060 c3        1 KH2     -0.172000
     13 C15         1.9970   -0.1230    0.6540 c3        1 KH2     -0.142000
     14 C16         0.3650    1.3000   -0.4660 c3        1 KH2     -0.142000
     15 H1         -1.5590   -2.1520   -2.2860 ha        1 KH2      0.125500
     16 H1A        -1.6150   -3.0720   -0.9830 ha        1 KH2      0.125500
     17 H4         -1.8000   -1.1270    0.3800 hc        1 KH2      0.093000
     18 H4A        -1.7180   -0.2190   -0.9290 hc        1 KH2      0.093000
     19 H7          0.4860   -1.0410   -1.3590 hx        1 KH2      0.146500
     20 H7A         0.4060   -1.9040   -0.0170 hx        1 KH2      0.146500
     21 H11         0.3180    0.7590    2.1320 hx        1 KH2      0.124333
     22 H11A       -0.2290   -0.7320    1.8980 hx        1 KH2      0.124333
     23 H11B       -1.0340    0.5190    1.3060 hx        1 KH2      0.124333
     24 H12         0.9130    3.2790   -0.4430 hc        1 KH2      0.105500
     25 H12A        0.4980    2.7410    0.9940 hc        1 KH2      0.105500
     26 H13         3.5890    0.9530    1.3880 hc        1 KH2      0.105500
     27 H13A        2.2370    1.2230    2.1860 hc        1 KH2      0.105500
     28 H14         2.7180    3.1000    1.0220 hc        1 KH2      0.104500
     29 H14A        2.9170    2.2680   -0.3260 hc        1 KH2      0.104500
     30 H15         2.4860   -0.3350   -0.1630 hx        1 KH2      0.164000
     31 H15A        2.0710   -0.8810    1.2740 hx        1 KH2      0.164000
     32 H16         0.7500    1.1780   -1.3570 hx        1 KH2      0.164000
     33 H16A       -0.6020    1.4450   -0.5560 hx        1 KH2      0.164000
@<TRIPOS>BOND
     1    1    3 1   
     2    1    5 1   
     3    2    6 1   
     4    2   15 1   
     5    2   16 1   
     6    4    8 1   
     7    4    9 1   
     8    4   13 1   
     9    4   14 1   
    10    6    8 1   
    11    6   17 1   
    12    6   18 1   
    13    8   19 1   
    14    8   20 1   
    15    9   21 1   
    16    9   22 1   
    17    9   23 1   
    18   10   12 1   
    19   10   14 1   
    20   10   24 1   
    21   10   25 1   
    22   11   12 1   
    23   11   13 1   
    24   11   26 1   
    25   11   27 1   
    26   12   28 1   
    27   12   29 1   
    28   13   30 1   
    29   13   31 1   
    30   14   32 1   
    31   14   33 1   
@<TRIPOS>SUBSTRUCTURE
     1 KH2         1 TEMP              0 ****  ****    0 ROOT
