@<TRIPOS>MOLECULE
KH2
   33    33     1     0     0
SMALL
bcc


@<TRIPOS>ATOM
      1 S           1.3310   -1.3520   -0.6460 s6        1 KH2      1.433800
      2 C1          1.7030    0.3130   -0.0980 c3        1 KH2     -0.306600
      3 O1          0.4290   -1.8610    0.2890 o         1 KH2     -0.744200
      4 N2          4.1810    0.3560   -2.8360 n4        1 KH2     -0.589800
      5 O2          0.8510   -1.1630   -1.9680 o         1 KH2     -0.744200
      6 C4          2.3890    1.1380   -1.1500 c3        1 KH2     -0.040400
      7 O4          2.6230   -1.9600   -0.6820 o         1 KH2     -0.744200
      8 C7          3.8120    0.6330   -1.3950 c3        1 KH2      0.099800
      9 C11         4.0070    1.5920   -3.6400 c3        1 KH2      0.089100
     10 C12         3.7870   -1.2560   -4.7530 c3        1 KH2     -0.095900
     11 C13         6.1170   -0.5620   -4.2060 c3        1 KH2     -0.095900
     12 C14         5.2410   -1.6740   -4.7400 c3        1 KH2     -0.093400
     13 C15         5.6250   -0.0720   -2.8520 c3        1 KH2      0.094800
     14 C16         3.3330   -0.7620   -3.3910 c3        1 KH2      0.094800
     15 H1          2.3220    0.2630    0.8290 h1        1 KH2      0.086200
     16 H1A         0.7440    0.8130    0.1840 h1        1 KH2      0.086200
     17 H4          1.7570    1.1060   -2.0800 hc        1 KH2      0.053700
     18 H4A         2.4520    2.2120   -0.8310 hc        1 KH2      0.053700
     19 H7          3.9690   -0.3400   -0.8290 hx        1 KH2      0.107200
     20 H7A         4.5500    1.3970   -1.0210 hx        1 KH2      0.107200
     21 H11         2.9250    1.8930   -3.6310 hx        1 KH2      0.085033
     22 H11A        4.3270    1.4070   -4.6980 hx        1 KH2      0.085033
     23 H11B        4.6260    2.4160   -3.1980 hx        1 KH2      0.085033
     24 H12         3.1370   -2.1360   -5.0100 hc        1 KH2      0.066200
     25 H12A        3.6160   -0.4760   -5.5400 hc        1 KH2      0.066200
     26 H13         7.1670   -0.9340   -4.0670 hc        1 KH2      0.066200
     27 H13A        6.1570    0.2850   -4.9400 hc        1 KH2      0.066200
     28 H14         5.3610   -2.5880   -4.0990 hc        1 KH2      0.065200
     29 H14A        5.5680   -1.9460   -5.7770 hc        1 KH2      0.065200
     30 H15         6.2480    0.8010   -2.5110 hx        1 KH2      0.124700
     31 H15A        5.7250   -0.9100   -2.1010 hx        1 KH2      0.124700
     32 H16         2.2560   -0.4150   -3.4360 hx        1 KH2      0.124700
     33 H16A        3.3650   -1.6130   -2.6360 hx        1 KH2      0.124700
@<TRIPOS>BOND
     1    1    2 1   
     2    1    3 1   
     3    1    5 1   
     4    1    7 1   
     5    2    6 1   
     6    2   15 1   
     7    2   16 1   
     8    4    8 1   
     9    4    9 1   
    10    4   13 1   
    11    4   14 1   
    12    6    8 1   
    13    6   17 1   
    14    6   18 1   
    15    8   19 1   
    16    8   20 1   
    17    9   21 1   
    18    9   22 1   
    19    9   23 1   
    20   10   12 1   
    21   10   14 1   
    22   10   24 1   
    23   10   25 1   
    24   11   12 1   
    25   11   13 1   
    26   11   26 1   
    27   11   27 1   
    28   12   28 1   
    29   12   29 1   
    30   13   30 1   
    31   13   31 1   
    32   14   32 1   
    33   14   33 1   
@<TRIPOS>SUBSTRUCTURE
     1 KH2         1 TEMP              0 ****  ****    0 ROOT
