@<TRIPOS>MOLECULE
KH2
   33    33     1     0     0
SMALL
bcc


@<TRIPOS>ATOM
      1 S           1.7270   -0.6910   -1.0690 s6        1 KH2      1.433800
      2 C1          1.8730    0.8160   -0.1100 c3        1 KH2     -0.306600
      3 O1          0.6980   -0.3620   -2.0030 o         1 KH2     -0.744200
      4 N2         -1.7850    0.5590    0.3250 n4        1 KH2     -0.589800
      5 O2          2.9960   -0.9230   -1.5990 o         1 KH2     -0.744200
      6 C4          0.7040    1.0460    0.8060 c3        1 KH2     -0.040400
      7 O4          1.2380   -1.6330   -0.1270 o         1 KH2     -0.744200
      8 C7         -0.5560    1.3810    0.0060 c3        1 KH2      0.099800
      9 C11        -2.1230    0.7080    1.7640 c3        1 KH2      0.089100
     10 C12        -2.8040   -1.7480    0.0580 c3        1 KH2     -0.095900
     11 C13        -4.1840    0.2600   -0.4640 c3        1 KH2     -0.095900
     12 C14        -3.9160   -1.1900   -0.8030 c3        1 KH2     -0.093400
     13 C15        -2.9080    1.0890   -0.5270 c3        1 KH2      0.094800
     14 C16        -1.5520   -0.8920   -0.0190 c3        1 KH2      0.094800
     15 H1          2.8050    0.7540    0.5030 h1        1 KH2      0.086200
     16 H1A         2.0050    1.6790   -0.8040 h1        1 KH2      0.086200
     17 H4          0.5770    0.1250    1.4400 hc        1 KH2      0.053700
     18 H4A         0.9110    1.9000    1.5040 hc        1 KH2      0.053700
     19 H7         -0.3480    1.2350   -1.1020 hx        1 KH2      0.107200
     20 H7A        -0.8390    2.4560    0.1870 hx        1 KH2      0.107200
     21 H11        -2.2690    1.7930    2.0030 hx        1 KH2      0.085033
     22 H11A       -3.0620    0.1420    1.9950 hx        1 KH2      0.085033
     23 H11B       -1.2840    0.2980    2.3870 hx        1 KH2      0.085033
     24 H12        -3.1530   -1.8540    1.1180 hc        1 KH2      0.066200
     25 H12A       -2.5170   -2.7720   -0.3030 hc        1 KH2      0.066200
     26 H13        -4.9050    0.7000   -1.2030 hc        1 KH2      0.066200
     27 H13A       -4.6560    0.3400    0.5500 hc        1 KH2      0.066200
     28 H14        -3.6300   -1.2760   -1.8860 hc        1 KH2      0.065200
     29 H14A       -4.8510   -1.7900   -0.6540 hc        1 KH2      0.065200
     30 H15        -3.1210    2.1440   -0.2010 hx        1 KH2      0.124700
     31 H15A       -2.5320    1.1020   -1.5920 hx        1 KH2      0.124700
     32 H16        -1.1220   -0.9220   -1.0720 hx        1 KH2      0.124700
     33 H16A       -0.7490   -1.3050    0.6660 hx        1 KH2      0.124700
@<TRIPOS>BOND
     1    1    2 1   
     2    1    3 1   
     3    1    5 1   
     4    1    7 1   
     5    2    6 1   
     6    2   15 1   
     7    2   16 1   
     8    4    8 1   
     9    4    9 1   
    10    4   13 1   
    11    4   14 1   
    12    6    8 1   
    13    6   17 1   
    14    6   18 1   
    15    8   19 1   
    16    8   20 1   
    17    9   21 1   
    18    9   22 1   
    19    9   23 1   
    20   10   12 1   
    21   10   14 1   
    22   10   24 1   
    23   10   25 1   
    24   11   12 1   
    25   11   13 1   
    26   11   26 1   
    27   11   27 1   
    28   12   28 1   
    29   12   29 1   
    30   13   30 1   
    31   13   31 1   
    32   14   32 1   
    33   14   33 1   
@<TRIPOS>SUBSTRUCTURE
     1 KH2         1 TEMP              0 ****  ****    0 ROOT
