@<TRIPOS>MOLECULE
KH2
   33    33     1     0     0
SMALL
bcc


@<TRIPOS>ATOM
      1 S           1.3730   -1.3800   -0.6140 s6        1 KH2      1.433800
      2 C1          1.7680    0.2710   -0.0410 c3        1 KH2     -0.306600
      3 O1          0.4920   -1.9040    0.3330 o         1 KH2     -0.744200
      4 N2          4.1790    0.3570   -2.8370 n4        1 KH2     -0.589800
      5 O2          0.8620   -1.1610   -1.9200 o         1 KH2     -0.744200
      6 C4          2.4340    1.1140   -1.0930 c3        1 KH2     -0.040400
      7 O4          2.6600   -1.9940   -0.6930 o         1 KH2     -0.744200
      8 C7          3.8480    0.6060   -1.3820 c3        1 KH2      0.099800
      9 C11         3.9930    1.6110   -3.6110 c3        1 KH2      0.089100
     10 C12         3.7300   -1.2130   -4.7770 c3        1 KH2     -0.095900
     11 C13         6.0760   -0.5430   -4.2730 c3        1 KH2     -0.095900
     12 C14         5.1810   -1.6390   -4.8080 c3        1 KH2     -0.093400
     13 C15         5.6200   -0.0790   -2.8970 c3        1 KH2      0.094800
     14 C16         3.3120   -0.7450   -3.3940 c3        1 KH2      0.094800
     15 H1          2.4090    0.1990    0.8690 h1        1 KH2      0.086200
     16 H1A         0.8200    0.7710    0.2750 h1        1 KH2      0.086200
     17 H4          1.7800    1.1050   -2.0070 hc        1 KH2      0.053700
     18 H4A         2.5100    2.1810   -0.7540 hc        1 KH2      0.053700
     19 H7          4.0120   -0.3790   -0.8410 hx        1 KH2      0.107200
     20 H7A         4.5980    1.3580   -1.0110 hx        1 KH2      0.107200
     21 H11         4.2870    1.4450   -4.6800 hx        1 KH2      0.085033
     22 H11A        2.9140    1.9170   -3.5700 hx        1 KH2      0.085033
     23 H11B        4.6280    2.4210   -3.1680 hx        1 KH2      0.085033
     24 H12         3.5440   -0.4160   -5.5430 hc        1 KH2      0.066200
     25 H12A        3.0680   -2.0840   -5.0360 hc        1 KH2      0.066200
     26 H13         7.1270   -0.9230   -4.1670 hc        1 KH2      0.066200
     27 H13A        6.1030    0.3180   -4.9900 hc        1 KH2      0.066200
     28 H14         5.4810   -1.8910   -5.8580 hc        1 KH2      0.065200
     29 H14A        5.3110   -2.5670   -4.1890 hc        1 KH2      0.065200
     30 H15         5.7340   -0.9320   -2.1660 hx        1 KH2      0.124700
     31 H15A        6.2560    0.7840   -2.5540 hx        1 KH2      0.124700
     32 H16         2.2360   -0.3910   -3.4060 hx        1 KH2      0.124700
     33 H16A        3.3570   -1.6110   -2.6580 hx        1 KH2      0.124700
@<TRIPOS>BOND
     1    1    2 1   
     2    1    3 1   
     3    1    5 1   
     4    1    7 1   
     5    2    6 1   
     6    2   15 1   
     7    2   16 1   
     8    4    8 1   
     9    4    9 1   
    10    4   13 1   
    11    4   14 1   
    12    6    8 1   
    13    6   17 1   
    14    6   18 1   
    15    8   19 1   
    16    8   20 1   
    17    9   21 1   
    18    9   22 1   
    19    9   23 1   
    20   10   12 1   
    21   10   14 1   
    22   10   24 1   
    23   10   25 1   
    24   11   12 1   
    25   11   13 1   
    26   11   26 1   
    27   11   27 1   
    28   12   28 1   
    29   12   29 1   
    30   13   30 1   
    31   13   31 1   
    32   14   32 1   
    33   14   33 1   
@<TRIPOS>SUBSTRUCTURE
     1 KH2         1 TEMP              0 ****  ****    0 ROOT
