@<TRIPOS>MOLECULE
KH3
   72    74     1     0     0
SMALL
bcc


@<TRIPOS>ATOM
      1 O          -2.5840   -3.8830    2.0170 o         1 KH3     -0.844300
      2 C          -2.1930   -2.6830    2.0500 c         1 KH3      0.887600
      3 CA         -0.7110   -2.3780    1.6510 c3        1 KH3      0.020500
      4 N           0.0460   -3.5510    1.2290 n3        1 KH3     -0.890800
      5 CB         -0.6980   -1.2670    0.5940 c3        1 KH3     -0.084400
      6 CG         -0.7700    0.0950    1.2840 c3        1 KH3      0.145800
      7 ND         -1.0160    1.2580    0.4480 n3        1 KH3     -0.745600
      8 CE         -2.2490    1.2170   -0.3260 c3        1 KH3      0.186800
      9 C11        -3.4810    0.8140    0.5130 c3        1 KH3      0.129800
     10 N12        -4.7050    0.9590   -0.2570 n3        1 KH3     -0.821200
     11 C13        -5.8330    0.3030    0.3770 c3        1 KH3      0.158800
     12 C14        -7.1450    0.5140   -0.3780 c3        1 KH3     -0.080400
     13 C15        -8.2640   -0.2390    0.3080 c3        1 KH3     -0.081400
     14 C16        -9.5770   -0.0550   -0.4210 c3        1 KH3     -0.077400
     15 C17       -10.6970   -0.8090    0.2630 c3        1 KH3     -0.081400
     16 C18       -12.0080   -0.6310   -0.4590 c3        1 KH3     -0.090100
     17 C5'         0.1250    1.6480   -0.3640 c3        1 KH3      0.170800
     18 C4'         1.1400    2.4880    0.4350 c3        1 KH3      0.095100
     19 O4'         2.0530    1.6140    1.1260 os        1 KH3     -0.399600
     20 C1'         3.3840    1.7460    0.6350 c3        1 KH3      0.225800
     21 C2'         3.4210    2.9560   -0.3540 c3        1 KH3      0.077100
     22 O2'         4.1860    3.9990    0.2150 oh        1 KH3     -0.596800
     23 C3'         1.9570    3.4280   -0.4740 c3        1 KH3      0.125100
     24 O3'         1.7810    4.7810   -0.1300 oh        1 KH3     -0.578800
     25 N9          3.8400    0.5070    0.0440 na        1 KH3     -0.289000
     26 C8          3.2040   -0.7600    0.0030 cc        1 KH3      0.449700
     27 N7          3.9570   -1.7110   -0.5700 nd        1 KH3     -0.548100
     28 C5          5.1550   -1.0740   -0.9230 ca        1 KH3     -0.217200
     29 C6          6.3580   -1.5370   -1.5530 ca        1 KH3      0.749200
     30 N6          6.4450   -2.8340   -1.9980 nh        1 KH3     -0.953500
     31 C4          5.1040    0.3310   -0.5380 ca        1 KH3      0.434800
     32 N3          6.1340    1.2110   -0.7370 nb        1 KH3     -0.758000
     33 C2          7.2040    0.6310   -1.3250 ca        1 KH3      0.674900
     34 N1          7.3950   -0.6520   -1.7350 nb        1 KH3     -0.802000
     35 OXT        -2.9220   -1.7120    2.4040 o         1 KH3     -0.844300
     36 H1         -0.2020   -1.9970    2.5840 h1        1 KH3      0.042700
     37 H2         -0.1710   -4.2930    1.8740 hn        1 KH3      0.333800
     38 H3         -0.2990   -3.8480    0.3330 hn        1 KH3      0.333800
     39 H5          0.2230   -1.3220   -0.0450 hc        1 KH3      0.026200
     40 H6         -1.5820   -1.4050   -0.0820 hc        1 KH3      0.026200
     41 H7         -1.6000    0.0480    2.0530 h1        1 KH3      0.078200
     42 H8          0.2020    0.2780    1.8260 h1        1 KH3      0.078200
     43 H10        -2.4070    2.2540   -0.7420 h1        1 KH3      0.019200
     44 H11        -2.1670    0.5100   -1.2020 h1        1 KH3      0.019200
     45 H12        -3.3770   -0.2680    0.8380 h1        1 KH3      0.077200
     46 H13        -3.5060    1.4380    1.4540 h1        1 KH3      0.077200
     47 H14        -4.9070    1.9300   -0.4030 hn        1 KH3      0.330800
     48 H16        -5.6020   -0.8000    0.4190 h1        1 KH3      0.046200
     49 H17        -5.9790    0.6480    1.4440 h1        1 KH3      0.046200
     50 H18        -7.3960    1.6070   -0.4190 hc        1 KH3      0.035200
     51 H19        -7.0400    0.1550   -1.4350 hc        1 KH3      0.035200
     52 H20        -8.0070   -1.3310    0.3540 hc        1 KH3      0.046200
     53 H21        -8.3670    0.1190    1.3670 hc        1 KH3      0.046200
     54 H22        -9.8330    1.0360   -0.4680 hc        1 KH3      0.034200
     55 H23        -9.4730   -0.4150   -1.4790 hc        1 KH3      0.034200
     56 H24       -10.4380   -1.9000    0.3090 hc        1 KH3      0.040200
     57 H25       -10.7980   -0.4500    1.3210 hc        1 KH3      0.040200
     58 H26       -12.8190   -1.1950    0.0610 hc        1 KH3      0.027367
     59 H27       -12.2950    0.4480   -0.4950 hc        1 KH3      0.027367
     60 H28       -11.9340   -1.0070   -1.5080 hc        1 KH3      0.027367
     61 H29         0.6720    0.7560   -0.7900 h1        1 KH3      0.036200
     62 H30        -0.2300    2.2800   -1.2260 h1        1 KH3      0.036200
     63 H31         0.6310    3.0740    1.2510 h1        1 KH3      0.100700
     64 H32         4.0300    1.9580    1.5420 h2        1 KH3      0.090700
     65 H33         3.8300    2.6750   -1.3600 h1        1 KH3      0.076700
     66 H34         5.1140    3.7420    0.1200 ho        1 KH3      0.428000
     67 H35         1.6160    3.3680   -1.5450 h1        1 KH3      0.091700
     68 H36         2.2170    4.9300    0.7200 ho        1 KH3      0.418000
     69 H37         2.1920   -0.8990    0.4250 h5        1 KH3      0.118800
     70 H38         5.7380   -3.4680   -1.7120 hn        1 KH3      0.441300
     71 H39         7.3170   -3.1950   -2.2960 hn        1 KH3      0.441300
     72 H40         8.0710    1.3030   -1.5030 h5        1 KH3      0.041100
@<TRIPOS>BOND
     1    1    2 1   
     2    2    3 1   
     3    2   35 1   
     4    3    4 1   
     5    3    5 1   
     6    3   36 1   
     7    4   37 1   
     8    4   38 1   
     9    5    6 1   
    10    5   39 1   
    11    5   40 1   
    12    6    7 1   
    13    6   41 1   
    14    6   42 1   
    15    7    8 1   
    16    7   17 1   
    17    8    9 1   
    18    8   43 1   
    19    8   44 1   
    20    9   10 1   
    21    9   45 1   
    22    9   46 1   
    23   10   11 1   
    24   10   47 1   
    25   11   12 1   
    26   11   48 1   
    27   11   49 1   
    28   12   13 1   
    29   12   50 1   
    30   12   51 1   
    31   13   14 1   
    32   13   52 1   
    33   13   53 1   
    34   14   15 1   
    35   14   54 1   
    36   14   55 1   
    37   15   16 1   
    38   15   56 1   
    39   15   57 1   
    40   16   58 1   
    41   16   59 1   
    42   16   60 1   
    43   17   18 1   
    44   17   61 1   
    45   17   62 1   
    46   18   19 1   
    47   18   23 1   
    48   18   63 1   
    49   19   20 1   
    50   20   21 1   
    51   20   25 1   
    52   20   64 1   
    53   21   22 1   
    54   21   23 1   
    55   21   65 1   
    56   22   66 1   
    57   23   24 1   
    58   23   67 1   
    59   24   68 1   
    60   25   26 1   
    61   25   31 1   
    62   26   27 2   
    63   26   69 1   
    64   27   28 1   
    65   28   29 ar  
    66   28   31 ar  
    67   29   30 1   
    68   29   34 ar  
    69   30   70 1   
    70   30   71 1   
    71   31   32 ar  
    72   32   33 ar  
    73   33   34 ar  
    74   33   72 1   
@<TRIPOS>SUBSTRUCTURE
     1 KH3         1 TEMP              0 ****  ****    0 ROOT
