@<TRIPOS>MOLECULE
KH3
   75    77     1     0     0
SMALL
bcc


@<TRIPOS>ATOM
      1 O           3.7460   -0.5020    0.9650 o         1 KH3     -0.800800
      2 C           3.8640   -0.0270    2.1310 c         1 KH3      0.887600
      3 CA          2.5650    0.2780    2.9280 c3        1 KH3     -0.007500
      4 N           1.5550    0.9250    2.0370 nz        1 KH3     -0.826600
      5 CB          2.0720   -1.0690    3.4780 c3        1 KH3     -0.111400
      6 CG          3.1490   -1.7360    4.3310 c3        1 KH3      0.094800
      7 ND          3.5930   -3.1100    3.9010 nx        1 KH3     -0.667400
      8 CE          4.2680   -3.1260    2.5630 c3        1 KH3      0.063800
      9 C11         5.7420   -2.6620    2.6030 c3        1 KH3      0.093800
     10 N12         6.1800   -2.0630    1.3130 ny        1 KH3     -0.765000
     11 C13         7.6690   -1.8990    1.2640 c3        1 KH3      0.110800
     12 C14         8.1330   -1.3160   -0.0660 c3        1 KH3     -0.107400
     13 C15         9.6430   -1.1740   -0.0440 c3        1 KH3     -0.079400
     14 C16        10.1420   -0.6020   -1.3560 c3        1 KH3     -0.080400
     15 C17        11.6490   -0.4550   -1.3450 c3        1 KH3     -0.079400
     16 C18        12.1520    0.1130   -2.6470 c3        1 KH3     -0.097100
     17 C5'         2.4670   -4.1060    3.9230 c3        1 KH3      0.082800
     18 C4'         2.0530   -4.5460    5.3360 c3        1 KH3      0.072100
     19 O4'         1.4710   -3.4590    6.0400 os        1 KH3     -0.439600
     20 C1'         0.0610   -3.6870    6.3010 c3        1 KH3      0.221800
     21 C2'        -0.1640   -5.2240    6.1430 c3        1 KH3      0.094100
     22 O2'         0.0020   -5.8100    7.4130 oh        1 KH3     -0.581800
     23 C3'         1.0100   -5.6960    5.2480 c3        1 KH3      0.131100
     24 O3'         1.5840   -6.9130    5.6210 oh        1 KH3     -0.564800
     25 N9         -0.7370   -2.8750    5.4210 na        1 KH3     -0.285000
     26 C8         -1.0010   -3.1180    4.0390 cc        1 KH3      0.386700
     27 N7         -1.3580   -2.0290    3.3520 nd        1 KH3     -0.527100
     28 C5         -1.3100   -0.9730    4.2810 ca        1 KH3     -0.253200
     29 C6         -1.5880    0.4270    4.1800 ca        1 KH3      0.690200
     30 N6         -1.8530    0.9940    2.9290 nv        1 KH3     -0.936500
     31 C4         -0.9130   -1.4820    5.5920 ca        1 KH3      0.460800
     32 N3         -0.7910   -0.7010    6.6990 nb        1 KH3     -0.695000
     33 C2         -1.0990    0.6000    6.4630 ca        1 KH3      0.696900
     34 N1         -1.4720    1.2030    5.3020 nb        1 KH3     -0.744000
     35 OXT         4.9600    0.0610    2.7400 o         1 KH3     -0.800800
     36 H1          2.7940    0.9880    3.7760 hx        1 KH3      0.134700
     37 H2          1.7770    1.9210    1.9440 hn        1 KH3      0.473467
     38 H3          0.6050    0.8180    2.4090 hn        1 KH3      0.473467
     39 H5          1.1670   -0.9060    4.1280 hc        1 KH3      0.090200
     40 H6          1.7500   -1.7160    2.6170 hc        1 KH3      0.090200
     41 H7          2.7510   -1.8550    5.3870 hx        1 KH3      0.143700
     42 H8          4.0790   -1.0870    4.3760 hx        1 KH3      0.143700
     43 H10         3.6590   -2.4770    1.8590 hx        1 KH3      0.130700
     44 H11         4.2470   -4.1850    2.1690 hx        1 KH3      0.130700
     45 H12         5.9060   -1.8700    3.3960 hx        1 KH3      0.124700
     46 H13         6.4040   -3.5480    2.8290 hx        1 KH3      0.124700
     47 H14         5.8730   -2.6440    0.5280 hn        1 KH3      0.480800
     48 H16         7.9620   -1.2100    2.1080 hx        1 KH3      0.104700
     49 H17         8.1440   -2.9080    1.4290 hx        1 KH3      0.104700
     50 H18         7.6660   -0.3100   -0.2380 hc        1 KH3      0.072200
     51 H19         7.8330   -1.9850   -0.9160 hc        1 KH3      0.072200
     52 H20        10.1180   -2.1750    0.1330 hc        1 KH3      0.055700
     53 H21         9.9500   -0.5000    0.7990 hc        1 KH3      0.055700
     54 H22         9.6680    0.4000   -1.5360 hc        1 KH3      0.049200
     55 H23         9.8370   -1.2730   -2.2020 hc        1 KH3      0.049200
     56 H24        12.1220   -1.4560   -1.1620 hc        1 KH3      0.045200
     57 H25        11.9540    0.2160   -0.4980 hc        1 KH3      0.045200
     58 H26        13.2640    0.2130   -2.6180 hc        1 KH3      0.044367
     59 H27        11.7130    1.1220   -2.8360 hc        1 KH3      0.044367
     60 H28        11.8820   -0.5540   -3.5010 hc        1 KH3      0.044367
     61 H29         1.5830   -3.6500    3.3940 hx        1 KH3      0.112200
     62 H30         2.7970   -5.0340    3.3680 hx        1 KH3      0.112200
     63 H31         2.9450   -4.8790    5.9380 h1        1 KH3      0.107700
     64 H32        -0.0900   -3.3420    7.3710 h2        1 KH3      0.165700
     65 H33        -1.1550   -5.4750    5.6860 h1        1 KH3      0.101700
     66 H34        -0.8620   -6.1180    7.7220 ho        1 KH3      0.453000
     67 H35         0.6570   -5.8460    4.1900 h1        1 KH3      0.087700
     68 H36         1.5570   -6.9990    6.5890 ho        1 KH3      0.453000
     69 H37        -0.9900   -4.1390    3.6340 h5        1 KH3      0.080800
     70 H38        -2.2520    1.9130    2.9590 hn        1 KH3      0.430800
     71 H39        -2.3550    0.3770    2.3190 hn        1 KH3      0.430800
     72 H40        -1.0450    1.2760    7.3510 h5        1 KH3      0.090100
     73 HN3         1.6170    0.4870    1.1030 hn        1 KH3      0.473467
     74 HD1         4.2790   -3.4150    4.6100 hn        1 KH3      0.455800
     75 H122        5.7360   -1.1190    1.2010 hn        1 KH3      0.480800
@<TRIPOS>BOND
     1    1    2 1   
     2    2    3 1   
     3    2   35 1   
     4    3    4 1   
     5    3    5 1   
     6    3   36 1   
     7    4   37 1   
     8    4   38 1   
     9    4   73 1   
    10    5    6 1   
    11    5   39 1   
    12    5   40 1   
    13    6    7 1   
    14    6   41 1   
    15    6   42 1   
    16    7    8 1   
    17    7   17 1   
    18    7   74 1   
    19    8    9 1   
    20    8   43 1   
    21    8   44 1   
    22    9   10 1   
    23    9   45 1   
    24    9   46 1   
    25   10   11 1   
    26   10   47 1   
    27   10   75 1   
    28   11   12 1   
    29   11   48 1   
    30   11   49 1   
    31   12   13 1   
    32   12   50 1   
    33   12   51 1   
    34   13   14 1   
    35   13   52 1   
    36   13   53 1   
    37   14   15 1   
    38   14   54 1   
    39   14   55 1   
    40   15   16 1   
    41   15   56 1   
    42   15   57 1   
    43   16   58 1   
    44   16   59 1   
    45   16   60 1   
    46   17   18 1   
    47   17   61 1   
    48   17   62 1   
    49   18   19 1   
    50   18   23 1   
    51   18   63 1   
    52   19   20 1   
    53   20   21 1   
    54   20   25 1   
    55   20   64 1   
    56   21   22 1   
    57   21   23 1   
    58   21   65 1   
    59   22   66 1   
    60   23   24 1   
    61   23   67 1   
    62   24   68 1   
    63   25   26 1   
    64   25   31 1   
    65   26   27 2   
    66   26   69 1   
    67   27   28 1   
    68   28   29 ar  
    69   28   31 ar  
    70   29   30 1   
    71   29   34 ar  
    72   30   70 1   
    73   30   71 1   
    74   31   32 ar  
    75   32   33 ar  
    76   33   34 ar  
    77   33   72 1   
@<TRIPOS>SUBSTRUCTURE
     1 KH3         1 TEMP              0 ****  ****    0 ROOT
