@<TRIPOS>MOLECULE
KH3
   76    78     1     0     0
SMALL
bcc


@<TRIPOS>ATOM
      1 O           4.5430   -0.6400   -1.0320 o         1 KH3     -0.794800
      2 C           4.0670    0.3760   -0.4530 c         1 KH3      0.894600
      3 CA          2.6010    0.7800   -0.7990 c3        1 KH3     -0.018500
      4 N           2.3780    0.6320   -2.2680 n4        1 KH3     -0.824600
      5 CB          1.6870   -0.1220    0.0480 c3        1 KH3     -0.106400
      6 CG          2.0430    0.0030    1.5310 c3        1 KH3      0.097800
      7 ND          2.4790   -1.2540    2.2370 n4        1 KH3     -0.677400
      8 CE          3.7280   -1.8710    1.6810 c3        1 KH3      0.065800
      9 C11         5.0380   -1.2390    2.2080 c3        1 KH3      0.101800
     10 N12         6.1290   -1.2110    1.1940 n4        1 KH3     -0.768000
     11 C13         7.4620   -1.5770    1.7670 c3        1 KH3      0.108800
     12 C14         8.5760   -1.4690    0.7300 c3        1 KH3     -0.107400
     13 C15         9.8940   -1.8540    1.3770 c3        1 KH3     -0.079400
     14 C16        11.0250   -1.7570    0.3720 c3        1 KH3     -0.080400
     15 C17        12.3460   -2.1390    1.0080 c3        1 KH3     -0.078400
     16 C18        13.4750   -2.0460    0.0140 c3        1 KH3     -0.098100
     17 C5'         1.3640   -2.2640    2.2740 c3        1 KH3      0.104800
     18 C4'         1.4690   -3.2310    3.4530 c3        1 KH3      0.071100
     19 O4'         1.1430   -2.5360    4.6590 os        1 KH3     -0.446600
     20 C1'         0.5430   -3.4720    5.6010 c3        1 KH3      0.235800
     21 C2'         0.1210   -4.7450    4.7820 c3        1 KH3      0.084100
     22 O2'         0.9650   -5.7920    5.2040 oh        1 KH3     -0.586800
     23 C3'         0.4720   -4.4090    3.3140 c3        1 KH3      0.126100
     24 O3'         1.0410   -5.4500    2.5780 oh        1 KH3     -0.567800
     25 N9         -0.5290   -2.8350    6.3160 na        1 KH3     -0.282000
     26 C8         -1.8510   -2.5500    5.8840 cc        1 KH3      0.485700
     27 N7         -2.6380   -2.0250    6.8330 nd        1 KH3     -0.543100
     28 C5         -1.8280   -1.9400    7.9750 ca        1 KH3     -0.144200
     29 C6         -2.0370   -1.5170    9.3040 ca        1 KH3      0.552200
     30 N6         -3.3740   -1.0480    9.7120 n4        1 KH3     -0.821300
     31 C4         -0.4720   -2.4360    7.6690 ca        1 KH3      0.466800
     32 N3          0.5310   -2.4700    8.5800 nb        1 KH3     -0.630000
     33 C2          0.1750   -2.0140    9.8090 ca        1 KH3      0.697900
     34 N1         -1.0400   -1.5450   10.2210 nb        1 KH3     -0.657000
     35 OXT         4.6270    0.9980    0.4850 o         1 KH3     -0.794800
     36 H1          2.4340    1.8640   -0.5250 hx        1 KH3      0.138700
     37 H2          1.3850    0.5510   -2.4940 hn        1 KH3      0.474133
     38 H3          2.8850   -0.2090   -2.5930 hn        1 KH3      0.474133
     39 H5          1.7650   -1.1830   -0.3120 hc        1 KH3      0.086200
     40 H6          0.6170    0.1980   -0.0830 hc        1 KH3      0.086200
     41 H7          2.8750    0.7660    1.6760 hx        1 KH3      0.135200
     42 H8          1.1350    0.3770    2.0920 hx        1 KH3      0.135200
     43 H10         3.6700   -1.8150    0.5500 hx        1 KH3      0.133200
     44 H11         3.7280   -2.9650    1.9690 hx        1 KH3      0.133200
     45 H12         4.8720   -0.1670    2.5330 hx        1 KH3      0.120700
     46 H13         5.3890   -1.8340    3.1010 hx        1 KH3      0.120700
     47 H14         6.1780   -0.2460    0.7900 hn        1 KH3      0.487800
     48 H16         7.4010   -2.6340    2.1550 hx        1 KH3      0.100700
     49 H17         7.6720   -0.8800    2.6270 hx        1 KH3      0.100700
     50 H18         8.6460   -0.4200    0.3370 hc        1 KH3      0.075200
     51 H19         8.3730   -2.1500   -0.1390 hc        1 KH3      0.075200
     52 H20        10.1050   -1.1740    2.2450 hc        1 KH3      0.054700
     53 H21         9.8330   -2.9010    1.7730 hc        1 KH3      0.054700
     54 H22        11.0890   -0.7100   -0.0260 hc        1 KH3      0.050700
     55 H23        10.8170   -2.4340   -0.4980 hc        1 KH3      0.050700
     56 H24        12.2810   -3.1860    1.4080 hc        1 KH3      0.045200
     57 H25        12.5530   -1.4630    1.8790 hc        1 KH3      0.045200
     58 H26        14.4390   -2.3320    0.5020 hc        1 KH3      0.046367
     59 H27        13.3020   -2.7320   -0.8500 hc        1 KH3      0.046367
     60 H28        13.5740   -1.0050   -0.3770 hc        1 KH3      0.046367
     61 H29         0.3900   -1.6980    2.3440 hx        1 KH3      0.121200
     62 H30         1.3790   -2.8650    1.3180 hx        1 KH3      0.121200
     63 H31         2.5120   -3.6450    3.5620 h1        1 KH3      0.082700
     64 H32         1.3630   -3.7420    6.3390 h2        1 KH3      0.149700
     65 H33        -0.9640   -4.9980    4.8920 h1        1 KH3      0.099700
     66 H34         0.4190   -6.5090    5.5590 ho        1 KH3      0.459000
     67 H35        -0.4470   -4.0970    2.7450 h1        1 KH3      0.097700
     68 H36         1.5110   -6.0540    3.1780 ho        1 KH3      0.453000
     69 H37        -2.1780   -2.7620    4.8540 h5        1 KH3      0.097800
     70 H38        -3.9860   -1.8670    9.8460 hn        1 KH3      0.488800
     71 H39        -3.7630   -0.4520    8.9690 hn        1 KH3      0.488800
     72 H40         0.9730   -2.0250   10.5940 h5        1 KH3      0.118100
     73 HN3         2.7730    1.4500   -2.7500 hn        1 KH3      0.474133
     74 HD1         2.6670   -0.9800    3.2170 hn        1 KH3      0.466800
     75 H122        5.9060   -1.8270    0.3970 hn        1 KH3      0.487800
     76 H63        -3.3280   -0.5160   10.5950 hn        1 KH3      0.488800
@<TRIPOS>BOND
     1    1    2 1   
     2    2    3 1   
     3    2   35 1   
     4    3    4 1   
     5    3    5 1   
     6    3   36 1   
     7    4   37 1   
     8    4   38 1   
     9    4   73 1   
    10    5    6 1   
    11    5   39 1   
    12    5   40 1   
    13    6    7 1   
    14    6   41 1   
    15    6   42 1   
    16    7    8 1   
    17    7   17 1   
    18    7   74 1   
    19    8    9 1   
    20    8   43 1   
    21    8   44 1   
    22    9   10 1   
    23    9   45 1   
    24    9   46 1   
    25   10   11 1   
    26   10   47 1   
    27   10   75 1   
    28   11   12 1   
    29   11   48 1   
    30   11   49 1   
    31   12   13 1   
    32   12   50 1   
    33   12   51 1   
    34   13   14 1   
    35   13   52 1   
    36   13   53 1   
    37   14   15 1   
    38   14   54 1   
    39   14   55 1   
    40   15   16 1   
    41   15   56 1   
    42   15   57 1   
    43   16   58 1   
    44   16   59 1   
    45   16   60 1   
    46   17   18 1   
    47   17   61 1   
    48   17   62 1   
    49   18   19 1   
    50   18   23 1   
    51   18   63 1   
    52   19   20 1   
    53   20   21 1   
    54   20   25 1   
    55   20   64 1   
    56   21   22 1   
    57   21   23 1   
    58   21   65 1   
    59   22   66 1   
    60   23   24 1   
    61   23   67 1   
    62   24   68 1   
    63   25   26 1   
    64   25   31 1   
    65   26   27 2   
    66   26   69 1   
    67   27   28 1   
    68   28   29 ar  
    69   28   31 ar  
    70   29   30 1   
    71   29   34 ar  
    72   30   70 1   
    73   30   71 1   
    74   30   76 1   
    75   31   32 ar  
    76   32   33 ar  
    77   33   34 ar  
    78   33   72 1   
@<TRIPOS>SUBSTRUCTURE
     1 KH3         1 TEMP              0 ****  ****    0 ROOT
