@<TRIPOS>MOLECULE
KH3
   75    77     1     0     0
SMALL
bcc


@<TRIPOS>ATOM
      1 O           3.7350   -0.5290    0.9460 o         1 KH3     -0.800800
      2 C           3.8510   -0.0390    2.1060 c         1 KH3      0.887600
      3 CA          2.5500    0.2670    2.9000 c3        1 KH3     -0.007500
      4 N           1.5360    0.8960    2.0020 n4        1 KH3     -0.826600
      5 CB          2.0670   -1.0760    3.4660 c3        1 KH3     -0.111400
      6 CG          3.1490   -1.7250    4.3280 c3        1 KH3      0.094800
      7 ND          3.6030   -3.1010    3.9140 n4        1 KH3     -0.667400
      8 CE          4.2770   -3.1290    2.5770 c3        1 KH3      0.063800
      9 C11         5.7480   -2.6540    2.6100 c3        1 KH3      0.093800
     10 N12         6.1810   -2.0690    1.3120 n4        1 KH3     -0.765000
     11 C13         7.6680   -1.8870    1.2640 c3        1 KH3      0.110800
     12 C14         8.1290   -1.3220   -0.0740 c3        1 KH3     -0.107400
     13 C15         9.6370   -1.1570   -0.0500 c3        1 KH3     -0.079400
     14 C16        10.1320   -0.6030   -1.3710 c3        1 KH3     -0.080400
     15 C17        11.6370   -0.4340   -1.3570 c3        1 KH3     -0.079400
     16 C18        12.1370    0.1160   -2.6680 c3        1 KH3     -0.097100
     17 C5'         2.4830   -4.1050    3.9490 c3        1 KH3      0.082800
     18 C4'         2.0720   -4.5300    5.3680 c3        1 KH3      0.072100
     19 O4'         1.4840   -3.4380    6.0590 os        1 KH3     -0.439600
     20 C1'         0.0770   -3.6720    6.3240 c3        1 KH3      0.221800
     21 C2'        -0.1390   -5.2130    6.1850 c3        1 KH3      0.094100
     22 O2'         0.0330   -5.7830    7.4610 oh        1 KH3     -0.581800
     23 C3'         1.0370   -5.6870    5.2950 c3        1 KH3      0.131100
     24 O3'         1.6200   -6.8960    5.6810 oh        1 KH3     -0.564800
     25 N9         -0.7280   -2.8760    5.4350 na        1 KH3     -0.285000
     26 C8         -0.9920   -3.1370    4.0570 cc        1 KH3      0.386700
     27 N7         -1.3570   -2.0590    3.3570 nd        1 KH3     -0.527100
     28 C5         -1.3140   -0.9920    4.2730 ca        1 KH3     -0.253200
     29 C6         -1.6020    0.4040    4.1560 ca        1 KH3      0.690200
     30 N6         -1.8720    0.9540    2.8980 nh        1 KH3     -0.936500
     31 C4         -0.9130   -1.4830    5.5900 ca        1 KH3      0.460800
     32 N3         -0.7940   -0.6880    6.6870 nb        1 KH3     -0.695000
     33 C2         -1.1110    0.6090    6.4360 ca        1 KH3      0.696900
     34 N1         -1.4890    1.1950    5.2680 nb        1 KH3     -0.744000
     35 OXT         4.9470    0.0650    2.7130 o         1 KH3     -0.800800
     36 H1          2.7750    0.9890    3.7390 hx        1 KH3      0.134700
     37 H2          0.5870    0.7880    2.3760 hn        1 KH3      0.473467
     38 H3          1.7510    1.8930    1.8960 hn        1 KH3      0.473467
     39 H5          1.1610   -0.9110    4.1160 hc        1 KH3      0.090200
     40 H6          1.7490   -1.7360    2.6140 hc        1 KH3      0.090200
     41 H7          2.7530   -1.8330    5.3850 hx        1 KH3      0.143700
     42 H8          4.0740   -1.0690    4.3630 hx        1 KH3      0.143700
     43 H10         4.2630   -4.1930    2.1960 hx        1 KH3      0.130700
     44 H11         3.6630   -2.4940    1.8650 hx        1 KH3      0.130700
     45 H12         6.4160   -3.5320    2.8480 hx        1 KH3      0.124700
     46 H13         5.9060   -1.8500    3.3930 hx        1 KH3      0.124700
     47 H14         5.8850   -2.6670    0.5350 hn        1 KH3      0.480800
     48 H16         7.9490   -1.1780    2.0970 hx        1 KH3      0.105200
     49 H17         8.1560   -2.8860    1.4490 hx        1 KH3      0.105200
     50 H18         7.8410   -2.0110   -0.9120 hc        1 KH3      0.072200
     51 H19         7.6480   -0.3250   -0.2660 hc        1 KH3      0.072200
     52 H20        10.1250   -2.1480    0.1470 hc        1 KH3      0.055700
     53 H21         9.9310   -0.4640    0.7810 hc        1 KH3      0.055700
     54 H22         9.8400   -1.2940   -2.2050 hc        1 KH3      0.049200
     55 H23         9.6450    0.3870   -1.5720 hc        1 KH3      0.049200
     56 H24        11.9290    0.2570   -0.5220 hc        1 KH3      0.045200
     57 H25        12.1240   -1.4240   -1.1530 hc        1 KH3      0.045200
     58 H26        11.6830    1.1140   -2.8780 hc        1 KH3      0.044367
     59 H27        11.8790   -0.5720   -3.5100 hc        1 KH3      0.044367
     60 H28        13.2470    0.2330   -2.6370 hc        1 KH3      0.044367
     61 H29         1.5960   -3.6600    3.4150 hx        1 KH3      0.112200
     62 H30         2.8180   -5.0360    3.4050 hx        1 KH3      0.112200
     63 H31         2.9680   -4.8500    5.9730 h1        1 KH3      0.107700
     64 H32        -0.0760   -3.3160    7.3900 h2        1 KH3      0.165700
     65 H33        -1.1290   -5.4760    5.7320 h1        1 KH3      0.101700
     66 H34        -0.8290   -6.0920    7.7760 ho        1 KH3      0.453000
     67 H35         0.6840   -5.8530    4.2390 h1        1 KH3      0.087700
     68 H36         1.5940   -6.9710    6.6500 ho        1 KH3      0.453000
     69 H37        -0.9740   -4.1630    3.6640 h5        1 KH3      0.080800
     70 H38        -2.3710    0.3280    2.2960 hn        1 KH3      0.430800
     71 H39        -2.2770    1.8720    2.9180 hn        1 KH3      0.430800
     72 H40        -1.0600    1.2950    7.3150 h5        1 KH3      0.090100
     73 HN3         1.6000    0.4470    1.0740 hn        1 KH3      0.473467
     74 HD1         4.2910   -3.3930    4.6260 hn        1 KH3      0.455800
     75 H122        5.7250   -1.1320    1.1840 hn        1 KH3      0.480800
@<TRIPOS>BOND
     1    1    2 1   
     2    2    3 1   
     3    2   35 1   
     4    3    4 1   
     5    3    5 1   
     6    3   36 1   
     7    4   37 1   
     8    4   38 1   
     9    4   73 1   
    10    5    6 1   
    11    5   39 1   
    12    5   40 1   
    13    6    7 1   
    14    6   41 1   
    15    6   42 1   
    16    7    8 1   
    17    7   17 1   
    18    7   74 1   
    19    8    9 1   
    20    8   43 1   
    21    8   44 1   
    22    9   10 1   
    23    9   45 1   
    24    9   46 1   
    25   10   11 1   
    26   10   47 1   
    27   10   75 1   
    28   11   12 1   
    29   11   48 1   
    30   11   49 1   
    31   12   13 1   
    32   12   50 1   
    33   12   51 1   
    34   13   14 1   
    35   13   52 1   
    36   13   53 1   
    37   14   15 1   
    38   14   54 1   
    39   14   55 1   
    40   15   16 1   
    41   15   56 1   
    42   15   57 1   
    43   16   58 1   
    44   16   59 1   
    45   16   60 1   
    46   17   18 1   
    47   17   61 1   
    48   17   62 1   
    49   18   19 1   
    50   18   23 1   
    51   18   63 1   
    52   19   20 1   
    53   20   21 1   
    54   20   25 1   
    55   20   64 1   
    56   21   22 1   
    57   21   23 1   
    58   21   65 1   
    59   22   66 1   
    60   23   24 1   
    61   23   67 1   
    62   24   68 1   
    63   25   26 1   
    64   25   31 1   
    65   26   27 2   
    66   26   69 1   
    67   27   28 1   
    68   28   29 ar  
    69   28   31 ar  
    70   29   30 1   
    71   29   34 ar  
    72   30   70 1   
    73   30   71 1   
    74   31   32 ar  
    75   32   33 ar  
    76   33   34 ar  
    77   33   72 1   
@<TRIPOS>SUBSTRUCTURE
     1 KH3         1 TEMP              0 ****  ****    0 ROOT
