@<TRIPOS>MOLECULE
KH4
   54    54     1     0     0
SMALL
bcc


@<TRIPOS>ATOM
      1 C16         0.0000    0.0000    0.0000 c         1 KH4      0.278100
      2 O3         -0.6060   -0.2150   -1.0290 o         1 KH4     -0.473100
      3 C17         1.5080    0.0000    0.0000 c3        1 KH4      0.135100
      4 O4          1.9830    0.0000    1.3480 oh        1 KH4     -0.603800
      5 C18         2.0170    1.2490   -0.7210 c3        1 KH4     -0.098000
      6 C19         3.5400    1.3260   -0.5930 c3        1 KH4      0.312400
      7 C20         1.6340    1.1750   -2.2010 c3        1 KH4      0.005900
      8 C21         1.3890    2.4940   -0.0920 c3        1 KH4      0.005900
      9 P           5.5750    2.8910   -1.3340 p5        1 KH4      0.823900
     10 O1P         6.1080    3.2280    0.1470 o         1 KH4     -0.449500
     11 O2P         4.0160    2.4930   -1.2660 os        1 KH4     -0.491200
     12 O3P         5.7580    4.1830   -2.2780 o         1 KH4     -0.449500
     13 OXT         6.3500    1.7600   -1.8910 o         1 KH4     -0.449500
     14 N2         -0.6740    0.2380    1.1430 ny        1 KH4      0.118200
     15 C15        -2.1340    0.3490    1.1210 c3        1 KH4     -0.011200
     16 C14        -2.6450    0.6190    2.5380 c3        1 KH4     -0.035400
     17 C13        -4.1480    0.7340    2.5170 c         1 KH4      0.031100
     18 O2         -4.7500    0.6120    1.4710 o         1 KH4     -0.618100
     19 C4         -9.2520    2.3440    9.9990 c2        1 KH4     -0.369200
     20 N3        -10.5910    2.4870   10.1910 nu        1 KH4      0.285700
     21 C2        -11.1990    2.3390    8.9850 ce        1 KH4      0.158200
     22 N4        -10.2920    2.1160    8.0770 ne        1 KH4     -0.647700
     23 C5         -9.0700    2.1110    8.6670 c1        1 KH4      0.066500
     24 O6         -9.8980    1.8080    6.0320 os        1 KH4     -0.016400
     25 C22        -8.9070    1.7930    6.7370 c1        1 KH4      0.363600
     26 S1         -8.5990    1.4910    5.0280 s4        1 KH4     -0.420500
     27 C11        -6.7940    1.3540    5.0540 c3        1 KH4      0.138900
     28 C12        -6.2820    1.0840    3.6390 c3        1 KH4      0.014800
     29 N1         -4.8220    0.9720    3.6590 ny        1 KH4      0.259200
     30 H15         1.8690   -0.8850   -0.5100 h1        1 KH4      0.055700
     31 H16         2.3770   -0.8340    1.5420 ho        1 KH4      0.415000
     32 H17         3.9850    0.4450   -1.0390 h1        1 KH4     -0.009300
     33 H18         3.8120    1.3770    0.4550 h1        1 KH4     -0.009300
     34 H19         2.2930    1.8130   -2.7770 hc        1 KH4      0.013533
     35 H20         1.7270    0.1530   -2.5470 hc        1 KH4      0.013533
     36 H21         0.6110    1.5070   -2.3260 hc        1 KH4      0.013533
     37 H22         1.7120    3.3750   -0.6330 hc        1 KH4      0.013533
     38 H23         1.7000    2.5720    0.9430 hc        1 KH4      0.013533
     39 H24         0.3090    2.4160   -0.1390 hc        1 KH4      0.013533
     40 H14        -0.3220    1.0970    1.5150 hn        1 KH4      0.248800
     41 H13        -2.5610   -0.5760    0.7530 hx        1 KH4      0.091700
     42 H12        -2.4250    1.1650    0.4700 hx        1 KH4      0.091700
     43 H10        -2.2180    1.5440    2.9060 hc        1 KH4      0.007700
     44 H11        -2.3550   -0.1970    3.1880 hc        1 KH4      0.007700
     45 H5         -6.5040    0.5380    5.7050 h1        1 KH4      0.040200
     46 H6         -6.3670    2.2790    5.4220 h1        1 KH4      0.040200
     47 H7         -6.7100    0.1590    3.2710 hx        1 KH4      0.080700
     48 H8         -6.5730    1.9000    2.9880 hx        1 KH4      0.080700
     49 H9         -4.5960    0.2300    4.2900 hn        1 KH4      0.173800
     50 H1         -8.4800    2.4040   10.7560 h4        1 KH4      0.155000
     51 H2        -11.0460    2.6670   11.0640 hn        1 KH4      0.128700
     52 H221       -0.4480   -0.5050    1.7740 hn        1 KH4      0.248800
     53 H121       -4.4700    1.8330    4.0300 hn        1 KH4      0.173800
     54 H3        -12.2650    2.3980    8.8070 h5        1 KH4      0.031800
@<TRIPOS>BOND
     1    1    2 2   
     2    1    3 1   
     3    1   14 1   
     4    3    4 1   
     5    3    5 1   
     6    3   30 1   
     7    4   31 1   
     8    5    6 1   
     9    5    7 1   
    10    5    8 1   
    11    6   11 1   
    12    6   32 1   
    13    6   33 1   
    14    7   34 1   
    15    7   35 1   
    16    7   36 1   
    17    8   37 1   
    18    8   38 1   
    19    8   39 1   
    20    9   10 1   
    21    9   11 1   
    22    9   12 1   
    23    9   13 1   
    24   14   15 1   
    25   14   40 1   
    26   14   52 1   
    27   15   16 1   
    28   15   41 1   
    29   15   42 1   
    30   16   17 1   
    31   16   43 1   
    32   16   44 1   
    33   17   18 2   
    34   17   29 1   
    35   19   20 1   
    36   19   23 2   
    37   19   50 1   
    38   20   21 2   
    39   20   51 1   
    40   21   22 1   
    41   21   54 1   
    42   22   23 2   
    43   24   25 1   
    44   24   26 1   
    45   25   26 3   
    46   26   27 1   
    47   27   28 1   
    48   27   45 1   
    49   27   46 1   
    50   28   29 1   
    51   28   47 1   
    52   28   48 1   
    53   29   49 1   
    54   29   53 1   
@<TRIPOS>SUBSTRUCTURE
     1 KH4         1 TEMP              0 ****  ****    0 ROOT
