@<TRIPOS>MOLECULE
KHA
   46    47     1     0     0
SMALL
bcc


@<TRIPOS>ATOM
      1 O1         -0.5520   -0.2080   -0.0620 o         1 KHA     -0.390100
      2 C8          0.6650   -0.3170   -0.0230 c         1 KHA      0.561700
      3 N1          1.2390   -0.7210    1.3170 n4        1 KHA     -0.674800
      4 C9          1.4380    0.4650    2.2110 c3        1 KHA      0.104800
      5 C10         2.5960    0.2590    3.1940 c3        1 KHA      0.105400
      6 O2          3.7350   -0.0380    2.4020 oh        1 KHA     -0.651800
      7 C6          1.6130   -0.1400   -1.1340 ca        1 KHA     -0.166600
      8 C3          1.0980   -0.3110   -2.4300 ca        1 KHA     -0.060500
      9 C1          1.9350   -0.1650   -3.5350 ca        1 KHA     -0.108500
     10 C2          2.9610    0.2000   -0.9540 ca        1 KHA     -0.060500
     11 C5          3.7880    0.3540   -2.0660 ca        1 KHA     -0.108500
     12 C4          3.2840    0.1630   -3.3600 ca        1 KHA     -0.088300
     13 C7          4.2090    0.1930   -4.5390 c3        1 KHA      0.155100
     14 N2          4.3190    1.5170   -5.2550 n4        1 KHA     -0.606800
     15 C11         2.9830    1.9240   -5.7720 c3        1 KHA      0.085100
     16 C16         5.2810    1.3350   -6.4120 c3        1 KHA      0.119800
     17 C15         4.8620    2.5620   -4.3140 c3        1 KHA      0.119800
     18 C13         5.2220    3.8770   -4.9940 c3        1 KHA     -0.103400
     19 C14         6.1810    3.6630   -6.1430 c3        1 KHA     -0.099400
     20 C12         5.6460    2.6350   -7.1140 c3        1 KHA     -0.103400
     21 H1          2.1470   -1.1870    1.1790 hn        1 KHA      0.474300
     22 H9C1        0.4830    0.6570    2.7790 hx        1 KHA      0.120700
     23 H9C2        1.6650    1.3570    1.5590 hx        1 KHA      0.120700
     24 H101        2.7390    1.2120    3.7720 h1        1 KHA      0.086700
     25 H102        2.3900   -0.5850    3.9070 h1        1 KHA      0.086700
     26 H2          4.5050   -0.0470    2.9880 ho        1 KHA      0.462000
     27 H3          0.0310   -0.5640   -2.5740 ha        1 KHA      0.181500
     28 HB          1.5250   -0.3260   -4.5470 ha        1 KHA      0.167500
     29 HA          3.3920    0.3590    0.0520 ha        1 KHA      0.181500
     30 H5          4.8500    0.6120   -1.9150 ha        1 KHA      0.167500
     31 H7C1        3.8620   -0.5670   -5.3010 hx        1 KHA      0.113200
     32 H7C2        5.2490   -0.0960   -4.2030 hx        1 KHA      0.113200
     33 H111        2.2710    2.0490   -4.9130 hx        1 KHA      0.101700
     34 H112        3.0740    2.8990   -6.3240 hx        1 KHA      0.101700
     35 H113        2.5960    1.1370   -6.4720 hx        1 KHA      0.101700
     36 H161        4.8050    0.6220   -7.1430 hx        1 KHA      0.095200
     37 H162        6.2170    0.8640   -5.9940 hx        1 KHA      0.095200
     38 H151        5.7880    2.1270   -3.8390 hx        1 KHA      0.095200
     39 H152        4.0880    2.7350   -3.5160 hx        1 KHA      0.095200
     40 H131        5.6980    4.5340   -4.2150 hc        1 KHA      0.089950
     41 H132        4.2970    4.4030   -5.3490 hc        1 KHA      0.089950
     42 H141        6.3440    4.6360   -6.6810 hc        1 KHA      0.085700
     43 H142        7.1800    3.3330   -5.7500 hc        1 KHA      0.085700
     44 H121        4.7630    3.0460   -7.6710 hc        1 KHA      0.089950
     45 H122        6.4320    2.3870   -7.8810 hc        1 KHA      0.089950
     46 H12         0.5950   -1.3820    1.7730 hn        1 KHA      0.474300
@<TRIPOS>BOND
     1    1    2 2   
     2    2    3 1   
     3    2    7 1   
     4    3    4 1   
     5    3   21 1   
     6    3   46 1   
     7    4    5 1   
     8    4   22 1   
     9    4   23 1   
    10    5    6 1   
    11    5   24 1   
    12    5   25 1   
    13    6   26 1   
    14    7    8 ar  
    15    7   10 ar  
    16    8    9 ar  
    17    8   27 1   
    18    9   12 ar  
    19    9   28 1   
    20   10   11 ar  
    21   10   29 1   
    22   11   12 ar  
    23   11   30 1   
    24   12   13 1   
    25   13   14 1   
    26   13   31 1   
    27   13   32 1   
    28   14   15 1   
    29   14   16 1   
    30   14   17 1   
    31   15   33 1   
    32   15   34 1   
    33   15   35 1   
    34   16   20 1   
    35   16   36 1   
    36   16   37 1   
    37   17   18 1   
    38   17   38 1   
    39   17   39 1   
    40   18   19 1   
    41   18   40 1   
    42   18   41 1   
    43   19   20 1   
    44   19   42 1   
    45   19   43 1   
    46   20   44 1   
    47   20   45 1   
@<TRIPOS>SUBSTRUCTURE
     1 KHA         1 TEMP              0 ****  ****    0 ROOT
