@<TRIPOS>MOLECULE
KHA
   46    47     1     0     0
SMALL
bcc


@<TRIPOS>ATOM
      1 O1         -0.5520   -0.1880   -0.0510 o         1 KHA     -0.390100
      2 C8          0.6640   -0.3080   -0.0180 c         1 KHA      0.561700
      3 N1          1.2400   -0.7250    1.3160 n4        1 KHA     -0.674800
      4 C9          1.4550    0.4540    2.2160 c3        1 KHA      0.104800
      5 C10         2.6150    0.2310    3.1930 c3        1 KHA      0.105400
      6 O2          3.7480   -0.0720    2.3940 oh        1 KHA     -0.651800
      7 C6          1.6080   -0.1330   -1.1330 ca        1 KHA     -0.166600
      8 C3          1.0850   -0.2900   -2.4280 ca        1 KHA     -0.060500
      9 C1          1.9190   -0.1450   -3.5360 ca        1 KHA     -0.108500
     10 C2          2.9600    0.1930   -0.9580 ca        1 KHA     -0.060500
     11 C5          3.7830    0.3460   -2.0730 ca        1 KHA     -0.108500
     12 C4          3.2720    0.1690   -3.3650 ca        1 KHA     -0.088300
     13 C7          4.1910    0.1970   -4.5480 c3        1 KHA      0.155100
     14 N2          4.3100    1.5240   -5.2560 n4        1 KHA     -0.606800
     15 C11         2.9760    1.9480   -5.7640 c3        1 KHA      0.085100
     16 C16         5.2650    1.3410   -6.4190 c3        1 KHA      0.119800
     17 C15         4.8690    2.5580   -4.3120 c3        1 KHA      0.119800
     18 C13         5.2380    3.8730   -4.9840 c3        1 KHA     -0.103400
     19 C14         6.1890    3.6580   -6.1390 c3        1 KHA     -0.099400
     20 C12         5.6390    2.6420   -7.1150 c3        1 KHA     -0.103400
     21 H1          0.5930   -1.3830    1.7720 hn        1 KHA      0.474300
     22 H9C1        1.6880    1.3470    1.5670 hx        1 KHA      0.120700
     23 H9C2        0.5040    0.6520    2.7890 hx        1 KHA      0.120700
     24 H101        2.4050   -0.6140    3.9020 h1        1 KHA      0.086700
     25 H102        2.7710    1.1800    3.7750 h1        1 KHA      0.086700
     26 H2          4.5210   -0.0920    2.9760 ho        1 KHA      0.462000
     27 H3          0.0150   -0.5330   -2.5680 ha        1 KHA      0.181500
     28 HB          1.5020   -0.2960   -4.5470 ha        1 KHA      0.167500
     29 HA          3.3980    0.3420    0.0470 ha        1 KHA      0.181500
     30 H5          4.8480    0.5940   -1.9260 ha        1 KHA      0.167500
     31 H7C1        3.8330   -0.5550   -5.3140 hx        1 KHA      0.113200
     32 H7C2        5.2300   -0.1040   -4.2190 hx        1 KHA      0.113200
     33 H111        3.0740    2.9250   -6.3100 hx        1 KHA      0.101700
     34 H112        2.2700    2.0740   -4.9010 hx        1 KHA      0.101700
     35 H113        2.5780    1.1690   -6.4680 hx        1 KHA      0.101700
     36 H161        4.7790    0.6370   -7.1520 hx        1 KHA      0.095200
     37 H162        6.1990    0.8580   -6.0090 hx        1 KHA      0.095200
     38 H151        5.7930    2.1110   -3.8430 hx        1 KHA      0.095200
     39 H152        4.1000    2.7330   -3.5080 hx        1 KHA      0.095200
     40 H131        4.3170    4.4120   -5.3320 hc        1 KHA      0.089950
     41 H132        5.7240    4.5210   -4.2040 hc        1 KHA      0.089950
     42 H141        7.1870    3.3150   -5.7530 hc        1 KHA      0.085700
     43 H142        6.3590    4.6330   -6.6710 hc        1 KHA      0.085700
     44 H121        4.7580    3.0650   -7.6650 hc        1 KHA      0.089950
     45 H122        6.4190    2.3910   -7.8870 hc        1 KHA      0.089950
     46 H12         2.1440   -1.1990    1.1710 hn        1 KHA      0.474300
@<TRIPOS>BOND
     1    1    2 2   
     2    2    3 1   
     3    2    7 1   
     4    3    4 1   
     5    3   21 1   
     6    3   46 1   
     7    4    5 1   
     8    4   22 1   
     9    4   23 1   
    10    5    6 1   
    11    5   24 1   
    12    5   25 1   
    13    6   26 1   
    14    7    8 ar  
    15    7   10 ar  
    16    8    9 ar  
    17    8   27 1   
    18    9   12 ar  
    19    9   28 1   
    20   10   11 ar  
    21   10   29 1   
    22   11   12 ar  
    23   11   30 1   
    24   12   13 1   
    25   13   14 1   
    26   13   31 1   
    27   13   32 1   
    28   14   15 1   
    29   14   16 1   
    30   14   17 1   
    31   15   33 1   
    32   15   34 1   
    33   15   35 1   
    34   16   20 1   
    35   16   36 1   
    36   16   37 1   
    37   17   18 1   
    38   17   38 1   
    39   17   39 1   
    40   18   19 1   
    41   18   40 1   
    42   18   41 1   
    43   19   20 1   
    44   19   42 1   
    45   19   43 1   
    46   20   44 1   
    47   20   45 1   
@<TRIPOS>SUBSTRUCTURE
     1 KHA         1 TEMP              0 ****  ****    0 ROOT
