@<TRIPOS>MOLECULE
KHA
   45    46     1     0     0
SMALL
bcc


@<TRIPOS>ATOM
      1 O1         -3.8790    2.0330    0.0080 o         1 KHA     -0.579100
      2 C8         -3.3000    0.9300    0.0690 c         1 KHA      0.650700
      3 N1         -3.9400   -0.2200    0.4810 n         1 KHA     -0.534900
      4 C9         -5.3700   -0.2820    0.6300 c3        1 KHA      0.077000
      5 C10        -6.1060   -0.9700   -0.5290 c3        1 KHA      0.098400
      6 O2         -5.5540   -2.2680   -0.6790 oh        1 KHA     -0.620800
      7 C6         -1.8310    0.8390   -0.2150 ca        1 KHA     -0.091600
      8 C3         -1.0250    1.9160    0.1770 ca        1 KHA     -0.085500
      9 C1          0.3430    1.8950   -0.0860 ca        1 KHA     -0.114500
     10 C2         -1.2650   -0.2490   -0.8850 ca        1 KHA     -0.085500
     11 C5          0.1040   -0.2670   -1.1500 ca        1 KHA     -0.114500
     12 C4          0.9140    0.8010   -0.7470 ca        1 KHA     -0.158300
     13 C7          2.3620    0.8190   -1.1050 c3        1 KHA      0.178100
     14 N2          3.2730    0.2010   -0.0610 n4        1 KHA     -0.607800
     15 C11         3.1400    0.9480    1.2200 c3        1 KHA      0.088100
     16 C16         4.6910    0.2960   -0.5690 c3        1 KHA      0.117300
     17 C15         2.9060   -1.2460    0.1330 c3        1 KHA      0.117300
     18 C13         3.8920   -2.0250    0.9930 c3        1 KHA     -0.101900
     19 C14         5.3020   -1.9100    0.4600 c3        1 KHA     -0.096400
     20 C12         5.7010   -0.4620    0.2820 c3        1 KHA     -0.101900
     21 H1         -3.4890   -1.0960    0.3410 hn        1 KHA      0.315500
     22 H9C1       -5.5800   -0.8580    1.5770 h1        1 KHA      0.080700
     23 H9C2       -5.7820    0.7620    0.7360 h1        1 KHA      0.080700
     24 H101       -7.1970   -1.0300   -0.2730 h1        1 KHA      0.042700
     25 H102       -5.9810   -0.3980   -1.4860 h1        1 KHA      0.042700
     26 H2         -6.1500   -2.7620   -1.2540 ho        1 KHA      0.415000
     27 H3         -1.4900    2.7850    0.6740 ha        1 KHA      0.171000
     28 HB          0.9670    2.7530    0.2110 ha        1 KHA      0.140000
     29 HA         -1.8910   -1.0890   -1.2310 ha        1 KHA      0.171000
     30 H5          0.5410   -1.1200   -1.6930 ha        1 KHA      0.140000
     31 H7C1        2.7090    1.8830   -1.2500 hx        1 KHA      0.100200
     32 H7C2        2.5250    0.2520   -2.0670 hx        1 KHA      0.100200
     33 H111        3.4250    2.0210    1.0560 hx        1 KHA      0.098700
     34 H112        2.0740    0.8950    1.5710 hx        1 KHA      0.098700
     35 H113        3.8140    0.4950    1.9940 hx        1 KHA      0.098700
     36 H161        4.7000   -0.1250   -1.6150 hx        1 KHA      0.096450
     37 H162        4.9670    1.3870   -0.6130 hx        1 KHA      0.096450
     38 H151        1.8770   -1.2770    0.5930 hx        1 KHA      0.096450
     39 H152        2.8550   -1.7140   -0.8920 hx        1 KHA      0.096450
     40 H131        3.5650   -3.1000    0.9840 hc        1 KHA      0.082950
     41 H132        3.8480   -1.6750    2.0580 hc        1 KHA      0.082950
     42 H141        5.3820   -2.4490   -0.5220 hc        1 KHA      0.077200
     43 H142        6.0140   -2.4100    1.1700 hc        1 KHA      0.077200
     44 H121        6.6930   -0.3990   -0.2420 hc        1 KHA      0.082950
     45 H122        5.8230    0.0330    1.2820 hc        1 KHA      0.082950
@<TRIPOS>BOND
     1    1    2 2   
     2    2    3 1   
     3    2    7 1   
     4    3    4 1   
     5    3   21 1   
     6    4    5 1   
     7    4   22 1   
     8    4   23 1   
     9    5    6 1   
    10    5   24 1   
    11    5   25 1   
    12    6   26 1   
    13    7    8 ar  
    14    7   10 ar  
    15    8    9 ar  
    16    8   27 1   
    17    9   12 ar  
    18    9   28 1   
    19   10   11 ar  
    20   10   29 1   
    21   11   12 ar  
    22   11   30 1   
    23   12   13 1   
    24   13   14 1   
    25   13   31 1   
    26   13   32 1   
    27   14   15 1   
    28   14   16 1   
    29   14   17 1   
    30   15   33 1   
    31   15   34 1   
    32   15   35 1   
    33   16   20 1   
    34   16   36 1   
    35   16   37 1   
    36   17   18 1   
    37   17   38 1   
    38   17   39 1   
    39   18   19 1   
    40   18   40 1   
    41   18   41 1   
    42   19   20 1   
    43   19   42 1   
    44   19   43 1   
    45   20   44 1   
    46   20   45 1   
@<TRIPOS>SUBSTRUCTURE
     1 KHA         1 TEMP              0 ****  ****    0 ROOT
