@<TRIPOS>MOLECULE
KHA
   46    47     1     0     0
SMALL
bcc


@<TRIPOS>ATOM
      1 O1         -0.5490   -0.1720   -0.0420 o         1 KHA     -0.390100
      2 C8          0.6670   -0.2910   -0.0080 c         1 KHA      0.561700
      3 N1          1.2430   -0.6980    1.3300 ny        1 KHA     -0.674800
      4 C9          1.4550    0.4880    2.2220 c3        1 KHA      0.104800
      5 C10         2.6160    0.2740    3.2000 c3        1 KHA      0.105400
      6 O2          3.7490   -0.0330    2.4030 oh        1 KHA     -0.651800
      7 C6          1.6100   -0.1230   -1.1240 ca        1 KHA     -0.166600
      8 C3          1.0880   -0.2920   -2.4170 ca        1 KHA     -0.060500
      9 C1          1.9220   -0.1540   -3.5260 ca        1 KHA     -0.108500
     10 C2          2.9620    0.2060   -0.9500 ca        1 KHA     -0.060500
     11 C5          3.7850    0.3530   -2.0660 ca        1 KHA     -0.108500
     12 C4          3.2740    0.1640   -3.3570 ca        1 KHA     -0.088300
     13 C7          4.1940    0.1850   -4.5400 c3        1 KHA      0.155100
     14 N2          4.3100    1.5060   -5.2600 n4        1 KHA     -0.606800
     15 C11         2.9750    1.9230   -5.7710 c3        1 KHA      0.085100
     16 C16         5.2660    1.3150   -6.4200 c3        1 KHA      0.119800
     17 C15         4.8650    2.5490   -4.3230 c3        1 KHA      0.119800
     18 C13         5.2310    3.8600   -5.0060 c3        1 KHA     -0.103400
     19 C14         6.1840    3.6370   -6.1590 c3        1 KHA     -0.099400
     20 C12         5.6380    2.6110   -7.1260 c3        1 KHA     -0.103400
     21 H1          0.5960   -1.3530    1.7900 hn        1 KHA      0.474300
     22 H9C1        0.5040    0.6880    2.7940 hx        1 KHA      0.120700
     23 H9C2        1.6870    1.3770    1.5670 hx        1 KHA      0.120700
     24 H101        2.4070   -0.5670    3.9140 h1        1 KHA      0.086700
     25 H102        2.7690    1.2270    3.7760 h1        1 KHA      0.086700
     26 H2          4.5220   -0.0470    2.9850 ho        1 KHA      0.462000
     27 H3          0.0190   -0.5370   -2.5560 ha        1 KHA      0.181500
     28 HB          1.5060   -0.3140   -4.5360 ha        1 KHA      0.167500
     29 HA          3.3990    0.3640    0.0540 ha        1 KHA      0.181500
     30 H5          4.8490    0.6030   -1.9210 ha        1 KHA      0.167500
     31 H7C1        5.2340   -0.1120   -4.2080 hx        1 KHA      0.113200
     32 H7C2        3.8380   -0.5750   -5.2990 hx        1 KHA      0.113200
     33 H111        2.5800    1.1360   -6.4690 hx        1 KHA      0.101700
     34 H112        3.0710    2.8950   -6.3260 hx        1 KHA      0.101700
     35 H113        2.2680    2.0540   -4.9100 hx        1 KHA      0.101700
     36 H161        6.2010    0.8380   -6.0050 hx        1 KHA      0.095200
     37 H162        4.7820    0.6040   -7.1480 hx        1 KHA      0.095200
     38 H151        4.0960    2.7290   -3.5210 hx        1 KHA      0.095200
     39 H152        5.7900    2.1080   -3.8500 hx        1 KHA      0.095200
     40 H131        5.7150    4.5160   -4.2310 hc        1 KHA      0.089950
     41 H132        4.3090    4.3930   -5.3590 hc        1 KHA      0.089950
     42 H141        7.1820    3.3010   -5.7700 hc        1 KHA      0.085700
     43 H142        6.3520    4.6080   -6.6990 hc        1 KHA      0.085700
     44 H121        4.7550    3.0270   -7.6810 hc        1 KHA      0.089950
     45 H122        6.4180    2.3560   -7.8960 hc        1 KHA      0.089950
     46 H12         2.1470   -1.1710    1.1880 hn        1 KHA      0.474300
@<TRIPOS>BOND
     1    1    2 2   
     2    2    3 1   
     3    2    7 1   
     4    3    4 1   
     5    3   21 1   
     6    3   46 1   
     7    4    5 1   
     8    4   22 1   
     9    4   23 1   
    10    5    6 1   
    11    5   24 1   
    12    5   25 1   
    13    6   26 1   
    14    7    8 ar  
    15    7   10 ar  
    16    8    9 ar  
    17    8   27 1   
    18    9   12 ar  
    19    9   28 1   
    20   10   11 ar  
    21   10   29 1   
    22   11   12 ar  
    23   11   30 1   
    24   12   13 1   
    25   13   14 1   
    26   13   31 1   
    27   13   32 1   
    28   14   15 1   
    29   14   16 1   
    30   14   17 1   
    31   15   33 1   
    32   15   34 1   
    33   15   35 1   
    34   16   20 1   
    35   16   36 1   
    36   16   37 1   
    37   17   18 1   
    38   17   38 1   
    39   17   39 1   
    40   18   19 1   
    41   18   40 1   
    42   18   41 1   
    43   19   20 1   
    44   19   42 1   
    45   19   43 1   
    46   20   44 1   
    47   20   45 1   
@<TRIPOS>SUBSTRUCTURE
     1 KHA         1 TEMP              0 ****  ****    0 ROOT
