@<TRIPOS>MOLECULE
KHA
   45    43     1     0     0
SMALL
bcc


@<TRIPOS>ATOM
      1 O1         -2.2340   -1.9340    3.3450 o         1 KHA     -0.337000
      2 C8         -1.8280   -0.8070    3.2760 c1        1 KHA      0.329000
      3 N1         -2.1290    0.1470    4.3440 n2        1 KHA     -0.362000
      4 C9         -2.3770   -0.3120    5.6780 c3        1 KHA     -0.040000
      5 C10        -3.5590    0.4170    6.2270 c3        1 KHA     -0.043000
      6 O2         -3.7310    0.0850    7.5990 oh        1 KHA     -0.322000
      7 C6         -1.0550   -0.3290    2.0010 c2        1 KHA     -0.076000
      8 C3         -1.7480    0.1340    0.9100 c2        1 KHA     -0.075000
      9 C1         -1.0560    0.6080   -0.2050 c1        1 KHA     -0.115000
     10 C2          0.3340   -0.3250    1.9960 c1        1 KHA     -0.097000
     11 C5          1.0250    0.1470    0.8870 c1        1 KHA     -0.113000
     12 C4          0.3350    0.6120   -0.2080 c1        1 KHA     -0.150000
     13 C7          1.1120    1.2770   -1.3810 c3        1 KHA     -0.067000
     14 N2          1.4290    0.2580   -2.4050 n4        1 KHA      0.025000
     15 C11         1.4840   -1.0110   -1.7830 c3        1 KHA     -0.188000
     16 C16         2.7390    0.5610   -2.9760 c3        1 KHA     -0.119500
     17 C15         0.3650    0.2530   -3.4120 c3        1 KHA     -0.119500
     18 C13         0.6940   -0.6280   -4.5970 c3        1 KHA     -0.180500
     19 C14         2.0160   -0.3230   -5.1740 c3        1 KHA     -0.175000
     20 C12         3.0730   -0.3220   -4.1670 c3        1 KHA     -0.180500
     21 H1         -2.1630    1.0930    4.1480 hn        1 KHA      0.225000
     22 H9C1       -2.5620   -1.2930    5.6690 h1        1 KHA      0.125000
     23 H9C2       -1.5770   -0.1280    6.2480 h1        1 KHA      0.125000
     24 H101       -4.3700    0.1600    5.7200 h1        1 KHA      0.068000
     25 H102       -3.4180    1.3530    6.1440 h1        1 KHA      0.068000
     26 H2         -4.3030    0.6650    7.9780 ho        1 KHA      0.212000
     27 H3         -2.7000    0.1320    0.9140 ha        1 KHA      0.177000
     28 HB         -1.5590    0.9440   -0.9970 ha        1 KHA      0.141000
     29 HA          0.8270   -0.6540    2.7770 ha        1 KHA      0.163000
     30 H5          1.9900    0.1490    0.8860 ha        1 KHA      0.141000
     31 H7C1        0.5560    1.9890   -1.7840 hx        1 KHA      0.138500
     32 H7C2        1.9740    1.6810   -1.0260 hx        1 KHA      0.138500
     33 H111        2.1410   -0.9780   -1.0030 hx        1 KHA      0.138333
     34 H112        1.7770   -1.6680   -2.4210 hx        1 KHA      0.138333
     35 H113        0.5470   -1.2650   -1.4350 hx        1 KHA      0.138333
     36 H161        2.7470    1.4640   -3.2560 hx        1 KHA      0.136000
     37 H162        3.4200    0.4340   -2.2890 hx        1 KHA      0.136000
     38 H151        0.2220    1.1820   -3.7350 hx        1 KHA      0.136000
     39 H152       -0.4390   -0.0620   -3.0090 hx        1 KHA      0.136000
     40 H131       -0.0060   -0.4980   -5.3010 hc        1 KHA      0.122500
     41 H132        0.6850   -1.5540   -4.3100 hc        1 KHA      0.122500
     42 H141        2.2240   -0.9790   -5.8410 hc        1 KHA      0.116500
     43 H142        1.9810    0.5780   -5.6050 hc        1 KHA      0.116500
     44 H121        3.9010   -0.0030   -4.5780 hc        1 KHA      0.122500
     45 H122        3.2120   -1.2490   -3.8480 hc        1 KHA      0.122500
@<TRIPOS>BOND
     1    1    2 1   
     2    2    7 1   
     3    3    4 1   
     4    3   21 1   
     5    4    5 1   
     6    4   22 1   
     7    4   23 1   
     8    5    6 1   
     9    5   24 1   
    10    5   25 1   
    11    6   26 1   
    12    7    8 1   
    13    7   10 1   
    14    8    9 1   
    15    8   27 1   
    16    9   28 1   
    17   10   29 1   
    18   11   12 1   
    19   11   30 1   
    20   12   13 1   
    21   13   14 1   
    22   13   31 1   
    23   13   32 1   
    24   14   15 1   
    25   14   16 1   
    26   14   17 1   
    27   15   33 1   
    28   15   34 1   
    29   15   35 1   
    30   16   20 1   
    31   16   36 1   
    32   16   37 1   
    33   17   18 1   
    34   17   38 1   
    35   17   39 1   
    36   18   19 1   
    37   18   40 1   
    38   18   41 1   
    39   19   20 1   
    40   19   42 1   
    41   19   43 1   
    42   20   44 1   
    43   20   45 1   
@<TRIPOS>SUBSTRUCTURE
     1 KHA         1 TEMP              0 ****  ****    0 ROOT
