@<TRIPOS>MOLECULE
KHO
   37    38     1     0     0
SMALL
bcc


@<TRIPOS>ATOM
      1 C1         -0.0490    0.0750   -0.0210 c3        1 KHO      0.306900
      2 O4         -0.4670    0.3990   -1.3190 oh        1 KHO     -0.598800
      3 C2          1.4770   -0.1640    0.0280 c3        1 KHO      0.068100
      4 O2          1.7960   -1.3960   -0.5970 oh        1 KHO     -0.603800
      5 C3          1.9410   -0.2600    1.4860 c3        1 KHO      0.110100
      6 O1'         3.3670   -0.1910    1.5410 os        1 KHO     -0.435600
      7 C1'         4.0040   -1.4550    1.6020 c3        1 KHO      0.297900
      8 C2'         5.5190   -1.2230    1.4000 c3        1 KHO      0.085100
      9 C3'         6.1610   -1.6180    2.7510 c3        1 KHO      0.123100
     10 O3'         6.9610   -0.5720    3.2640 oh        1 KHO     -0.584800
     11 O2'         6.0460   -2.0770    0.4080 oh        1 KHO     -0.590800
     12 O4'         3.7760   -1.8970    2.9330 os        1 KHO     -0.452600
     13 C4'         4.9790   -1.8180    3.7180 c3        1 KHO      0.102100
     14 C5'         5.0950   -3.1200    4.5080 c3        1 KHO      0.130400
     15 O5'         4.0310   -3.2600    5.4230 oh        1 KHO     -0.592800
     16 C4          1.4380    0.9540    2.2870 c3        1 KHO      0.112100
     17 O6          1.6690    0.7640    3.6710 oh        1 KHO     -0.594800
     18 C5         -0.0740    1.1220    2.1110 c3        1 KHO      0.138400
     19 O5         -0.4170    1.2180    0.7350 os        1 KHO     -0.444600
     20 H1         -0.6190   -0.8430    0.2920 h2        1 KHO      0.085700
     21 HO4        -0.3460    1.3510   -1.4480 ho        1 KHO      0.430000
     22 H2          2.0140    0.6750   -0.4950 h1        1 KHO      0.062700
     23 HO2         1.3650   -1.3840   -1.4630 ho        1 KHO      0.421000
     24 H3          1.5720   -1.2150    1.9520 h1        1 KHO      0.085700
     25 H1'         3.5440   -2.1990    0.8980 h2        1 KHO      0.104700
     26 H2'         5.7240   -0.1470    1.1520 h1        1 KHO      0.082700
     27 H3'         6.7660   -2.5580    2.6330 h1        1 KHO      0.073700
     28 H6          7.7390   -0.5120    2.6940 ho        1 KHO      0.413000
     29 H5          5.6220   -1.8370   -0.4260 ho        1 KHO      0.416000
     30 H4'         4.8720   -0.9390    4.4110 h1        1 KHO      0.090700
     31 H5'1        6.0240   -3.0980    5.1380 h1        1 KHO      0.056200
     32 H5'2        5.1230   -3.9970    3.8080 h1        1 KHO      0.056200
     33 H5'         3.2110   -3.2110    4.9150 ho        1 KHO      0.413000
     34 H4          1.9800    1.8780    1.9380 h1        1 KHO      0.062700
     35 HO6         2.5750    0.4320    3.7570 ho        1 KHO      0.428000
     36 H51        -0.4170    2.0950    2.5530 h1        1 KHO      0.071700
     37 H52        -0.6200    0.2680    2.5900 h1        1 KHO      0.071700
@<TRIPOS>BOND
     1    1    2 1   
     2    1    3 1   
     3    1   19 1   
     4    1   20 1   
     5    2   21 1   
     6    3    4 1   
     7    3    5 1   
     8    3   22 1   
     9    4   23 1   
    10    5    6 1   
    11    5   16 1   
    12    5   24 1   
    13    6    7 1   
    14    7    8 1   
    15    7   12 1   
    16    7   25 1   
    17    8    9 1   
    18    8   11 1   
    19    8   26 1   
    20    9   10 1   
    21    9   13 1   
    22    9   27 1   
    23   10   28 1   
    24   11   29 1   
    25   12   13 1   
    26   13   14 1   
    27   13   30 1   
    28   14   15 1   
    29   14   31 1   
    30   14   32 1   
    31   15   33 1   
    32   16   17 1   
    33   16   18 1   
    34   16   34 1   
    35   17   35 1   
    36   18   19 1   
    37   18   36 1   
    38   18   37 1   
@<TRIPOS>SUBSTRUCTURE
     1 KHO         1 TEMP              0 ****  ****    0 ROOT
