@<TRIPOS>MOLECULE
KHO
   37    38     1     0     0
SMALL
bcc


@<TRIPOS>ATOM
      1 C1         -0.0550    0.0710   -0.0130 c3        1 KHO      0.306900
      2 O4         -0.4790    0.3880   -1.3110 oh        1 KHO     -0.598800
      3 C2          1.4700   -0.1740    0.0290 c3        1 KHO      0.068100
      4 O2          1.7800   -1.4110   -0.5890 oh        1 KHO     -0.603800
      5 C3          1.9410   -0.2610    1.4850 c3        1 KHO      0.110100
      6 O1'         3.3680   -0.1960    1.5320 os        1 KHO     -0.435600
      7 C1'         4.0000   -1.4620    1.6020 c3        1 KHO      0.297900
      8 C2'         5.5140   -1.2380    1.3910 c3        1 KHO      0.085100
      9 C3'         6.1620   -1.6220    2.7420 c3        1 KHO      0.123100
     10 O3'         6.9690   -0.5750    3.2400 oh        1 KHO     -0.584800
     11 O2'         6.0330   -2.1040    0.4040 oh        1 KHO     -0.590800
     12 O4'         3.7770   -1.8900    2.9390 os        1 KHO     -0.452600
     13 C4'         4.9840   -1.8080    3.7170 c3        1 KHO      0.102100
     14 C5'         5.1000   -3.1030    4.5200 c3        1 KHO      0.130400
     15 O5'         4.0390   -3.2290    5.4410 oh        1 KHO     -0.592800
     16 C4          1.4470    0.9610    2.2800 c3        1 KHO      0.112100
     17 O6          1.6840    0.7800    3.6650 oh        1 KHO     -0.594800
     18 C5         -0.0660    1.1340    2.1110 c3        1 KHO      0.138400
     19 O5         -0.4160    1.2210    0.7370 os        1 KHO     -0.444600
     20 H1         -0.6270   -0.8420    0.3100 h2        1 KHO      0.085700
     21 HO4        -0.3550    1.3380   -1.4480 ho        1 KHO      0.430000
     22 H2          2.0070    0.6590   -0.5030 h1        1 KHO      0.062700
     23 HO2         1.3450   -1.4040   -1.4520 ho        1 KHO      0.421000
     24 H3          1.5710   -1.2100    1.9600 h1        1 KHO      0.085700
     25 H1'         3.5330   -2.2110    0.9080 h2        1 KHO      0.104700
     26 H2'         5.7230   -0.1650    1.1310 h1        1 KHO      0.082700
     27 H3'         6.7630   -2.5660    2.6300 h1        1 KHO      0.073700
     28 H6          7.7440   -0.5240    2.6660 ho        1 KHO      0.413000
     29 H5          5.6060   -1.8700   -0.4300 ho        1 KHO      0.416000
     30 H4'         4.8850   -0.9220    4.4010 h1        1 KHO      0.090700
     31 H5'1        6.0320   -3.0780    5.1450 h1        1 KHO      0.056200
     32 H5'2        5.1200   -3.9860    3.8280 h1        1 KHO      0.056200
     33 H5'         3.2170   -3.1820    4.9360 ho        1 KHO      0.413000
     34 H4          1.9910    1.8800    1.9230 h1        1 KHO      0.062700
     35 HO6         2.5890    0.4440    3.7480 ho        1 KHO      0.428000
     36 H51        -0.4020    2.1110    2.5480 h1        1 KHO      0.071700
     37 H52        -0.6120    0.2850    2.5990 h1        1 KHO      0.071700
@<TRIPOS>BOND
     1    1    2 1   
     2    1    3 1   
     3    1   19 1   
     4    1   20 1   
     5    2   21 1   
     6    3    4 1   
     7    3    5 1   
     8    3   22 1   
     9    4   23 1   
    10    5    6 1   
    11    5   16 1   
    12    5   24 1   
    13    6    7 1   
    14    7    8 1   
    15    7   12 1   
    16    7   25 1   
    17    8    9 1   
    18    8   11 1   
    19    8   26 1   
    20    9   10 1   
    21    9   13 1   
    22    9   27 1   
    23   10   28 1   
    24   11   29 1   
    25   12   13 1   
    26   13   14 1   
    27   13   30 1   
    28   14   15 1   
    29   14   31 1   
    30   14   32 1   
    31   15   33 1   
    32   16   17 1   
    33   16   18 1   
    34   16   34 1   
    35   17   35 1   
    36   18   19 1   
    37   18   36 1   
    38   18   37 1   
@<TRIPOS>SUBSTRUCTURE
     1 KHO         1 TEMP              0 ****  ****    0 ROOT
