@<TRIPOS>MOLECULE
KHO
   37    38     1     0     0
SMALL
bcc


@<TRIPOS>ATOM
      1 C1         -0.1810    0.6880   -3.6560 c3        1 KHO      0.306900
      2 O4         -1.1140    0.6720   -4.7030 oh        1 KHO     -0.598800
      3 C2         -0.8390    0.2810   -2.3190 c3        1 KHO      0.068100
      4 O2         -1.6790    1.3250   -1.8530 oh        1 KHO     -0.603800
      5 C3          0.2410    0.0580   -1.2550 c3        1 KHO      0.110100
      6 O1'        -0.3310   -0.5900   -0.1180 os        1 KHO     -0.435600
      7 C1'        -0.7000    0.2950    0.9240 c3        1 KHO      0.297900
      8 C2'        -1.5220   -0.5140    1.9530 c3        1 KHO      0.085100
      9 C3'        -0.6490   -0.5330    3.2290 c3        1 KHO      0.123100
     10 O3'        -0.4280   -1.8540    3.6800 oh        1 KHO     -0.584800
     11 O2'        -2.7350    0.1350    2.2720 oh        1 KHO     -0.590800
     12 O4'         0.5360    0.6750    1.5150 os        1 KHO     -0.452600
     13 C4'         0.7120    0.0460    2.7960 c3        1 KHO      0.102100
     14 C5'         1.2180    1.1140    3.7640 c3        1 KHO      0.130400
     15 O5'         2.4870    1.5950    3.3770 oh        1 KHO     -0.592800
     16 C4          1.3170   -0.9090   -1.7820 c3        1 KHO      0.112100
     17 O6          2.4250   -0.9450   -0.9000 oh        1 KHO     -0.594800
     18 C5          1.8480   -0.4330   -3.1380 c3        1 KHO      0.138400
     19 O5          0.7860   -0.2650   -4.0680 os        1 KHO     -0.444600
     20 H1          0.2430    1.7290   -3.6060 h2        1 KHO      0.085700
     21 HO4        -1.1720   -0.2330   -5.0430 ho        1 KHO      0.430000
     22 H2         -1.4450   -0.6560   -2.4590 h1        1 KHO      0.062700
     23 HO2        -2.2570    1.5620   -2.5910 ho        1 KHO      0.421000
     24 H3          0.7090    1.0370   -0.9610 h1        1 KHO      0.085700
     25 H1'        -1.2070    1.2200    0.5390 h2        1 KHO      0.104700
     26 H2'        -1.7130   -1.5550    1.5760 h1        1 KHO      0.082700
     27 H3'        -1.1260    0.0870    4.0360 h1        1 KHO      0.073700
     28 H6         -1.2710   -2.1750    4.0230 ho        1 KHO      0.413000
     29 H5         -3.2630    0.1610    1.4640 ho        1 KHO      0.416000
     30 H4'         1.4740   -0.7700    2.6690 h1        1 KHO      0.090700
     31 H5'1        1.3710    0.6620    4.7800 h1        1 KHO      0.056200
     32 H5'2        0.4830    1.9610    3.8230 h1        1 KHO      0.056200
     33 H5'         2.4020    1.9270    2.4740 ho        1 KHO      0.413000
     34 H4          0.8750   -1.9410   -1.8730 h1        1 KHO      0.062700
     35 HO6         2.0630   -1.0180   -0.0050 ho        1 KHO      0.428000
     36 H51         2.5050   -1.2150   -3.6010 h1        1 KHO      0.071700
     37 H52         2.4160    0.5260   -3.0190 h1        1 KHO      0.071700
@<TRIPOS>BOND
     1    1    2 1   
     2    1    3 1   
     3    1   19 1   
     4    1   20 1   
     5    2   21 1   
     6    3    4 1   
     7    3    5 1   
     8    3   22 1   
     9    4   23 1   
    10    5    6 1   
    11    5   16 1   
    12    5   24 1   
    13    6    7 1   
    14    7    8 1   
    15    7   12 1   
    16    7   25 1   
    17    8    9 1   
    18    8   11 1   
    19    8   26 1   
    20    9   10 1   
    21    9   13 1   
    22    9   27 1   
    23   10   28 1   
    24   11   29 1   
    25   12   13 1   
    26   13   14 1   
    27   13   30 1   
    28   14   15 1   
    29   14   31 1   
    30   14   32 1   
    31   15   33 1   
    32   16   17 1   
    33   16   18 1   
    34   16   34 1   
    35   17   35 1   
    36   18   19 1   
    37   18   36 1   
    38   18   37 1   
@<TRIPOS>SUBSTRUCTURE
     1 KHO         1 TEMP              0 ****  ****    0 ROOT
