@<TRIPOS>MOLECULE
KHP
   32    33     1     0     0
SMALL
bcc


@<TRIPOS>ATOM
      1 O5'         0.4560    0.0670   -0.6180 oh        1 KHP     -0.588800
      2 C5B         1.7950   -0.1900   -0.2550 c3        1 KHP      0.130400
      3 C4B         1.9890   -0.0910    1.2560 c3        1 KHP      0.100100
      4 O4'         1.7870    1.2890    1.6240 os        1 KHP     -0.439600
      5 C1B         2.7560    1.7110    2.5610 c3        1 KHP      0.299900
      6 C2B         3.8430    0.6160    2.6950 c3        1 KHP      0.084100
      7 O2B         5.1040    1.1050    2.2950 oh        1 KHP     -0.585800
      8 C3B         3.4150   -0.4800    1.6890 c3        1 KHP      0.124100
      9 O3B         3.3440   -1.7440    2.3140 oh        1 KHP     -0.580800
     10 O1'         2.0820    1.7630    3.8160 os        1 KHP     -0.343900
     11 C1'         1.2000    2.8000    4.0250 ca        1 KHP      0.178100
     12 C2'         0.7870    2.9580    5.3640 ca        1 KHP     -0.187500
     13 C3'        -0.1070    3.9680    5.6880 ca        1 KHP     -0.035500
     14 C4'        -0.5840    4.8240    4.6790 ca        1 KHP     -0.214200
     15 N1'        -1.5310    5.9100    5.0290 no        1 KHP      0.318200
     16 O3'        -1.8750    6.0380    6.1740 o         1 KHP     -0.212500
     17 O2'        -1.9290    6.6390    4.1590 o         1 KHP     -0.212500
     18 C5'        -0.1790    4.6590    3.3440 ca        1 KHP     -0.035500
     19 C6'         0.7130    3.6440    3.0170 ca        1 KHP     -0.187500
     20 H5B         0.2340    0.9450   -0.2820 ho        1 KHP      0.412000
     21 H5'1        1.9930   -1.2440   -0.5910 h1        1 KHP      0.057700
     22 H5'2        2.4850    0.5210   -0.7820 h1        1 KHP      0.057700
     23 H4'         1.2200   -0.7030    1.8010 h1        1 KHP      0.100700
     24 H1'         3.1430    2.7150    2.2460 h2        1 KHP      0.091700
     25 H2B         3.8720    0.2120    3.7430 h1        1 KHP      0.088700
     26 H1          5.4230    1.6800    3.0020 ho        1 KHP      0.415000
     27 H3B         4.1230   -0.5030    0.8170 h1        1 KHP      0.075700
     28 H2          4.2530   -2.0340    2.4630 ho        1 KHP      0.415000
     29 H2'         1.1710    2.2740    6.1350 ha        1 KHP      0.163500
     30 H3'        -0.4400    4.1010    6.7320 ha        1 KHP      0.172500
     31 H5'        -0.5700    5.3280    2.5580 ha        1 KHP      0.172500
     32 H6'         1.0090    3.4930    1.9680 ha        1 KHP      0.163500
@<TRIPOS>BOND
     1    1    2 1   
     2    1   20 1   
     3    2    3 1   
     4    2   21 1   
     5    2   22 1   
     6    3    4 1   
     7    3    8 1   
     8    3   23 1   
     9    4    5 1   
    10    5    6 1   
    11    5   10 1   
    12    5   24 1   
    13    6    7 1   
    14    6    8 1   
    15    6   25 1   
    16    7   26 1   
    17    8    9 1   
    18    8   27 1   
    19    9   28 1   
    20   10   11 1   
    21   11   12 ar  
    22   11   19 ar  
    23   12   13 ar  
    24   12   29 1   
    25   13   14 ar  
    26   13   30 1   
    27   14   15 1   
    28   14   18 ar  
    29   15   16 1   
    30   15   17 1   
    31   18   19 ar  
    32   18   31 1   
    33   19   32 1   
@<TRIPOS>SUBSTRUCTURE
     1 KHP         1 TEMP              0 ****  ****    0 ROOT
