@<TRIPOS>MOLECULE
KHP
   32    33     1     0     0
SMALL
bcc


@<TRIPOS>ATOM
      1 O5'        -2.7820    3.4020    0.0210 oh        1 KHP     -0.588800
      2 C5B        -3.5300    2.2500   -0.2970 c3        1 KHP      0.130400
      3 C4B        -2.9200    1.0000    0.3350 c3        1 KHP      0.100100
      4 O4'        -1.6460    0.7770   -0.3030 os        1 KHP     -0.439600
      5 C1B        -1.4560   -0.5940   -0.5890 c3        1 KHP      0.299900
      6 C2B        -2.7800   -1.3540   -0.3310 c3        1 KHP      0.084100
      7 O2B        -3.2640   -1.9410   -1.5190 oh        1 KHP     -0.585800
      8 C3B        -3.7810   -0.2540    0.0990 c3        1 KHP      0.124100
      9 O3B        -4.4050   -0.5840    1.3220 oh        1 KHP     -0.580800
     10 O1'        -0.5260   -1.0650    0.3840 os        1 KHP     -0.343900
     11 C1'         0.7910   -0.6920    0.2420 ca        1 KHP      0.178100
     12 C2'         1.6950   -1.4070    1.0540 ca        1 KHP     -0.187500
     13 C3'         3.0480   -1.1090    0.9980 ca        1 KHP     -0.035500
     14 C4'         3.5020   -0.1000    0.1280 ca        1 KHP     -0.214200
     15 N1'         4.9500    0.2100    0.0610 no        1 KHP      0.318200
     16 O3'         5.7120   -0.4080    0.7550 o         1 KHP     -0.212500
     17 O2'         5.3270    1.0720   -0.6890 o         1 KHP     -0.212500
     18 C5'         2.5990    0.6190   -0.6720 ca        1 KHP     -0.035500
     19 C6'         1.2420    0.3240   -0.6140 ca        1 KHP     -0.187500
     20 H5B        -1.8780    3.2490   -0.2820 ho        1 KHP      0.412000
     21 H5'1       -4.5490    2.4320    0.1380 h1        1 KHP      0.057700
     22 H5'2       -3.6000    2.1260   -1.4100 h1        1 KHP      0.057700
     23 H4'        -2.7280    1.1580    1.4310 h1        1 KHP      0.100700
     24 H1'        -1.0600   -0.6880   -1.6340 h2        1 KHP      0.091700
     25 H2B        -2.6470   -2.1180    0.4810 h1        1 KHP      0.088700
     26 H1         -2.7130   -2.7140   -1.6980 ho        1 KHP      0.415000
     27 H3B        -4.5450   -0.0890   -0.7090 h1        1 KHP      0.075700
     28 H2         -5.0370   -1.2880    1.1320 ho        1 KHP      0.415000
     29 H2'         1.3170   -2.1890    1.7280 ha        1 KHP      0.163500
     30 H3'         3.7660   -1.6610    1.6290 ha        1 KHP      0.172500
     31 H5'         2.9640    1.4180   -1.3420 ha        1 KHP      0.172500
     32 H6'         0.5280    0.9060   -1.2170 ha        1 KHP      0.163500
@<TRIPOS>BOND
     1    1    2 1   
     2    1   20 1   
     3    2    3 1   
     4    2   21 1   
     5    2   22 1   
     6    3    4 1   
     7    3    8 1   
     8    3   23 1   
     9    4    5 1   
    10    5    6 1   
    11    5   10 1   
    12    5   24 1   
    13    6    7 1   
    14    6    8 1   
    15    6   25 1   
    16    7   26 1   
    17    8    9 1   
    18    8   27 1   
    19    9   28 1   
    20   10   11 1   
    21   11   12 ar  
    22   11   19 ar  
    23   12   13 ar  
    24   12   29 1   
    25   13   14 ar  
    26   13   30 1   
    27   14   15 1   
    28   14   18 ar  
    29   15   16 1   
    30   15   17 1   
    31   18   19 ar  
    32   18   31 1   
    33   19   32 1   
@<TRIPOS>SUBSTRUCTURE
     1 KHP         1 TEMP              0 ****  ****    0 ROOT
