@<TRIPOS>MOLECULE
KHP
   32    33     1     0     0
SMALL
bcc


@<TRIPOS>ATOM
      1 O5'         0.4790    0.0800   -0.6330 oh        1 KHP     -0.588800
      2 C5B         1.8130   -0.1820   -0.2600 c3        1 KHP      0.130400
      3 C4B         1.9950   -0.0870    1.2540 c3        1 KHP      0.100100
      4 O4'         1.7930    1.2920    1.6230 os        1 KHP     -0.439600
      5 C1B         2.7560    1.7090    2.5700 c3        1 KHP      0.299900
      6 C2B         3.8380    0.6100    2.7110 c3        1 KHP      0.084100
      7 O2B         5.1040    1.0960    2.3210 oh        1 KHP     -0.585800
      8 C3B         3.4160   -0.4820    1.6980 c3        1 KHP      0.124100
      9 O3B         3.3350   -1.7480    2.3190 oh        1 KHP     -0.580800
     10 O1'         2.0710    1.7600    3.8190 os        1 KHP     -0.343900
     11 C1'         1.1920    2.8000    4.0240 ca        1 KHP      0.178100
     12 C2'         0.7680    2.9560    5.3590 ca        1 KHP     -0.187500
     13 C3'        -0.1240    3.9680    5.6790 ca        1 KHP     -0.035500
     14 C4'        -0.5910    4.8280    4.6670 ca        1 KHP     -0.214200
     15 N1'        -1.5360    5.9170    5.0120 no        1 KHP      0.318200
     16 O3'        -1.8890    6.0430    6.1550 o         1 KHP     -0.212500
     17 O2'        -1.9260    6.6490    4.1410 o         1 KHP     -0.212500
     18 C5'        -0.1760    4.6650    3.3360 ca        1 KHP     -0.035500
     19 C6'         0.7150    3.6470    3.0140 ca        1 KHP     -0.187500
     20 H5B         0.2560    0.9580   -0.2970 ho        1 KHP      0.412000
     21 H5'1        2.0100   -1.2350   -0.5960 h1        1 KHP      0.057700
     22 H5'2        2.5100    0.5280   -0.7780 h1        1 KHP      0.057700
     23 H4'         1.2190   -0.6990    1.7900 h1        1 KHP      0.100700
     24 H1'         3.1480    2.7130    2.2600 h2        1 KHP      0.091700
     25 H2B         3.8570    0.2040    3.7580 h1        1 KHP      0.088700
     26 H1          5.4190    1.6680    3.0320 ho        1 KHP      0.415000
     27 H3B         4.1310   -0.5050    0.8320 h1        1 KHP      0.075700
     28 H2          4.2420   -2.0400    2.4750 ho        1 KHP      0.415000
     29 H2'         1.1440    2.2700    6.1320 ha        1 KHP      0.163500
     30 H3'        -0.4650    4.1010    6.7210 ha        1 KHP      0.172500
     31 H5'        -0.5590    5.3370    2.5480 ha        1 KHP      0.172500
     32 H6'         1.0190    3.4970    1.9660 ha        1 KHP      0.163500
@<TRIPOS>BOND
     1    1    2 1   
     2    1   20 1   
     3    2    3 1   
     4    2   21 1   
     5    2   22 1   
     6    3    4 1   
     7    3    8 1   
     8    3   23 1   
     9    4    5 1   
    10    5    6 1   
    11    5   10 1   
    12    5   24 1   
    13    6    7 1   
    14    6    8 1   
    15    6   25 1   
    16    7   26 1   
    17    8    9 1   
    18    8   27 1   
    19    9   28 1   
    20   10   11 1   
    21   11   12 ar  
    22   11   19 ar  
    23   12   13 ar  
    24   12   29 1   
    25   13   14 ar  
    26   13   30 1   
    27   14   15 1   
    28   14   18 ar  
    29   15   16 1   
    30   15   17 1   
    31   18   19 ar  
    32   18   31 1   
    33   19   32 1   
@<TRIPOS>SUBSTRUCTURE
     1 KHP         1 TEMP              0 ****  ****    0 ROOT
