@<TRIPOS>MOLECULE
KHP
   32    33     1     0     0
SMALL
bcc


@<TRIPOS>ATOM
      1 O5'         0.4910    0.0770   -0.6340 oh        1 KHP     -0.588800
      2 C5B         1.8230   -0.1860   -0.2560 c3        1 KHP      0.130400
      3 C4B         2.0000   -0.0890    1.2590 c3        1 KHP      0.100100
      4 O4'         1.7980    1.2910    1.6250 os        1 KHP     -0.439600
      5 C1B         2.7580    1.7080    2.5750 c3        1 KHP      0.299900
      6 C2B         3.8380    0.6080    2.7210 c3        1 KHP      0.084100
      7 O2B         5.1060    1.0930    2.3370 oh        1 KHP     -0.585800
      8 C3B         3.4180   -0.4850    1.7090 c3        1 KHP      0.124100
      9 O3B         3.3340   -1.7490    2.3310 oh        1 KHP     -0.580800
     10 O1'         2.0680    1.7620    3.8210 os        1 KHP     -0.343900
     11 C1'         1.1880    2.8020    4.0210 ca        1 KHP      0.178100
     12 C2'         0.7580    2.9590    5.3540 ca        1 KHP     -0.187500
     13 C3'        -0.1360    3.9720    5.6690 ca        1 KHP     -0.035500
     14 C4'        -0.5970    4.8320    4.6550 ca        1 KHP     -0.214200
     15 N1'        -1.5440    5.9210    4.9940 no        1 KHP      0.318200
     16 O3'        -1.9020    6.0480    6.1350 o         1 KHP     -0.212500
     17 O2'        -1.9290    6.6520    4.1210 o         1 KHP     -0.212500
     18 C5'        -0.1760    4.6670    3.3250 ca        1 KHP     -0.035500
     19 C6'         0.7170    3.6490    3.0080 ca        1 KHP     -0.187500
     20 H5B         0.2670    0.9560   -0.3000 ho        1 KHP      0.412000
     21 H5'1        2.5230    0.5230   -0.7730 h1        1 KHP      0.057700
     22 H5'2        2.0210   -1.2390   -0.5900 h1        1 KHP      0.057700
     23 H4'         1.2210   -0.6990    1.7930 h1        1 KHP      0.100700
     24 H1'         3.1520    2.7110    2.2660 h2        1 KHP      0.091700
     25 H2B         3.8520    0.2040    3.7690 h1        1 KHP      0.088700
     26 H1          5.4190    1.6660    3.0480 ho        1 KHP      0.415000
     27 H3B         4.1370   -0.5090    0.8450 h1        1 KHP      0.075700
     28 H2          4.2400   -2.0420    2.4910 ho        1 KHP      0.415000
     29 H2'         1.1300    2.2730    6.1290 ha        1 KHP      0.163500
     30 H3'        -0.4820    4.1050    6.7090 ha        1 KHP      0.172500
     31 H5'        -0.5540    5.3390    2.5350 ha        1 KHP      0.172500
     32 H6'         1.0250    3.4980    1.9620 ha        1 KHP      0.163500
@<TRIPOS>BOND
     1    1    2 1   
     2    1   20 1   
     3    2    3 1   
     4    2   21 1   
     5    2   22 1   
     6    3    4 1   
     7    3    8 1   
     8    3   23 1   
     9    4    5 1   
    10    5    6 1   
    11    5   10 1   
    12    5   24 1   
    13    6    7 1   
    14    6    8 1   
    15    6   25 1   
    16    7   26 1   
    17    8    9 1   
    18    8   27 1   
    19    9   28 1   
    20   10   11 1   
    21   11   12 ar  
    22   11   19 ar  
    23   12   13 ar  
    24   12   29 1   
    25   13   14 ar  
    26   13   30 1   
    27   14   15 1   
    28   14   18 ar  
    29   15   16 1   
    30   15   17 1   
    31   18   19 ar  
    32   18   31 1   
    33   19   32 1   
@<TRIPOS>SUBSTRUCTURE
     1 KHP         1 TEMP              0 ****  ****    0 ROOT
