@<TRIPOS>MOLECULE
KI1
   40    41     1     0     0
SMALL
bcc


@<TRIPOS>ATOM
      1 O2         -0.0560   -0.1890   -0.2390 o         1 KI1     -0.607100
      2 C3          1.1730   -0.0350   -0.0840 c         1 KI1      0.652100
      3 C2          1.8060   -0.1750    1.2890 c3        1 KI1     -0.138400
      4 C1          0.7490   -0.4030    2.3390 c3        1 KI1      0.016700
      5 S           1.5990   -0.6390    3.8760 sh        1 KI1     -0.390900
      6 N           1.9720    0.3450   -1.1610 n         1 KI1     -0.455800
      7 C6          1.4070    0.3690   -2.4950 c3        1 KI1      0.081500
      8 C7          1.8560   -0.8000   -3.3750 c3        1 KI1     -0.111900
      9 C8          3.3870   -0.9150   -3.3990 c3        1 KI1      0.201100
     10 O1          3.9530    0.2500   -3.9990 oh        1 KI1     -0.591800
     11 C5          3.9470   -0.9470   -1.9680 c3        1 KI1     -0.111900
     12 C4          3.4120    0.2270   -1.1440 c3        1 KI1      0.081500
     13 C9          3.8120   -2.1600   -4.1440 ca        1 KI1     -0.118300
     14 C15         3.3210   -3.4150   -3.7630 ca        1 KI1     -0.087000
     15 C14         3.7130   -4.5630   -4.4440 ca        1 KI1     -0.133000
     16 C13         4.6090   -4.4770   -5.5190 ca        1 KI1      0.062400
     17 CL          5.0450   -5.9090   -6.3130 cl        1 KI1     -0.054400
     18 C11         5.1140   -3.2270   -5.8990 ca        1 KI1     -0.163300
     19 C10         4.7160   -2.0790   -5.2050 ca        1 KI1     -0.069000
     20 C12         6.0990   -3.0670   -7.0560 c3        1 KI1      0.692200
     21 F1          6.4880   -1.7690   -7.2940 f         1 KI1     -0.231633
     22 F2          7.2870   -3.7360   -6.8940 f         1 KI1     -0.231633
     23 F3          5.6250   -3.4880   -8.2740 f         1 KI1     -0.231633
     24 H1          2.3880    0.7550    1.5330 hc        1 KI1      0.080200
     25 H2          2.5210   -1.0420    1.2750 hc        1 KI1      0.080200
     26 H3          0.0590    0.4730    2.3930 h1        1 KI1      0.079700
     27 H4          0.1320   -1.2980    2.0830 h1        1 KI1      0.079700
     28 H5          0.5520   -0.7970    4.6690 hs        1 KI1      0.211800
     29 H6          1.7440    1.3300   -2.9810 h1        1 KI1      0.069700
     30 H7          0.2820    0.3710   -2.4290 h1        1 KI1      0.069700
     31 H8          1.4720   -0.6320   -4.4130 hc        1 KI1      0.062450
     32 H9          1.4130   -1.7560   -2.9960 hc        1 KI1      0.062450
     33 H10         3.4900    0.3970   -4.8330 ho        1 KI1      0.407000
     34 H11         5.0640   -0.8710   -2.0090 hc        1 KI1      0.062450
     35 H12         3.6720   -1.9240   -1.4970 hc        1 KI1      0.062450
     36 H13         3.8290    1.1790   -1.5880 h1        1 KI1      0.069700
     37 H14         3.7950    0.1360   -0.0910 h1        1 KI1      0.069700
     38 H15         2.6230   -3.5050   -2.9160 ha        1 KI1      0.146000
     39 H16         3.3190   -5.5450   -4.1380 ha        1 KI1      0.158000
     40 H17         5.1340   -1.0980   -5.4940 ha        1 KI1      0.170000
@<TRIPOS>BOND
     1    1    2 2   
     2    2    3 1   
     3    2    6 1   
     4    3    4 1   
     5    3   24 1   
     6    3   25 1   
     7    4    5 1   
     8    4   26 1   
     9    4   27 1   
    10    5   28 1   
    11    6    7 1   
    12    6   12 1   
    13    7    8 1   
    14    7   29 1   
    15    7   30 1   
    16    8    9 1   
    17    8   31 1   
    18    8   32 1   
    19    9   10 1   
    20    9   11 1   
    21    9   13 1   
    22   10   33 1   
    23   11   12 1   
    24   11   34 1   
    25   11   35 1   
    26   12   36 1   
    27   12   37 1   
    28   13   14 ar  
    29   13   19 ar  
    30   14   15 ar  
    31   14   38 1   
    32   15   16 ar  
    33   15   39 1   
    34   16   17 1   
    35   16   18 ar  
    36   18   19 ar  
    37   18   20 1   
    38   19   40 1   
    39   20   21 1   
    40   20   22 1   
    41   20   23 1   
@<TRIPOS>SUBSTRUCTURE
     1 KI1         1 TEMP              0 ****  ****    0 ROOT
