@<TRIPOS>MOLECULE
KI1
   40    41     1     0     0
SMALL
bcc


@<TRIPOS>ATOM
      1 O2         -4.5720    0.9190    1.7970 o         1 KI1     -0.604100
      2 C3         -4.2680    0.1500    0.8630 c         1 KI1      0.651100
      3 C2         -5.1060    0.0960   -0.4030 c3        1 KI1     -0.139400
      4 C1         -6.3090    0.9960   -0.2800 c3        1 KI1      0.016700
      5 S          -7.1550    0.9290   -1.8360 sh        1 KI1     -0.392900
      6 N          -3.1960   -0.7300    1.0020 n         1 KI1     -0.455800
      7 C6         -2.3100   -0.6070    2.1440 c3        1 KI1      0.081500
      8 C7         -0.9480    0.0040    1.8110 c3        1 KI1     -0.111900
      9 C8         -0.2870   -0.7100    0.6210 c3        1 KI1      0.200100
     10 O1          0.0190   -2.0230    1.0890 oh        1 KI1     -0.588800
     11 C5         -1.2600   -0.7960   -0.5650 c3        1 KI1     -0.111900
     12 C4         -2.5950   -1.4050   -0.1240 c3        1 KI1      0.081500
     13 C9          0.9700    0.0230    0.2150 ca        1 KI1     -0.118300
     14 C15         0.8940    1.3140   -0.3220 ca        1 KI1     -0.087000
     15 C14         2.0490    1.9940   -0.6940 ca        1 KI1     -0.133000
     16 C13         3.3060    1.3950   -0.5330 ca        1 KI1      0.062400
     17 CL          4.6760    2.2700   -1.0110 cl        1 KI1     -0.053400
     18 C11         3.3930    0.1080    0.0160 ca        1 KI1     -0.162300
     19 C10         2.2260   -0.5640    0.3910 ca        1 KI1     -0.070000
     20 C12         4.7330   -0.5960    0.2250 c3        1 KI1      0.692200
     21 F1          4.6330   -1.8550    0.7690 f         1 KI1     -0.231633
     22 F2          5.4570   -0.8000   -0.9240 f         1 KI1     -0.231633
     23 F3          5.5970    0.0540    1.0710 f         1 KI1     -0.231633
     24 H1         -4.4740    0.4230   -1.2720 hc        1 KI1      0.078700
     25 H2         -5.4400   -0.9600   -0.5880 hc        1 KI1      0.078700
     26 H3         -6.9700    0.6510    0.5510 h1        1 KI1      0.079700
     27 H4         -5.9920    2.0410   -0.0430 h1        1 KI1      0.079700
     28 H5         -8.1710    1.7270   -1.5530 hs        1 KI1      0.212800
     29 H6         -2.8080    0.0170    2.9400 h1        1 KI1      0.069950
     30 H7         -2.1430   -1.6470    2.5490 h1        1 KI1      0.069950
     31 H8         -1.0520    1.0900    1.5630 hc        1 KI1      0.062200
     32 H9         -0.2880   -0.0960    2.7110 hc        1 KI1      0.062200
     33 H10         0.3040   -2.5400    0.3250 ho        1 KI1      0.404000
     34 H11        -1.4230    0.2260   -0.9910 hc        1 KI1      0.062200
     35 H12        -0.8220   -1.4390   -1.3690 hc        1 KI1      0.062200
     36 H13        -2.4010   -2.4730    0.1940 h1        1 KI1      0.069950
     37 H14        -3.2950   -1.4270   -1.0020 h1        1 KI1      0.069950
     38 H15        -0.0830    1.8070   -0.4460 ha        1 KI1      0.146000
     39 H16         1.9770    3.0090   -1.1160 ha        1 KI1      0.158000
     40 H17         2.3020   -1.5680    0.8460 ha        1 KI1      0.170000
@<TRIPOS>BOND
     1    1    2 2   
     2    2    3 1   
     3    2    6 1   
     4    3    4 1   
     5    3   24 1   
     6    3   25 1   
     7    4    5 1   
     8    4   26 1   
     9    4   27 1   
    10    5   28 1   
    11    6    7 1   
    12    6   12 1   
    13    7    8 1   
    14    7   29 1   
    15    7   30 1   
    16    8    9 1   
    17    8   31 1   
    18    8   32 1   
    19    9   10 1   
    20    9   11 1   
    21    9   13 1   
    22   10   33 1   
    23   11   12 1   
    24   11   34 1   
    25   11   35 1   
    26   12   36 1   
    27   12   37 1   
    28   13   14 ar  
    29   13   19 ar  
    30   14   15 ar  
    31   14   38 1   
    32   15   16 ar  
    33   15   39 1   
    34   16   17 1   
    35   16   18 ar  
    36   18   19 ar  
    37   18   20 1   
    38   19   40 1   
    39   20   21 1   
    40   20   22 1   
    41   20   23 1   
@<TRIPOS>SUBSTRUCTURE
     1 KI1         1 TEMP              0 ****  ****    0 ROOT
