@<TRIPOS>MOLECULE
KI1
   40    41     1     0     0
SMALL
bcc


@<TRIPOS>ATOM
      1 O2         -0.0540   -0.2040   -0.2290 o         1 KI1     -0.607100
      2 C3          1.1740   -0.0390   -0.0810 c         1 KI1      0.652100
      3 C2          1.8160   -0.1670    1.2900 c3        1 KI1     -0.138400
      4 C1          0.7660   -0.4000    2.3460 c3        1 KI1      0.016700
      5 S           1.6270   -0.6210    3.8800 sh        1 KI1     -0.390900
      6 N           1.9640    0.3430   -1.1640 n         1 KI1     -0.455800
      7 C6          1.3920    0.3560   -2.4950 c3        1 KI1      0.081500
      8 C7          1.8460   -0.8140   -3.3710 c3        1 KI1     -0.111900
      9 C8          3.3780   -0.9170   -3.4030 c3        1 KI1      0.201100
     10 O1          3.9320    0.2500   -4.0120 oh        1 KI1     -0.591800
     11 C5          3.9460   -0.9360   -1.9750 c3        1 KI1     -0.111900
     12 C4          3.4060    0.2370   -1.1540 c3        1 KI1      0.081500
     13 C9          3.8090   -2.1620   -4.1430 ca        1 KI1     -0.118300
     14 C15         3.3310   -3.4190   -3.7540 ca        1 KI1     -0.087000
     15 C14         3.7290   -4.5670   -4.4310 ca        1 KI1     -0.133000
     16 C13         4.6180   -4.4790   -5.5110 ca        1 KI1      0.062400
     17 CL          5.0610   -5.9120   -6.3000 cl        1 KI1     -0.054400
     18 C11         5.1110   -3.2270   -5.9000 ca        1 KI1     -0.163300
     19 C10         4.7070   -2.0790   -5.2100 ca        1 KI1     -0.069000
     20 C12         6.0890   -3.0660   -7.0630 c3        1 KI1      0.692200
     21 F1          6.4670   -1.7660   -7.3100 f         1 KI1     -0.231633
     22 F2          7.2840   -3.7230   -6.9040 f         1 KI1     -0.231633
     23 F3          5.6120   -3.4960   -8.2760 f         1 KI1     -0.231633
     24 H1          2.3910    0.7700    1.5260 hc        1 KI1      0.080200
     25 H2          2.5380   -1.0280    1.2750 hc        1 KI1      0.080200
     26 H3          0.1560   -1.3020    2.0970 h1        1 KI1      0.079200
     27 H4          0.0690    0.4710    2.4000 h1        1 KI1      0.079200
     28 H5          0.5850   -0.7840    4.6780 hs        1 KI1      0.211800
     29 H6          1.7190    1.3170   -2.9880 h1        1 KI1      0.069700
     30 H7          0.2680    0.3490   -2.4230 h1        1 KI1      0.069700
     31 H8          1.4140   -1.7710   -2.9850 hc        1 KI1      0.062450
     32 H9          1.4560   -0.6540   -4.4090 hc        1 KI1      0.062450
     33 H10         3.4630    0.3880   -4.8440 ho        1 KI1      0.407000
     34 H11         3.6810   -1.9130   -1.4980 hc        1 KI1      0.062450
     35 H12         5.0620   -0.8510   -2.0220 hc        1 KI1      0.062450
     36 H13         3.8120    1.1910   -1.6050 h1        1 KI1      0.069700
     37 H14         3.7950    0.1550   -0.1030 h1        1 KI1      0.069700
     38 H15         2.6380   -3.5100   -2.9030 ha        1 KI1      0.146000
     39 H16         3.3440   -5.5510   -4.1180 ha        1 KI1      0.158000
     40 H17         5.1160   -1.0960   -5.5060 ha        1 KI1      0.170000
@<TRIPOS>BOND
     1    1    2 2   
     2    2    3 1   
     3    2    6 1   
     4    3    4 1   
     5    3   24 1   
     6    3   25 1   
     7    4    5 1   
     8    4   26 1   
     9    4   27 1   
    10    5   28 1   
    11    6    7 1   
    12    6   12 1   
    13    7    8 1   
    14    7   29 1   
    15    7   30 1   
    16    8    9 1   
    17    8   31 1   
    18    8   32 1   
    19    9   10 1   
    20    9   11 1   
    21    9   13 1   
    22   10   33 1   
    23   11   12 1   
    24   11   34 1   
    25   11   35 1   
    26   12   36 1   
    27   12   37 1   
    28   13   14 ar  
    29   13   19 ar  
    30   14   15 ar  
    31   14   38 1   
    32   15   16 ar  
    33   15   39 1   
    34   16   17 1   
    35   16   18 ar  
    36   18   19 ar  
    37   18   20 1   
    38   19   40 1   
    39   20   21 1   
    40   20   22 1   
    41   20   23 1   
@<TRIPOS>SUBSTRUCTURE
     1 KI1         1 TEMP              0 ****  ****    0 ROOT
