@<TRIPOS>MOLECULE
KI1
   40    37     1     0     0
SMALL
bcc


@<TRIPOS>ATOM
      1 O2         -2.8080    0.4340    2.6580 o         1 KI1     -0.362000
      2 C3         -1.5670    0.4570    2.6350 c1        1 KI1      0.298000
      3 C2         -0.7850    0.7950    3.8950 c2        1 KI1     -0.167000
      4 C1         -1.7160    1.3520    4.9320 c3        1 KI1     -0.245000
      5 S          -0.8660    1.4870    6.4650 sh        1 KI1     -0.037000
      6 N          -0.8380    0.1190    1.3860 n3        1 KI1     -0.319000
      7 C6         -1.5110   -0.2540    0.1490 c3        1 KI1     -0.033500
      8 C7         -0.9830   -1.5740   -0.4280 c3        1 KI1     -0.209500
      9 C8          0.4880   -1.5800   -0.5480 c3        1 KI1      0.128000
     10 O1          0.9270   -2.9140   -0.9200 oh        1 KI1     -0.323000
     11 C5          1.1570   -1.1870    0.7390 c3        1 KI1     -0.209500
     12 C4          0.6140    0.1220    1.2940 c3        1 KI1     -0.033500
     13 C9          0.9160   -0.5650   -1.6860 c1        1 KI1     -0.067000
     14 C15         2.0140    0.2770   -1.4920 c1        1 KI1     -0.111500
     15 C14         2.4560    1.1160   -2.5410 c1        1 KI1     -0.111500
     16 C13         1.7930    1.1030   -3.7770 c1        1 KI1     -0.014000
     17 CL          2.2910    2.2160   -5.0570 cl        1 KI1      0.023000
     18 C11         0.7000    0.2640   -3.9730 c1        1 KI1     -0.159000
     19 C10         0.2540   -0.5770   -2.9230 c1        1 KI1     -0.053000
     20 C12        -0.0040    0.2010   -5.3930 c3        1 KI1      0.472000
     21 F1         -1.0850    0.9690   -5.3880 f         1 KI1     -0.160667
     22 F2         -0.3550   -1.0550   -5.6550 f         1 KI1     -0.160667
     23 F3          0.8560    0.6390   -6.3440 f         1 KI1     -0.160667
     24 H1         -0.3680   -0.0010    4.2360 ha        1 KI1      0.119000
     25 H2         -0.1060    1.4500    3.6890 ha        1 KI1      0.119000
     26 H3         -2.0170    2.2130    4.6610 h1        1 KI1      0.119000
     27 H4         -2.4900    0.7510    5.0360 h1        1 KI1      0.119000
     28 H5         -1.5240    2.0610    7.2220 hs        1 KI1      0.042000
     29 H6         -2.4680   -0.3430    0.3220 h1        1 KI1      0.104250
     30 H7         -1.3690    0.4790   -0.5350 h1        1 KI1      0.104250
     31 H8         -1.2450   -2.2790    0.1370 hc        1 KI1      0.101250
     32 H9         -1.3810   -1.7160   -1.3290 hc        1 KI1      0.101250
     33 H10         0.8030   -3.4580   -0.2490 ho        1 KI1      0.205000
     34 H11         2.1010   -1.0910    0.5830 hc        1 KI1      0.101250
     35 H12         1.0150   -1.8920    1.3960 hc        1 KI1      0.101250
     36 H13         0.9850    0.2660    2.1880 h1        1 KI1      0.104250
     37 H14         0.8980    0.8620    0.7070 h1        1 KI1      0.104250
     38 H15         2.4770    0.2880   -0.6320 ha        1 KI1      0.149500
     39 H16         3.2350    1.7140   -2.4040 ha        1 KI1      0.149500
     40 H17        -0.4950   -1.1510   -3.0580 ha        1 KI1      0.171000
@<TRIPOS>BOND
     1    1    2 1   
     2    2    6 1   
     3    3    4 1   
     4    3   24 1   
     5    3   25 1   
     6    4    5 1   
     7    4   26 1   
     8    4   27 1   
     9    5   28 1   
    10    6    7 1   
    11    6   12 1   
    12    7    8 1   
    13    7   29 1   
    14    7   30 1   
    15    8    9 1   
    16    8   31 1   
    17    8   32 1   
    18    9   10 1   
    19    9   11 1   
    20    9   13 1   
    21   10   33 1   
    22   11   12 1   
    23   11   34 1   
    24   11   35 1   
    25   12   36 1   
    26   12   37 1   
    27   13   19 1   
    28   14   15 1   
    29   14   38 1   
    30   15   39 1   
    31   16   17 1   
    32   16   18 1   
    33   18   20 1   
    34   19   40 1   
    35   20   21 1   
    36   20   22 1   
    37   20   23 1   
@<TRIPOS>SUBSTRUCTURE
     1 KI1         1 TEMP              0 ****  ****    0 ROOT
