@<TRIPOS>MOLECULE
KI1
   40    41     1     0     0
SMALL
bcc


@<TRIPOS>ATOM
      1 O2         -0.0510   -0.1870   -0.2310 o         1 KI1     -0.607100
      2 C3          1.1780   -0.0310   -0.0800 c         1 KI1      0.652100
      3 C2          1.8170   -0.1670    1.2910 c3        1 KI1     -0.138400
      4 C1          0.7630   -0.3940    2.3450 c3        1 KI1      0.016700
      5 S           1.6180   -0.6260    3.8800 sh        1 KI1     -0.390900
      6 N           1.9730    0.3480   -1.1610 n         1 KI1     -0.455800
      7 C6          1.4040    0.3680   -2.4930 c3        1 KI1      0.081500
      8 C7          1.8510   -0.8020   -3.3720 c3        1 KI1     -0.111900
      9 C8          3.3830   -0.9150   -3.4010 c3        1 KI1      0.201100
     10 O1          3.9460    0.2500   -4.0050 oh        1 KI1     -0.591800
     11 C5          3.9480   -0.9430   -1.9720 c3        1 KI1     -0.111900
     12 C4          3.4140    0.2320   -1.1490 c3        1 KI1      0.081500
     13 C9          3.8070   -2.1600   -4.1440 ca        1 KI1     -0.118300
     14 C15         3.3200   -3.4150   -3.7600 ca        1 KI1     -0.087000
     15 C14         3.7120   -4.5640   -4.4400 ca        1 KI1     -0.133000
     16 C13         4.6030   -4.4790   -5.5180 ca        1 KI1      0.062400
     17 Cl          5.0390   -5.9120   -6.3110 cl        1 KI1     -0.054400
     18 C11         5.1060   -3.2280   -5.9020 ca        1 KI1     -0.163300
     19 C10         4.7080   -2.0800   -5.2090 ca        1 KI1     -0.069000
     20 C12         6.0870   -3.0700   -7.0630 c3        1 KI1      0.692200
     21 F1          6.4730   -1.7720   -7.3050 f         1 KI1     -0.231633
     22 F2          7.2770   -3.7360   -6.9030 f         1 KI1     -0.231633
     23 F3          5.6090   -3.4930   -8.2780 f         1 KI1     -0.231633
     24 H1          2.3980    0.7650    1.5310 hc        1 KI1      0.080200
     25 H2          2.5320   -1.0330    1.2760 hc        1 KI1      0.080200
     26 H3          0.1460   -1.2910    2.0920 h1        1 KI1      0.079700
     27 H4          0.0720    0.4820    2.4000 h1        1 KI1      0.079700
     28 H5          0.5750   -0.7830    4.6760 hs        1 KI1      0.211800
     29 H6          0.2790    0.3690   -2.4230 h1        1 KI1      0.069700
     30 H7          1.7380    1.3290   -2.9820 h1        1 KI1      0.069700
     31 H8          1.4120   -1.7570   -2.9900 hc        1 KI1      0.062450
     32 H9          1.4640   -0.6360   -4.4100 hc        1 KI1      0.062450
     33 H10         3.4790    0.3950   -4.8380 ho        1 KI1      0.407000
     34 H11         3.6750   -1.9190   -1.4980 hc        1 KI1      0.062450
     35 H12         5.0640   -0.8640   -2.0170 hc        1 KI1      0.062450
     36 H13         3.8270    1.1850   -1.5950 h1        1 KI1      0.069700
     37 H14         3.8000    0.1440   -0.0970 h1        1 KI1      0.069700
     38 H15         2.6240   -3.5050   -2.9100 ha        1 KI1      0.146000
     39 H16         3.3200   -5.5460   -4.1310 ha        1 KI1      0.158000
     40 H17         5.1230   -1.0990   -5.5010 ha        1 KI1      0.170000
@<TRIPOS>BOND
     1    1    2 2   
     2    2    3 1   
     3    2    6 1   
     4    3    4 1   
     5    3   24 1   
     6    3   25 1   
     7    4    5 1   
     8    4   26 1   
     9    4   27 1   
    10    5   28 1   
    11    6    7 1   
    12    6   12 1   
    13    7    8 1   
    14    7   29 1   
    15    7   30 1   
    16    8    9 1   
    17    8   31 1   
    18    8   32 1   
    19    9   10 1   
    20    9   11 1   
    21    9   13 1   
    22   10   33 1   
    23   11   12 1   
    24   11   34 1   
    25   11   35 1   
    26   12   36 1   
    27   12   37 1   
    28   13   14 ar  
    29   13   19 ar  
    30   14   15 ar  
    31   14   38 1   
    32   15   16 ar  
    33   15   39 1   
    34   16   17 1   
    35   16   18 ar  
    36   18   19 ar  
    37   18   20 1   
    38   19   40 1   
    39   20   21 1   
    40   20   22 1   
    41   20   23 1   
@<TRIPOS>SUBSTRUCTURE
     1 KI1         1 TEMP              0 ****  ****    0 ROOT
