@<TRIPOS>MOLECULE
KI2
   43    44     1     0     0
SMALL
bcc


@<TRIPOS>ATOM
      1 O1          0.1160   -0.1010   -0.0190 os        1 KI2     -0.441900
      2 C2         -4.6210   -0.6880    1.2410 ca        1 KI2     -0.123000
      3 C3         -4.1480    0.4460    1.9010 ca        1 KI2     -0.132500
      4 C4         -2.7860    0.7430    1.8960 ca        1 KI2     -0.110500
      5 C5         -1.8880   -0.1040    1.2360 ca        1 KI2     -0.097300
      6 C6         -2.3650   -1.2400    0.5740 ca        1 KI2     -0.110500
      7 C7         -3.7290   -1.5280    0.5750 ca        1 KI2     -0.132500
      8 C8          1.4540    0.2040   -0.1650 c         1 KI2      0.729100
      9 O9          2.0960    0.5900    0.8210 o         1 KI2     -0.557000
     10 N10         1.8790    0.0750   -1.4850 ns        1 KI2     -0.522900
     11 C11         3.2980    0.0000   -1.7630 c3        1 KI2      0.069700
     12 C12         3.7520   -1.3660   -2.3120 c3        1 KI2     -0.060100
     13 C13         3.3750   -2.5020   -1.4330 ca        1 KI2     -0.101300
     14 C14         3.9630   -2.6440   -0.1700 ca        1 KI2     -0.122000
     15 C15         3.6280   -3.7250    0.6430 ca        1 KI2     -0.125500
     16 C16         2.7070   -4.6750    0.2020 ca        1 KI2     -0.124000
     17 C17         2.1210   -4.5410   -1.0570 ca        1 KI2     -0.125500
     18 C18         2.4530   -3.4590   -1.8720 ca        1 KI2     -0.122000
     19 C19        -0.4300    0.2040    1.2830 c3        1 KI2      0.195700
     20 C21         3.7320    1.0760   -2.7970 c3        1 KI2      0.044100
     21 O22         2.9510    1.0980   -3.9740 oh        1 KI2     -0.595800
     22 C           3.7940    2.4540   -2.1680 c         1 KI2      0.597100
     23 O           4.2740    2.7340   -1.0720 o         1 KI2     -0.471000
     24 OXT         3.3230    3.5240   -2.8680 oh        1 KI2     -0.576100
     25 H6         -1.6560   -1.8960    0.0470 ha        1 KI2      0.138000
     26 H7         -4.1000   -2.4210    0.0510 ha        1 KI2      0.133000
     27 H10         1.2970   -0.4950   -2.0620 hn        1 KI2      0.312500
     28 H11         3.8660    0.2230   -0.8040 h1        1 KI2      0.120700
     29 H121        4.8720   -1.3360   -2.4130 hc        1 KI2      0.064700
     30 H122        3.3260   -1.5050   -3.3420 hc        1 KI2      0.064700
     31 H14         4.6880   -1.8940    0.1830 ha        1 KI2      0.134500
     32 H15         4.0910   -3.8260    1.6360 ha        1 KI2      0.136000
     33 H16         2.4440   -5.5280    0.8440 ha        1 KI2      0.135000
     34 H17         1.3970   -5.2900   -1.4090 ha        1 KI2      0.136000
     35 H18         1.9920   -3.3630   -2.8660 ha        1 KI2      0.134500
     36 H191        0.0940   -0.4380    2.0420 h1        1 KI2      0.067200
     37 H192       -0.2330    1.2840    1.5130 h1        1 KI2      0.067200
     38 H21         4.7730    0.8230   -3.1610 h1        1 KI2      0.111700
     39 H22         2.0220    1.1910   -3.7250 ho        1 KI2      0.420000
     40 H2         -5.6960   -0.9180    1.2440 ha        1 KI2      0.132000
     41 H3         -4.8510    1.1110    2.4250 ha        1 KI2      0.133000
     42 H102        3.0510    3.2480   -3.7580 ho        1 KI2      0.437000
     43 H4         -2.4170    1.6420    2.4120 ha        1 KI2      0.138000
@<TRIPOS>BOND
     1    1    8 1   
     2    1   19 1   
     3    2    3 ar  
     4    2    7 ar  
     5    2   40 1   
     6    3    4 ar  
     7    3   41 1   
     8    4    5 ar  
     9    4   43 1   
    10    5    6 ar  
    11    5   19 1   
    12    6    7 ar  
    13    6   25 1   
    14    7   26 1   
    15    8    9 2   
    16    8   10 1   
    17   10   11 1   
    18   10   27 1   
    19   11   12 1   
    20   11   20 1   
    21   11   28 1   
    22   12   13 1   
    23   12   29 1   
    24   12   30 1   
    25   13   14 ar  
    26   13   18 ar  
    27   14   15 ar  
    28   14   31 1   
    29   15   16 ar  
    30   15   32 1   
    31   16   17 ar  
    32   16   33 1   
    33   17   18 ar  
    34   17   34 1   
    35   18   35 1   
    36   19   36 1   
    37   19   37 1   
    38   20   21 1   
    39   20   22 1   
    40   20   38 1   
    41   21   39 1   
    42   22   23 2   
    43   22   24 1   
    44   24   42 1   
@<TRIPOS>SUBSTRUCTURE
     1 KI2         1 TEMP              0 ****  ****    0 ROOT
