@<TRIPOS>MOLECULE
KI2
   42    38     1     0     0
SMALL
bcc


@<TRIPOS>ATOM
      1 O1         -2.0940    0.5410    0.3830 os        1 KI2     -0.295000
      2 C2         -6.1890    3.4750    0.6430 c1        1 KI2     -0.134500
      3 C3         -4.9760    3.7960   -0.0050 c1        1 KI2     -0.134500
      4 C4         -3.8330    3.0420    0.2470 c1        1 KI2     -0.134500
      5 C5         -3.8840    1.9680    1.1400 c1        1 KI2     -0.074000
      6 C6         -5.0780    1.6470    1.7800 c1        1 KI2     -0.130000
      7 C7         -6.2370    2.4040    1.5320 c1        1 KI2     -0.134500
      8 C8         -0.7710    0.0500    0.5200 c2        1 KI2      0.386000
      9 O9         -0.2160    0.0700    1.6160 o         1 KI2     -0.410000
     10 N10        -0.1130   -0.5300   -0.6000 n         1 KI2     -0.302000
     11 C11         1.3450   -0.6160   -0.6260 c3        1 KI2      0.007000
     12 C12         1.7650   -1.6610   -1.5810 c3        1 KI2     -0.127000
     13 C13         2.9180   -2.4800   -0.9780 c2        1 KI2     -0.057000
     14 C14         4.2100   -1.9580   -0.9610 c2        1 KI2     -0.122000
     15 C15         5.2520   -2.7020   -0.4010 c1        1 KI2     -0.129000
     16 C16         4.9990   -3.9680    0.1430 c1        1 KI2     -0.134500
     17 C17         3.7200   -4.4840    0.1260 c1        1 KI2     -0.134500
     18 C18         2.6680   -3.7400   -0.4350 c1        1 KI2     -0.145000
     19 C19        -2.5870    1.2290    1.5190 c3        1 KI2      0.037000
     20 C21         1.9280    0.7150   -1.0550 c3        1 KI2     -0.077000
     21 O22         0.9210    1.5190   -1.5840 oh        1 KI2     -0.368000
     22 C           2.5430    1.4080    0.1430 c2        1 KI2      0.312000
     23 O           2.0720    2.5070    0.5400 o         1 KI2     -0.558000
     24 OXT         3.5810    0.9590    0.6540 o         1 KI2     -0.558000
     25 H2         -6.9920    4.0030    0.4680 ha        1 KI2      0.126000
     26 H3         -4.9110    4.6110   -0.5380 ha        1 KI2      0.126000
     27 H4         -2.9800    3.2670   -0.2070 ha        1 KI2      0.126000
     28 H6         -5.1050    0.9090    2.4160 ha        1 KI2      0.127000
     29 H7         -7.1110    2.1680    2.0020 ha        1 KI2      0.126000
     30 H10        -0.6320   -0.8600   -1.3480 hn        1 KI2      0.239000
     31 H11         1.6780   -0.8460    0.2840 h1        1 KI2      0.139000
     32 H121        1.0370   -2.2320   -1.7640 hc        1 KI2      0.092000
     33 H122        2.0690   -1.2340   -2.4210 hc        1 KI2      0.092000
     34 H14         4.4150   -1.1030   -1.4640 ha        1 KI2      0.204000
     35 H15         6.1490   -2.3420   -0.3910 ha        1 KI2      0.129000
     36 H16         5.7180   -4.4980    0.4730 ha        1 KI2      0.126000
     37 H17         3.5600   -5.4280    0.4270 ha        1 KI2      0.126000
     38 H18         2.0180   -4.4930   -0.6900 ha        1 KI2      0.117000
     39 H191       -2.7770    0.5700    2.2550 h1        1 KI2      0.099000
     40 H192       -1.9160    1.8810    1.8270 h1        1 KI2      0.099000
     41 H21         2.6360    0.5580   -1.7570 h1        1 KI2      0.097000
     42 H22         1.2000    1.8800   -2.3330 ho        1 KI2      0.229000
@<TRIPOS>BOND
     1    1    8 1   
     2    1   19 1   
     3    2    7 1   
     4    2   25 1   
     5    3    4 1   
     6    3   26 1   
     7    4   27 1   
     8    5    6 1   
     9    5   19 1   
    10    6   28 1   
    11    7   29 1   
    12    8    9 1   
    13    8   10 1   
    14   10   11 1   
    15   10   30 1   
    16   11   12 1   
    17   11   20 1   
    18   11   31 1   
    19   12   13 1   
    20   12   32 1   
    21   12   33 1   
    22   13   14 1   
    23   13   18 1   
    24   14   15 1   
    25   14   34 1   
    26   15   35 1   
    27   16   17 1   
    28   16   36 1   
    29   17   37 1   
    30   18   38 1   
    31   19   39 1   
    32   19   40 1   
    33   20   21 1   
    34   20   22 1   
    35   20   41 1   
    36   21   42 1   
    37   22   23 1   
    38   22   24 1   
@<TRIPOS>SUBSTRUCTURE
     1 KI2         1 TEMP              0 ****  ****    0 ROOT
