@<TRIPOS>MOLECULE
KI2
   43    44     1     0     0
SMALL
bcc


@<TRIPOS>ATOM
      1 O1          0.1090   -0.1030   -0.0250 os        1 KI2     -0.441900
      2 C2         -4.6290   -0.7160    1.2130 ca        1 KI2     -0.123000
      3 C3         -4.1680    0.4260    1.8680 ca        1 KI2     -0.132500
      4 C4         -2.8080    0.7320    1.8680 ca        1 KI2     -0.110500
      5 C5         -1.9000   -0.1140    1.2200 ca        1 KI2     -0.097300
      6 C6         -2.3660   -1.2580    0.5630 ca        1 KI2     -0.110500
      7 C7         -3.7280   -1.5550    0.5580 ca        1 KI2     -0.132500
      8 C8          1.4470    0.2070   -0.1650 c         1 KI2      0.729100
      9 O9          2.0830    0.6000    0.8230 o         1 KI2     -0.557000
     10 N10         1.8790    0.0760   -1.4830 n         1 KI2     -0.522900
     11 C11         3.3000    0.0080   -1.7530 c3        1 KI2      0.069700
     12 C12         3.7640   -1.3570   -2.2970 c3        1 KI2     -0.060100
     13 C13         3.3880   -2.4930   -1.4180 ca        1 KI2     -0.101300
     14 C14         3.9700   -2.6290   -0.1510 ca        1 KI2     -0.122000
     15 C15         3.6370   -3.7100    0.6620 ca        1 KI2     -0.125500
     16 C16         2.7220   -4.6650    0.2180 ca        1 KI2     -0.124000
     17 C17         2.1420   -4.5370   -1.0430 ca        1 KI2     -0.125500
     18 C18         2.4720   -3.4550   -1.8590 ca        1 KI2     -0.122000
     19 C19        -0.4450    0.2030    1.2730 c3        1 KI2      0.195700
     20 C21         3.7340    1.0840   -2.7880 c3        1 KI2      0.044100
     21 O22         2.9590    1.1000   -3.9680 oh        1 KI2     -0.595800
     22 C           3.7870    2.4630   -2.1610 c         1 KI2      0.597100
     23 O           4.2600    2.7480   -1.0640 o         1 KI2     -0.471000
     24 OXT         3.3130    3.5300   -2.8660 oh        1 KI2     -0.576100
     25 H6         -1.6500   -1.9130    0.0450 ha        1 KI2      0.138000
     26 H7         -4.0900   -2.4540    0.0390 ha        1 KI2      0.133000
     27 H10         3.0470    3.2500   -3.7560 ho        1 KI2      0.437000
     28 H11         3.8630    0.2360   -0.7930 h1        1 KI2      0.120700
     29 H121        3.3440   -1.5000   -3.3290 hc        1 KI2      0.064700
     30 H122        4.8830   -1.3220   -2.3930 hc        1 KI2      0.064700
     31 H14         4.6900   -1.8750    0.2030 ha        1 KI2      0.134500
     32 H15         4.0960   -3.8080    1.6580 ha        1 KI2      0.136000
     33 H16         2.4600   -5.5180    0.8610 ha        1 KI2      0.135000
     34 H17         1.4220   -5.2900   -1.3980 ha        1 KI2      0.136000
     35 H18         2.0150   -3.3630   -2.8560 ha        1 KI2      0.134500
     36 H191        0.0800   -0.4330    2.0370 h1        1 KI2      0.066700
     37 H192       -0.2550    1.2860    1.4990 h1        1 KI2      0.066700
     38 H21         4.7780    0.8350   -3.1460 h1        1 KI2      0.111700
     39 H22         2.0280    1.1880   -3.7240 ho        1 KI2      0.420000
     40 H2         -5.7030   -0.9530    1.2110 ha        1 KI2      0.132000
     41 H3         -4.8780    1.0900    2.3820 ha        1 KI2      0.133000
     42 H102        1.3030   -0.4980   -2.0610 hn        1 KI2      0.312500
     43 H4         -2.4470    1.6370    2.3800 ha        1 KI2      0.138000
@<TRIPOS>BOND
     1    1    8 1   
     2    1   19 1   
     3    2    3 ar  
     4    2    7 ar  
     5    2   40 1   
     6    3    4 ar  
     7    3   41 1   
     8    4    5 ar  
     9    4   43 1   
    10    5    6 ar  
    11    5   19 1   
    12    6    7 ar  
    13    6   25 1   
    14    7   26 1   
    15    8    9 2   
    16    8   10 1   
    17   10   11 1   
    18   10   42 1   
    19   11   12 1   
    20   11   20 1   
    21   11   28 1   
    22   12   13 1   
    23   12   29 1   
    24   12   30 1   
    25   13   14 ar  
    26   13   18 ar  
    27   14   15 ar  
    28   14   31 1   
    29   15   16 ar  
    30   15   32 1   
    31   16   17 ar  
    32   16   33 1   
    33   17   18 ar  
    34   17   34 1   
    35   18   35 1   
    36   19   36 1   
    37   19   37 1   
    38   20   21 1   
    39   20   22 1   
    40   20   38 1   
    41   21   39 1   
    42   22   23 2   
    43   22   24 1   
    44   24   27 1   
@<TRIPOS>SUBSTRUCTURE
     1 KI2         1 TEMP              0 ****  ****    0 ROOT
