@<TRIPOS>MOLECULE
KI2
   43    44     1     0     0
SMALL
bcc


@<TRIPOS>ATOM
      1 O1          0.1080   -0.0840   -0.0400 os        1 KI2     -0.439900
      2 C2         -4.6680   -0.5350    1.1230 ca        1 KI2     -0.123000
      3 C3         -4.1350    0.4720    1.9280 ca        1 KI2     -0.132500
      4 C4         -2.7580    0.6850    1.9640 ca        1 KI2     -0.110500
      5 C5         -1.9050   -0.1190    1.1980 ca        1 KI2     -0.096300
      6 C6         -2.4430   -1.1280    0.3920 ca        1 KI2     -0.110500
      7 C7         -3.8210   -1.3320    0.3530 ca        1 KI2     -0.132500
      8 C8          1.4660    0.1420   -0.1400 c         1 KI2      0.735100
      9 O9          2.1210    0.3610    0.8910 o         1 KI2     -0.572000
     10 N10         1.9050    0.1520   -1.4560 n         1 KI2     -0.526900
     11 C11         3.3150    0.0040   -1.7380 c3        1 KI2      0.111700
     12 C12         3.7100   -1.3710   -2.3080 c3        1 KI2     -0.060100
     13 C13         3.3990   -2.4970   -1.3890 ca        1 KI2     -0.098300
     14 C14         4.0740   -2.6210   -0.1680 ca        1 KI2     -0.120000
     15 C15         3.8020   -3.6940    0.6780 ca        1 KI2     -0.126000
     16 C16         2.8580   -4.6540    0.3120 ca        1 KI2     -0.124000
     17 C17         2.1870   -4.5370   -0.9040 ca        1 KI2     -0.126000
     18 C18         2.4550   -3.4640   -1.7530 ca        1 KI2     -0.120000
     19 C19        -0.4320    0.0920    1.2870 c3        1 KI2      0.196700
     20 C21         3.7900    1.0770   -2.7600 c3        1 KI2      0.036100
     21 O22         3.0560    0.8990   -3.9610 oh        1 KI2     -0.598800
     22 C           3.5610    2.4780   -2.2250 c         1 KI2      0.603100
     23 O           4.3570    3.1350   -1.5580 o         1 KI2     -0.481000
     24 OXT         2.4000    3.1160   -2.5330 oh        1 KI2     -0.568100
     25 H6         -1.7690   -1.7500   -0.2170 ha        1 KI2      0.138000
     26 H7         -4.2400   -2.1240   -0.2840 ha        1 KI2      0.133000
     27 H10         1.2790   -0.2110   -2.1410 hn        1 KI2      0.323500
     28 H11         3.8920    0.1880   -0.7790 h1        1 KI2      0.110700
     29 H121        4.8170   -1.3520   -2.5010 hc        1 KI2      0.064700
     30 H122        3.2000   -1.5170   -3.2990 hc        1 KI2      0.064700
     31 H14         4.8160   -1.8630    0.1260 ha        1 KI2      0.133500
     32 H15         4.3320   -3.7800    1.6380 ha        1 KI2      0.135000
     33 H16         2.6450   -5.5000    0.9810 ha        1 KI2      0.134000
     34 H17         1.4430   -5.2930   -1.1970 ha        1 KI2      0.135000
     35 H18         1.9240   -3.3800   -2.7130 ha        1 KI2      0.133500
     36 H191        0.0450   -0.6680    1.9640 h1        1 KI2      0.066700
     37 H192       -0.1740    1.1230    1.6470 h1        1 KI2      0.066700
     38 H21         4.8930    0.9330   -2.9370 h1        1 KI2      0.082700
     39 H22         3.5070    1.4080   -4.6470 ho        1 KI2      0.418000
     40 H2         -5.7550   -0.6980    1.0950 ha        1 KI2      0.132000
     41 H3         -4.8010    1.1040    2.5340 ha        1 KI2      0.133000
     42 H102        1.7980    2.4980   -2.9790 ho        1 KI2      0.444000
     43 H4         -2.3410    1.4850    2.5940 ha        1 KI2      0.138000
@<TRIPOS>BOND
     1    1    8 1   
     2    1   19 1   
     3    2    3 ar  
     4    2    7 ar  
     5    2   40 1   
     6    3    4 ar  
     7    3   41 1   
     8    4    5 ar  
     9    4   43 1   
    10    5    6 ar  
    11    5   19 1   
    12    6    7 ar  
    13    6   25 1   
    14    7   26 1   
    15    8    9 2   
    16    8   10 1   
    17   10   11 1   
    18   10   27 1   
    19   11   12 1   
    20   11   20 1   
    21   11   28 1   
    22   12   13 1   
    23   12   29 1   
    24   12   30 1   
    25   13   14 ar  
    26   13   18 ar  
    27   14   15 ar  
    28   14   31 1   
    29   15   16 ar  
    30   15   32 1   
    31   16   17 ar  
    32   16   33 1   
    33   17   18 ar  
    34   17   34 1   
    35   18   35 1   
    36   19   36 1   
    37   19   37 1   
    38   20   21 1   
    39   20   22 1   
    40   20   38 1   
    41   21   39 1   
    42   22   23 2   
    43   22   24 1   
    44   24   42 1   
@<TRIPOS>SUBSTRUCTURE
     1 KI2         1 TEMP              0 ****  ****    0 ROOT
