@<TRIPOS>MOLECULE
KI2
   42    43     1     0     0
SMALL
bcc


@<TRIPOS>ATOM
      1 O1         -2.1810   -2.6960    3.0190 os        1 KI2     -0.439900
      2 C2         -3.1710   -7.5940    3.6260 ca        1 KI2     -0.147000
      3 C3         -2.3110   -6.8770    2.7960 ca        1 KI2     -0.135000
      4 C4         -2.3280   -5.4800    2.7990 ca        1 KI2     -0.116500
      5 C5         -3.2160   -4.7980    3.6370 ca        1 KI2     -0.115300
      6 C6         -4.0780   -5.5220    4.4710 ca        1 KI2     -0.116500
      7 C7         -4.0550   -6.9140    4.4650 ca        1 KI2     -0.135000
      8 C8         -2.3770   -2.2660    1.7110 c         1 KI2      0.728100
      9 O9         -3.5460   -2.1610    1.3020 o         1 KI2     -0.602000
     10 N10        -1.1880   -1.8770    1.1060 n         1 KI2     -0.471900
     11 C11        -1.1730   -1.7780   -0.3490 c3        1 KI2      0.059700
     12 C12        -0.9900   -0.3180   -0.8150 c3        1 KI2     -0.049100
     13 C13        -2.2090    0.5180   -0.6620 ca        1 KI2     -0.052300
     14 C14        -3.3310    0.2860   -1.4680 ca        1 KI2     -0.119000
     15 C15        -4.4610    1.0930   -1.3520 ca        1 KI2     -0.132500
     16 C16        -4.4840    2.1400   -0.4310 ca        1 KI2     -0.144000
     17 C17        -3.3730    2.3730    0.3790 ca        1 KI2     -0.132500
     18 C18        -2.2410    1.5670    0.2660 ca        1 KI2     -0.119000
     19 C19        -3.2920   -3.3070    3.6740 c3        1 KI2      0.191700
     20 C21        -0.0430   -2.6380   -0.9760 c3        1 KI2     -0.017900
     21 O22         1.2340   -2.2010   -0.5520 oh        1 KI2     -0.574800
     22 C          -0.1790   -4.1430   -0.5750 c         1 KI2      0.933600
     23 O          -0.1190   -4.4440    0.6480 o         1 KI2     -0.822800
     24 OXT        -0.3650   -4.9510   -1.5200 o         1 KI2     -0.822800
     25 H4         -1.6350   -4.9230    2.1330 ha        1 KI2      0.161000
     26 H6         -4.7760   -4.9870    5.1300 ha        1 KI2      0.161000
     27 H7         -4.7350   -7.4770    5.1200 ha        1 KI2      0.128500
     28 H10        -0.3800   -2.3700    1.4630 hn        1 KI2      0.347500
     29 H11        -2.1550   -2.1550   -0.7680 h1        1 KI2      0.079700
     30 H121       -0.7130   -0.3500   -1.9040 hc        1 KI2      0.045700
     31 H122       -0.1330    0.1500   -0.2620 hc        1 KI2      0.045700
     32 H14        -3.3210   -0.5500   -2.1830 ha        1 KI2      0.133000
     33 H15        -5.3400    0.8960   -1.9820 ha        1 KI2      0.119000
     34 H16        -5.3770    2.7730   -0.3370 ha        1 KI2      0.116000
     35 H17        -3.3910    3.1890    1.1150 ha        1 KI2      0.119000
     36 H18        -1.3730    1.7450    0.9170 ha        1 KI2      0.133000
     37 H191       -4.2650   -2.9580    3.2330 h1        1 KI2      0.062700
     38 H192       -3.2020   -2.9400    4.7350 h1        1 KI2      0.062700
     39 H21        -0.1290   -2.5540   -2.0950 h1        1 KI2      0.033700
     40 H22         1.3600   -1.3200   -0.9240 ho        1 KI2      0.362000
     41 H2         -3.1550   -8.6930    3.6190 ha        1 KI2      0.114000
     42 H3         -1.6130   -7.4000    2.1250 ha        1 KI2      0.128500
@<TRIPOS>BOND
     1    1    8 1   
     2    1   19 1   
     3    2    3 ar  
     4    2    7 ar  
     5    2   41 1   
     6    3    4 ar  
     7    3   42 1   
     8    4    5 ar  
     9    4   25 1   
    10    5    6 ar  
    11    5   19 1   
    12    6    7 ar  
    13    6   26 1   
    14    7   27 1   
    15    8    9 2   
    16    8   10 1   
    17   10   11 1   
    18   10   28 1   
    19   11   12 1   
    20   11   20 1   
    21   11   29 1   
    22   12   13 1   
    23   12   30 1   
    24   12   31 1   
    25   13   14 ar  
    26   13   18 ar  
    27   14   15 ar  
    28   14   32 1   
    29   15   16 ar  
    30   15   33 1   
    31   16   17 ar  
    32   16   34 1   
    33   17   18 ar  
    34   17   35 1   
    35   18   36 1   
    36   19   37 1   
    37   19   38 1   
    38   20   21 1   
    39   20   22 1   
    40   20   39 1   
    41   21   40 1   
    42   22   23 1   
    43   22   24 1   
@<TRIPOS>SUBSTRUCTURE
     1 KI2         1 TEMP              0 ****  ****    0 ROOT
