@<TRIPOS>MOLECULE
KI5
   24    24     1     0     0
SMALL
bcc


@<TRIPOS>ATOM
      1 O           0.1080    0.2400   -0.1850 oh        1 KI5     -0.594800
      2 C6          1.5230    0.2050   -0.0640 c3        1 KI5      0.138400
      3 C5          1.8280    0.1250    1.4180 c3        1 KI5     -0.046300
      4 S           3.5910    0.1320    1.5430 ss        1 KI5     -0.207400
      5 C4          3.9170    0.0320    3.2350 ca        1 KI5      0.738300
      6 N           5.2490    0.0220    3.5590 nb        1 KI5     -0.711500
      7 C3          5.5470   -0.0560    4.8780 ca        1 KI5      0.465100
      8 C7          6.9800   -0.0690    5.3010 c3        1 KI5     -0.155400
      9 C2          4.5350   -0.1230    5.8630 ca        1 KI5     -0.386600
     10 N1          2.8740   -0.0290    4.1150 nb        1 KI5     -0.711500
     11 C1          3.1920   -0.1070    5.4320 ca        1 KI5      0.465100
     12 C           2.0950   -0.1760    6.4430 c3        1 KI5     -0.155400
     13 H          -0.0840    0.2910   -1.1290 ho        1 KI5      0.403000
     14 H61C        1.9670    1.1350   -0.5130 h1        1 KI5      0.034700
     15 H62C        1.9290   -0.6940   -0.6040 h1        1 KI5      0.034700
     16 H51C        1.3700    0.9920    1.9530 h1        1 KI5      0.093200
     17 H52C        1.3830   -0.8020    1.8540 h1        1 KI5      0.093200
     18 H71C        7.4880    0.8740    4.9780 hc        1 KI5      0.058867
     19 H72C        7.0540   -0.1560    6.4120 hc        1 KI5      0.058867
     20 H73C        7.5160   -0.9330    4.8350 hc        1 KI5      0.058867
     21 H2          4.7870   -0.1850    6.9280 ha        1 KI5      0.152000
     22 HC1         2.5230   -0.2350    7.4730 hc        1 KI5      0.058867
     23 HC2         1.4440    0.7310    6.3740 hc        1 KI5      0.058867
     24 HC3         1.4580   -1.0780    6.2650 hc        1 KI5      0.058867
@<TRIPOS>BOND
     1    1    2 1   
     2    1   13 1   
     3    2    3 1   
     4    2   14 1   
     5    2   15 1   
     6    3    4 1   
     7    3   16 1   
     8    3   17 1   
     9    4    5 1   
    10    5    6 ar  
    11    5   10 ar  
    12    6    7 ar  
    13    7    8 1   
    14    7    9 ar  
    15    8   18 1   
    16    8   19 1   
    17    8   20 1   
    18    9   11 ar  
    19    9   21 1   
    20   10   11 ar  
    21   11   12 1   
    22   12   22 1   
    23   12   23 1   
    24   12   24 1   
@<TRIPOS>SUBSTRUCTURE
     1 KI5         1 TEMP              0 ****  ****    0 ROOT
