@<TRIPOS>MOLECULE
KI9
   23    25     1     0     0
SMALL
bcc


@<TRIPOS>ATOM
      1 CL1         0.0410    0.1430   -0.0640 cl        1 KI9     -0.060400
      2 C10         1.7410    0.0980   -0.0350 ca        1 KI9     -0.038600
      3 C9          2.4240    0.0500    1.2000 ca        1 KI9      0.022400
      4 CL2         1.5300    0.0370    2.6400 cl        1 KI9     -0.043400
      5 C8          3.8230    0.0120    1.2490 ca        1 KI9      0.047400
      6 CL3         4.6320   -0.0460    2.7370 cl        1 KI9     -0.051400
      7 C11         2.4440    0.1100   -1.2450 ca        1 KI9      0.122100
      8 C12         3.8520    0.0720   -1.2020 ca        1 KI9     -0.012200
      9 C7          4.5510    0.0230    0.0580 cp        1 KI9     -0.043000
     10 C4          5.9670   -0.0060   -0.2670 cp        1 KI9     -0.070000
     11 C3          6.0510    0.0280   -1.7130 ca        1 KI9      0.008800
     12 C2          7.3020    0.0110   -2.3510 ca        1 KI9     -0.013600
     13 CL5         7.3990    0.0510   -4.0440 cl        1 KI9     -0.078400
     14 C5          7.1290   -0.0550    0.4940 ca        1 KI9     -0.054000
     15 C6          8.3580   -0.0700   -0.1680 ca        1 KI9     -0.014600
     16 CL6         9.7920   -0.1300    0.7450 cl        1 KI9     -0.083400
     17 C1          8.4520   -0.0380   -1.5690 ca        1 KI9     -0.079000
     18 N13         4.7690    0.0750   -2.2590 na        1 KI9     -0.162300
     19 O14         1.8710    0.1550   -2.4930 oh        1 KI9     -0.493100
     20 H14         0.9060    0.1780   -2.3860 ho        1 KI9      0.440000
     21 H5          7.0790   -0.0810    1.5940 ha        1 KI9      0.165000
     22 H1          9.4430   -0.0520   -2.0520 ha        1 KI9      0.164000
     23 H13         4.5360    0.1040   -3.2170 hn        1 KI9      0.327700
@<TRIPOS>BOND
     1    1    2 1   
     2    2    3 ar  
     3    2    7 ar  
     4    3    4 1   
     5    3    5 ar  
     6    5    6 1   
     7    5    9 ar  
     8    7    8 ar  
     9    7   19 1   
    10    8    9 ar  
    11    8   18 1   
    12    9   10 1   
    13   10   11 ar  
    14   10   14 ar  
    15   11   12 ar  
    16   11   18 1   
    17   12   13 1   
    18   12   17 ar  
    19   14   15 ar  
    20   14   21 1   
    21   15   16 1   
    22   15   17 ar  
    23   17   22 1   
    24   18   23 1   
    25   19   20 1   
@<TRIPOS>SUBSTRUCTURE
     1 KI9         1 TEMP              0 ****  ****    0 ROOT
