@<TRIPOS>MOLECULE
KI9
   23    16     1     0     0
SMALL
bcc


@<TRIPOS>ATOM
      1 CL1        -4.9820   -0.0040    0.0160 cl        1 KI9      0.018000
      2 C10        -3.2380   -0.0040    0.0160 c2        1 KI9     -0.117000
      3 C9         -2.7550   -0.0040    1.3180 c2        1 KI9     -0.056000
      4 CL2        -3.9110    0.2460    2.6000 cl        1 KI9      0.035000
      5 C8         -1.3870   -0.0040    1.5520 c1        1 KI9     -0.031000
      6 CL3        -1.3390    0.2970    3.2690 cl        1 KI9      0.013500
      7 C11        -2.3520   -0.0040   -1.0520 c1        1 KI9      0.077000
      8 C12        -0.9670   -0.0040   -0.8170 c1        1 KI9      0.033000
      9 C7         -0.4900   -0.0040    0.4710 c1        1 KI9     -0.043000
     10 C4          0.9050   -0.0040    0.4130 c1        1 KI9     -0.070000
     11 C3          1.2740   -0.0040   -0.9100 c1        1 KI9      0.054000
     12 C2          2.6350   -0.0040   -1.2590 c1        1 KI9     -0.092000
     13 CL5         3.2760    0.1800   -2.8700 cl        1 KI9      0.013500
     14 C5          1.8890   -0.0040    1.4160 c1        1 KI9     -0.054000
     15 C6          3.2330   -0.0040    1.0700 c1        1 KI9     -0.093000
     16 CL6         4.4830    0.0990    2.2810 cl        1 KI9     -0.005000
     17 C1          3.6060   -0.0040   -0.2680 c2        1 KI9     -0.079000
     18 N13         0.1200   -0.0040   -1.6760 DU        1 KI9     -0.203000
     19 O14        -3.1200    0.0350   -2.2310 oh        1 KI9     -0.247000
     20 H14        -3.1380   -0.7730   -2.5990 ho        1 KI9      0.239000
     21 H5          1.6270   -0.0160    2.3570 ha        1 KI9      0.165000
     22 H1          4.5510   -0.0040   -0.5110 ha        1 KI9      0.164000
     23 H13         0.0820   -0.0030   -2.5880 DU        1 KI9      0.278000
@<TRIPOS>BOND
     1    1    2 1   
     2    2    3 1   
     3    2    7 1   
     4    3    4 1   
     5    3    5 1   
     6    5    9 1   
     7    7   19 1   
     8    8    9 1   
     9   10   14 1   
    10   11   12 1   
    11   12   17 1   
    12   14   21 1   
    13   15   16 1   
    14   15   17 1   
    15   17   22 1   
    16   19   20 1   
@<TRIPOS>SUBSTRUCTURE
     1 KI9         1 TEMP              0 ****  ****    0 ROOT
