@<TRIPOS>MOLECULE
KI9
   23    25     1     0     0
SMALL
bcc


@<TRIPOS>ATOM
      1 CL1        -4.5240   -1.3090   -0.1460 cl        1 KI9     -0.060400
      2 C10        -2.9130   -0.7680   -0.1030 ca        1 KI9     -0.038600
      3 C9         -2.6340    0.6160   -0.0620 ca        1 KI9      0.022400
      4 CL2        -3.9200    1.7200   -0.0570 cl        1 KI9     -0.043400
      5 C8         -1.3140    1.0850   -0.0270 ca        1 KI9      0.047400
      6 CL3        -0.9920    2.7470    0.0220 cl        1 KI9     -0.051400
      7 C11        -1.8770   -1.7100   -0.1090 ca        1 KI9      0.122100
      8 C12        -0.5470   -1.2440   -0.0730 ca        1 KI9     -0.012200
      9 C7         -0.2610    0.1680   -0.0320 cp        1 KI9     -0.043000
     10 C4          1.1860    0.2860   -0.0030 cp        1 KI9     -0.070000
     11 C3          1.7030   -1.0670   -0.0280 ca        1 KI9      0.008800
     12 C2          3.0880   -1.2990   -0.0100 ca        1 KI9     -0.013600
     13 CL5         3.6910   -2.8840   -0.0400 cl        1 KI9     -0.078400
     14 C5          2.0650    1.3620    0.0410 ca        1 KI9     -0.054000
     15 C6          3.4370    1.1010    0.0590 ca        1 KI9     -0.014600
     16 CL6         4.5280    2.4040    0.1120 cl        1 KI9     -0.083400
     17 C1          3.9490   -0.2060    0.0340 ca        1 KI9     -0.079000
     18 N13         0.6450   -1.9750   -0.0710 na        1 KI9     -0.162300
     19 O14        -2.0470   -3.0720   -0.1470 oh        1 KI9     -0.493100
     20 H14        -2.9990   -3.2620   -0.1690 ho        1 KI9      0.440000
     21 H5          1.6860    2.3960    0.0610 ha        1 KI9      0.165000
     22 H1          5.0390   -0.3680    0.0490 ha        1 KI9      0.164000
     23 H13         0.7120   -2.9590   -0.0950 hn        1 KI9      0.327700
@<TRIPOS>BOND
     1    1    2 1   
     2    2    3 ar  
     3    2    7 ar  
     4    3    4 1   
     5    3    5 ar  
     6    5    6 1   
     7    5    9 ar  
     8    7    8 ar  
     9    7   19 1   
    10    8    9 ar  
    11    8   18 1   
    12    9   10 1   
    13   10   11 ar  
    14   10   14 ar  
    15   11   12 ar  
    16   11   18 1   
    17   12   13 1   
    18   12   17 ar  
    19   14   15 ar  
    20   14   21 1   
    21   15   16 1   
    22   15   17 ar  
    23   17   22 1   
    24   18   23 1   
    25   19   20 1   
@<TRIPOS>SUBSTRUCTURE
     1 KI9         1 TEMP              0 ****  ****    0 ROOT
