@<TRIPOS>MOLECULE
KIA
   20    20     1     0     0
SMALL
bcc


@<TRIPOS>ATOM
      1 O2         -0.1930    0.0050    0.0010 o         1 KIA     -0.519100
      2 C4          1.0450    0.0020    0.0000 c         1 KIA      0.584500
      3 C5          1.8180    0.0010    1.2500 cc        1 KIA     -0.310200
      4 C6          3.1660   -0.0020    1.2500 cd        1 KIA      0.068900
      5 O3          3.9700   -0.0030    2.3610 os        1 KIA     -0.295900
      6 C7          3.3050   -0.0010    3.6230 c3        1 KIA      0.105700
      7 C1          3.9850   -0.0040   -0.0000 c         1 KIA      0.570500
      8 O1          5.2130   -0.0070   -0.0000 o         1 KIA     -0.428100
      9 C3          1.8170    0.0010   -1.2500 cc        1 KIA     -0.310200
     10 C2          3.1660   -0.0030   -1.2500 cd        1 KIA      0.068900
     11 O4          3.9700   -0.0040   -2.3620 os        1 KIA     -0.295900
     12 C8          3.3040   -0.0030   -3.6230 c3        1 KIA      0.105700
     13 H5          1.2250    0.0030    2.1780 ha        1 KIA      0.164000
     14 H7          2.6810    0.9190    3.7350 h1        1 KIA      0.054700
     15 H7A         4.1510   -0.0020    4.3570 h1        1 KIA      0.054700
     16 H7B         2.6780   -0.9180    3.7360 h1        1 KIA      0.054700
     17 H3          1.2240    0.0020   -2.1770 ha        1 KIA      0.164000
     18 H8          4.1490   -0.0050   -4.3570 h1        1 KIA      0.054700
     19 H8A         2.6760   -0.9200   -3.7350 h1        1 KIA      0.054700
     20 H8B         2.6800    0.9170   -3.7350 h1        1 KIA      0.054700
@<TRIPOS>BOND
     1    1    2 2   
     2    2    3 1   
     3    2    9 1   
     4    3    4 2   
     5    3   13 1   
     6    4    5 1   
     7    4    7 1   
     8    5    6 1   
     9    6   14 1   
    10    6   15 1   
    11    6   16 1   
    12    7    8 2   
    13    7   10 1   
    14    9   10 2   
    15    9   17 1   
    16   10   11 1   
    17   11   12 1   
    18   12   18 1   
    19   12   19 1   
    20   12   20 1   
@<TRIPOS>SUBSTRUCTURE
     1 KIA         1 TEMP              0 ****  ****    0 ROOT
