@<TRIPOS>MOLECULE
KIA
   20    20     1     0     0
SMALL
bcc


@<TRIPOS>ATOM
      1 O2          0.0000   -3.1520   -0.0010 o         1 KIA     -0.519100
      2 C4          0.0000   -1.9140   -0.0010 c         1 KIA      0.584500
      3 C5          1.2500   -1.1410   -0.0000 cc        1 KIA     -0.310200
      4 C6          1.2500    0.2070    0.0000 cd        1 KIA      0.068900
      5 O3          2.3610    1.0110    0.0010 os        1 KIA     -0.295900
      6 C7          3.6230    0.3450    0.0010 c3        1 KIA      0.105700
      7 C1          0.0000    1.0260    0.0000 c         1 KIA      0.570500
      8 O1          0.0000    2.2530    0.0010 o         1 KIA     -0.428100
      9 C3         -1.2500   -1.1410   -0.0010 cc        1 KIA     -0.310200
     10 C2         -1.2500    0.2070   -0.0000 cd        1 KIA      0.068900
     11 O4         -2.3610    1.0110   -0.0000 os        1 KIA     -0.295900
     12 C8         -3.6230    0.3450   -0.0010 c3        1 KIA      0.105700
     13 H5          2.1780   -1.7350   -0.0000 ha        1 KIA      0.164000
     14 H7          3.7350   -0.2800   -0.9180 h1        1 KIA      0.054700
     15 H7A         4.3570    1.1910    0.0010 h1        1 KIA      0.054700
     16 H7B         3.7350   -0.2810    0.9190 h1        1 KIA      0.054700
     17 H3         -2.1770   -1.7350   -0.0010 ha        1 KIA      0.164000
     18 H8         -3.7350   -0.2800   -0.9200 h1        1 KIA      0.054700
     19 H8A        -3.7350   -0.2810    0.9180 h1        1 KIA      0.054700
     20 H8B        -4.3570    1.1910   -0.0010 h1        1 KIA      0.054700
@<TRIPOS>BOND
     1    1    2 2   
     2    2    3 1   
     3    2    9 1   
     4    3    4 2   
     5    3   13 1   
     6    4    5 1   
     7    4    7 1   
     8    5    6 1   
     9    6   14 1   
    10    6   15 1   
    11    6   16 1   
    12    7    8 2   
    13    7   10 1   
    14    9   10 2   
    15    9   17 1   
    16   10   11 1   
    17   11   12 1   
    18   12   18 1   
    19   12   19 1   
    20   12   20 1   
@<TRIPOS>SUBSTRUCTURE
     1 KIA         1 TEMP              0 ****  ****    0 ROOT
