@<TRIPOS>MOLECULE
KIB
   22    22     1     0     0
SMALL
bcc


@<TRIPOS>ATOM
      1 O1          0.0600    0.0860   -0.1250 oh        1 KIB     -0.475100
      2 C1          1.4340    0.0860   -0.0630 ca        1 KIB      0.049100
      3 C6          2.1560    0.1430    1.1440 ca        1 KIB      0.131100
      4 O3          1.3690    0.1910    2.2820 os        1 KIB     -0.320400
      5 C7          2.0590    0.1290    3.5250 c3        1 KIB      0.115700
      6 C5          3.5540    0.1530    1.1510 ca        1 KIB     -0.258000
      7 C2          2.1440    0.0420   -1.2870 ca        1 KIB      0.131100
      8 O4          1.3590   -0.0140   -2.4180 os        1 KIB     -0.320400
      9 C8          2.0560   -0.0430   -3.6600 c3        1 KIB      0.115700
     10 C3          3.5410    0.0550   -1.2970 ca        1 KIB     -0.258000
     11 C4          4.2270    0.1100   -0.0750 ca        1 KIB      0.157100
     12 O2          5.6020    0.1180   -0.1580 oh        1 KIB     -0.495100
     13 HO1        -0.2740    0.0320    0.7840 ho        1 KIB      0.428000
     14 H7          2.7080    1.0280    3.6560 h1        1 KIB      0.046867
     15 H7A         2.6640   -0.8080    3.5950 h1        1 KIB      0.046867
     16 H7B         1.2320    0.1250    4.2800 h1        1 KIB      0.046867
     17 H5          4.1170    0.1970    2.0910 ha        1 KIB      0.150500
     18 H8          2.6970   -0.9540   -3.7330 h1        1 KIB      0.046867
     19 H8A         2.6700    0.8810   -3.7900 h1        1 KIB      0.046867
     20 H8B         1.2290   -0.0780   -4.4150 h1        1 KIB      0.046867
     21 H3          4.1140    0.0220   -2.2330 ha        1 KIB      0.150500
     22 HO2         5.9540    0.1640    0.7430 ho        1 KIB      0.419000
@<TRIPOS>BOND
     1    1    2 1   
     2    1   13 1   
     3    2    3 ar  
     4    2    7 ar  
     5    3    4 1   
     6    3    6 ar  
     7    4    5 1   
     8    5   14 1   
     9    5   15 1   
    10    5   16 1   
    11    6   11 ar  
    12    6   17 1   
    13    7    8 1   
    14    7   10 ar  
    15    8    9 1   
    16    9   18 1   
    17    9   19 1   
    18    9   20 1   
    19   10   11 ar  
    20   10   21 1   
    21   11   12 1   
    22   12   22 1   
@<TRIPOS>SUBSTRUCTURE
     1 KIB         1 TEMP              0 ****  ****    0 ROOT
