@<TRIPOS>MOLECULE
KIB
   22    22     1     0     0
SMALL
bcc


@<TRIPOS>ATOM
      1 O1         -0.1270   -2.3470   -0.0440 oh        1 KIB     -0.476100
      2 C1         -0.0270   -0.9750   -0.0590 ca        1 KIB      0.048100
      3 C6          1.2030   -0.2850   -0.0630 ca        1 KIB      0.131100
      4 O3          2.3180   -1.1040   -0.0520 os        1 KIB     -0.320900
      5 C7          3.5790   -0.4430   -0.0570 c3        1 KIB      0.116200
      6 C5          1.2520    1.1100   -0.0780 ca        1 KIB     -0.257500
      7 C2         -1.2300   -0.2320   -0.0690 ca        1 KIB      0.131100
      8 O4         -2.3840   -0.9850   -0.0640 os        1 KIB     -0.320900
      9 C8         -3.6070   -0.2570   -0.0740 c3        1 KIB      0.116200
     10 C3         -1.1980    1.1660   -0.0840 ca        1 KIB     -0.257500
     11 C4          0.0420    1.8180   -0.0880 ca        1 KIB      0.156100
     12 O2          0.1470    3.1910   -0.1030 oh        1 KIB     -0.496100
     13 HO1         0.7740   -2.7050   -0.0390 ho        1 KIB      0.429000
     14 H7          4.3130   -1.2890   -0.0460 h1        1 KIB      0.046533
     15 H7A         3.6960    0.1720   -0.9820 h1        1 KIB      0.046533
     16 H7B         3.6930    0.1920    0.8550 h1        1 KIB      0.046533
     17 H5          2.2010    1.6610   -0.0820 ha        1 KIB      0.150000
     18 H8         -4.3850   -1.0630   -0.0670 h1        1 KIB      0.046533
     19 H8A        -3.6950    0.3830    0.8370 h1        1 KIB      0.046533
     20 H8B        -3.6910    0.3630   -0.9990 h1        1 KIB      0.046533
     21 H3         -2.1260    1.7520   -0.0930 ha        1 KIB      0.150000
     22 HO2        -0.7490    3.5580   -0.1090 ho        1 KIB      0.420000
@<TRIPOS>BOND
     1    1    2 1   
     2    1   13 1   
     3    2    3 ar  
     4    2    7 ar  
     5    3    4 1   
     6    3    6 ar  
     7    4    5 1   
     8    5   14 1   
     9    5   15 1   
    10    5   16 1   
    11    6   11 ar  
    12    6   17 1   
    13    7    8 1   
    14    7   10 ar  
    15    8    9 1   
    16    9   18 1   
    17    9   19 1   
    18    9   20 1   
    19   10   11 ar  
    20   10   21 1   
    21   11   12 1   
    22   12   22 1   
@<TRIPOS>SUBSTRUCTURE
     1 KIB         1 TEMP              0 ****  ****    0 ROOT
