@<TRIPOS>MOLECULE
KIB
   22    22     1     0     0
SMALL
bcc


@<TRIPOS>ATOM
      1 O1          0.0620    0.0150    0.1260 oh        1 KIB     -0.476100
      2 C1          1.4340    0.0480    0.0270 ca        1 KIB      0.048100
      3 C6          2.1770    0.0620    1.2300 ca        1 KIB      0.131100
      4 O3          1.4240    0.0420    2.3840 os        1 KIB     -0.320900
      5 C7          2.1520    0.0550    3.6070 c3        1 KIB      0.116200
      6 C5          3.5740    0.0950    1.1980 ca        1 KIB     -0.257500
      7 C2          2.1240    0.0670   -1.2030 ca        1 KIB      0.131100
      8 O4          1.3050    0.0500   -2.3180 os        1 KIB     -0.320900
      9 C8          1.9650    0.0750   -3.5790 c3        1 KIB      0.116200
     10 C3          3.5190    0.1000   -1.2520 ca        1 KIB     -0.257500
     11 C4          4.2260    0.1130   -0.0420 ca        1 KIB      0.156100
     12 O2          5.5990    0.1450   -0.1470 oh        1 KIB     -0.496100
     13 HO1        -0.2960    0.0130   -0.7740 ho        1 KIB      0.429000
     14 H7          2.7610    0.9870    3.6950 h1        1 KIB      0.046533
     15 H7A         2.8030   -0.8490    3.6900 h1        1 KIB      0.046533
     16 H7B         1.3470    0.0340    4.3840 h1        1 KIB      0.046533
     17 H5          4.1600    0.1060    2.1260 ha        1 KIB      0.150000
     18 H8          2.6130   -0.8280   -3.7000 h1        1 KIB      0.046533
     19 H8A         2.5670    1.0090   -3.6890 h1        1 KIB      0.046533
     20 H8B         1.1200    0.0580   -4.3130 h1        1 KIB      0.046533
     21 H3          4.0690    0.1150   -2.2010 ha        1 KIB      0.150000
     22 HO2         5.9660    0.1510    0.7490 ho        1 KIB      0.420000
@<TRIPOS>BOND
     1    1    2 1   
     2    1   13 1   
     3    2    3 ar  
     4    2    7 ar  
     5    3    4 1   
     6    3    6 ar  
     7    4    5 1   
     8    5   14 1   
     9    5   15 1   
    10    5   16 1   
    11    6   11 ar  
    12    6   17 1   
    13    7    8 1   
    14    7   10 ar  
    15    8    9 1   
    16    9   18 1   
    17    9   19 1   
    18    9   20 1   
    19   10   11 ar  
    20   10   21 1   
    21   11   12 1   
    22   12   22 1   
@<TRIPOS>SUBSTRUCTURE
     1 KIB         1 TEMP              0 ****  ****    0 ROOT
