@<TRIPOS>MOLECULE
KIB
   22    20     1     0     0
SMALL
bcc


@<TRIPOS>ATOM
      1 O1         -2.3100    0.2350    0.0090 oh        1 KIB     -0.261000
      2 C1         -0.8790    0.3540   -0.0100 c2        1 KIB     -0.040000
      3 C6         -0.1740    0.4250    1.1850 c1        1 KIB      0.070000
      4 O3         -0.8720    0.4520    2.4200 o         1 KIB     -0.229000
      5 C7         -0.7710   -0.7450    3.1620 c3        1 KIB     -0.068000
      6 C5          1.2150    0.5650    1.1690 c2        1 KIB     -0.283000
      7 C2         -0.1960    0.4240   -1.2280 c2        1 KIB      0.121000
      8 O4         -0.9290    0.4730   -2.4640 os        1 KIB     -0.207000
      9 C8         -0.8970   -0.7310   -3.2010 c3        1 KIB     -0.066000
     10 C3          1.1830    0.5630   -1.2390 c1        1 KIB     -0.192000
     11 C4          1.8910    0.6340   -0.0300 c1        1 KIB      0.110000
     12 O2          3.2600    0.9020   -0.0400 oh        1 KIB     -0.246000
     13 HO1        -2.6840    1.0590    0.1000 ho        1 KIB      0.234000
     14 H7          0.0480   -0.7000    3.7720 h1        1 KIB      0.086333
     15 H7A        -1.5880   -0.8620    3.7130 h1        1 KIB      0.086333
     16 H7B        -0.6780   -1.5090    2.5430 h1        1 KIB      0.086333
     17 H5          1.7140    0.6150    2.0170 ha        1 KIB      0.141000
     18 H8         -0.3700   -1.3870   -2.7280 h1        1 KIB      0.090000
     19 H8A        -0.5070   -0.5680   -4.0630 h1        1 KIB      0.090000
     20 H8B        -1.8180   -1.0680   -3.3150 h1        1 KIB      0.090000
     21 H3          1.6800    0.6140   -2.1180 ha        1 KIB      0.170000
     22 HO2         3.6830    0.2530    0.3460 ho        1 KIB      0.217000
@<TRIPOS>BOND
     1    1    2 1   
     2    1   13 1   
     3    2    3 1   
     4    2    7 1   
     5    3    6 1   
     6    4    5 1   
     7    5   14 1   
     8    5   15 1   
     9    5   16 1   
    10    6   11 1   
    11    6   17 1   
    12    7    8 1   
    13    7   10 1   
    14    8    9 1   
    15    9   18 1   
    16    9   19 1   
    17    9   20 1   
    18   10   21 1   
    19   11   12 1   
    20   12   22 1   
@<TRIPOS>SUBSTRUCTURE
     1 KIB         1 TEMP              0 ****  ****    0 ROOT
