@<TRIPOS>MOLECULE
KIF
   28    29     1     0     0
SMALL
bcc


@<TRIPOS>ATOM
      1 C4          0.0430   -0.0120   -0.0460 c3        1 KIF      0.126100
      2 O4         -0.4730    1.1280    0.6260 oh        1 KIF     -0.602800
      3 C3          1.5720    0.1490    0.0060 c3        1 KIF      0.121100
      4 O3          2.1270   -0.8210   -0.8660 oh        1 KIF     -0.597800
      5 C2          2.0900   -0.0000    1.4430 c3        1 KIF      0.062100
      6 O2          3.5080   -0.0300    1.4490 oh        1 KIF     -0.603800
      7 C1          1.6470   -1.3750    2.0380 c3        1 KIF      0.259100
      8 N9          1.9060   -1.4800    3.4810 n         1 KIF     -0.570900
      9 C8          0.7040   -1.5210    4.1850 c         1 KIF      0.625500
     10 O8          0.5690   -1.5240    5.4080 o         1 KIF     -0.548500
     11 C7         -0.4290   -1.5920    3.1280 c         1 KIF      0.622500
     12 O7         -1.6390   -1.6540    3.3420 o         1 KIF     -0.544500
     13 N           0.1980   -1.6100    1.8710 n         1 KIF     -0.477800
     14 C5         -0.4520   -1.3200    0.6190 c3        1 KIF      0.043700
     15 C6         -0.3060   -2.4770   -0.4000 c3        1 KIF      0.129400
     16 O6         -1.0880   -3.5900   -0.0360 oh        1 KIF     -0.590800
     17 H4         -0.2880   -0.0060   -1.1220 h1        1 KIF      0.070700
     18 HO4        -1.4360    1.0790    0.5670 ho        1 KIF      0.419000
     19 H3          1.8430    1.1770   -0.3720 h1        1 KIF      0.059700
     20 HO3         3.0650   -0.8950   -0.6380 ho        1 KIF      0.424000
     21 H2          1.6990    0.8550    2.0600 h1        1 KIF      0.079700
     22 HO2         3.8080    0.8710    1.2740 ho        1 KIF      0.418000
     23 H1          2.2200   -2.1880    1.4950 h2        1 KIF      0.097700
     24 H9          2.7660   -1.1620    3.8490 hn        1 KIF      0.347500
     25 H5         -1.5590   -1.2100    0.8470 h1        1 KIF      0.095700
     26 H61        -0.7270   -2.1490   -1.3890 h1        1 KIF      0.063200
     27 H62         0.7720   -2.7590   -0.5280 h1        1 KIF      0.063200
     28 HO6        -0.7410   -3.9370    0.7950 ho        1 KIF      0.409000
@<TRIPOS>BOND
     1    1    2 1   
     2    1    3 1   
     3    1   14 1   
     4    1   17 1   
     5    2   18 1   
     6    3    4 1   
     7    3    5 1   
     8    3   19 1   
     9    4   20 1   
    10    5    6 1   
    11    5    7 1   
    12    5   21 1   
    13    6   22 1   
    14    7    8 1   
    15    7   13 1   
    16    7   23 1   
    17    8    9 1   
    18    8   24 1   
    19    9   10 2   
    20    9   11 1   
    21   11   12 2   
    22   11   13 1   
    23   13   14 1   
    24   14   15 1   
    25   14   25 1   
    26   15   16 1   
    27   15   26 1   
    28   15   27 1   
    29   16   28 1   
@<TRIPOS>SUBSTRUCTURE
     1 KIF         1 TEMP              0 ****  ****    0 ROOT
