@<TRIPOS>MOLECULE
KIF
   28    29     1     0     0
SMALL
bcc


@<TRIPOS>ATOM
      1 C4          0.4220   -1.0630   -1.7620 c3        1 KIF      0.125100
      2 O4          0.1520   -2.3580   -1.2480 oh        1 KIF     -0.590800
      3 C3         -0.9100   -0.3470   -2.0500 c3        1 KIF      0.088100
      4 O3         -0.6120    0.8320   -2.7750 oh        1 KIF     -0.593800
      5 C2         -1.6730   -0.0540   -0.7510 c3        1 KIF      0.062100
      6 O2         -2.8000    0.7630   -1.0230 oh        1 KIF     -0.601800
      7 C1         -0.7810    0.7830    0.2200 c3        1 KIF      0.261100
      8 N9         -1.3670    0.9090    1.5600 n         1 KIF     -0.571900
      9 C8         -0.5930    0.2150    2.4910 c         1 KIF      0.623500
     10 O8         -0.8540    0.0500    3.6820 o         1 KIF     -0.549500
     11 C7          0.6710   -0.2790    1.7400 c         1 KIF      0.625500
     12 O7          1.6150   -0.9030    2.2190 o         1 KIF     -0.535500
     13 N           0.5490    0.1730    0.4140 n         1 KIF     -0.478800
     14 C5          1.2950   -0.3430   -0.7040 c3        1 KIF      0.077700
     15 C6          2.1080    0.7600   -1.4270 c3        1 KIF      0.128400
     16 O6          3.1770    1.2240   -0.6360 oh        1 KIF     -0.589800
     17 H4          1.0050   -1.1340   -2.7230 h1        1 KIF      0.069700
     18 HO4        -0.1240   -2.9070   -1.9930 ho        1 KIF      0.408000
     19 H3         -1.5520   -1.0130   -2.6980 h1        1 KIF      0.038700
     20 HO3        -1.3810    1.4150   -2.6970 ho        1 KIF      0.424000
     21 H2         -1.9820   -1.0270   -0.2810 h1        1 KIF      0.074700
     22 HO2        -3.4530    0.2050   -1.4630 ho        1 KIF      0.416000
     23 H1         -0.6540    1.8150   -0.2320 h2        1 KIF      0.096700
     24 H9         -2.3310    1.1010    1.6590 hn        1 KIF      0.345500
     25 H5          2.0310   -1.1010   -0.2860 h1        1 KIF      0.114700
     26 H61         1.4370    1.6040   -1.7400 h1        1 KIF      0.060700
     27 H62         2.6030    0.3170   -2.3330 h1        1 KIF      0.060700
     28 HO6         2.8070    1.6320    0.1570 ho        1 KIF      0.409000
@<TRIPOS>BOND
     1    1    2 1   
     2    1    3 1   
     3    1   14 1   
     4    1   17 1   
     5    2   18 1   
     6    3    4 1   
     7    3    5 1   
     8    3   19 1   
     9    4   20 1   
    10    5    6 1   
    11    5    7 1   
    12    5   21 1   
    13    6   22 1   
    14    7    8 1   
    15    7   13 1   
    16    7   23 1   
    17    8    9 1   
    18    8   24 1   
    19    9   10 2   
    20    9   11 1   
    21   11   12 2   
    22   11   13 1   
    23   13   14 1   
    24   14   15 1   
    25   14   25 1   
    26   15   16 1   
    27   15   26 1   
    28   15   27 1   
    29   16   28 1   
@<TRIPOS>SUBSTRUCTURE
     1 KIF         1 TEMP              0 ****  ****    0 ROOT
