@<TRIPOS>MOLECULE
KIF
   28    29     1     0     0
SMALL
bcc


@<TRIPOS>ATOM
      1 C4          0.0110   -0.0470   -0.0980 c3        1 KIF      0.125100
      2 O4         -0.5250    1.1030    0.5390 oh        1 KIF     -0.598800
      3 C3          1.5370    0.1520   -0.0790 c3        1 KIF      0.153100
      4 O3          2.1010   -0.8580   -0.8970 oh        1 KIF     -0.602800
      5 C2          2.0690    0.0880    1.3600 c3        1 KIF      0.090100
      6 O2          3.4820    0.1490    1.2730 oh        1 KIF     -0.605800
      7 C1          1.6710   -1.2670    2.0260 c3        1 KIF      0.212100
      8 N9          1.9380   -1.2370    3.4780 n         1 KIF     -0.572900
      9 C8          0.7470   -1.4690    4.1800 c         1 KIF      0.620500
     10 O8          0.6320   -1.5780    5.4000 o         1 KIF     -0.539500
     11 C7         -0.3920   -1.5240    3.1320 c         1 KIF      0.618500
     12 O7         -1.6000   -1.5850    3.3560 o         1 KIF     -0.544500
     13 N           0.2330   -1.5770    1.8750 n         1 KIF     -0.471800
     14 C5         -0.4410   -1.3410    0.6220 c3        1 KIF      0.040700
     15 C6         -0.2800   -2.5300   -0.3570 c3        1 KIF      0.129400
     16 O6         -1.0390   -3.6440    0.0520 oh        1 KIF     -0.591800
     17 H4         -0.3370   -0.0900   -1.1680 h1        1 KIF      0.069700
     18 HO4        -1.4860    1.0270    0.4960 ho        1 KIF      0.417000
     19 H3          1.7820    1.1670   -0.5040 h1        1 KIF      0.070700
     20 HO3         3.0600   -0.7400   -0.8530 ho        1 KIF      0.429000
     21 H2          1.6530    0.9590    1.9370 h1        1 KIF      0.085700
     22 HO2         3.8070    0.4430    2.1330 ho        1 KIF      0.420000
     23 H1          2.2700   -2.0840    1.5180 h2        1 KIF      0.084700
     24 H9          2.8110   -1.5640    3.8090 hn        1 KIF      0.330500
     25 H5         -1.5470   -1.2500    0.8610 h1        1 KIF      0.094700
     26 H61         0.8030   -2.7980   -0.4830 h1        1 KIF      0.064200
     27 H62        -0.7140   -2.2460   -1.3540 h1        1 KIF      0.064200
     28 HO6        -0.6810   -3.9550    0.8920 ho        1 KIF      0.407000
@<TRIPOS>BOND
     1    1    2 1   
     2    1    3 1   
     3    1   14 1   
     4    1   17 1   
     5    2   18 1   
     6    3    4 1   
     7    3    5 1   
     8    3   19 1   
     9    4   20 1   
    10    5    6 1   
    11    5    7 1   
    12    5   21 1   
    13    6   22 1   
    14    7    8 1   
    15    7   13 1   
    16    7   23 1   
    17    8    9 1   
    18    8   24 1   
    19    9   10 2   
    20    9   11 1   
    21   11   12 2   
    22   11   13 1   
    23   13   14 1   
    24   14   15 1   
    25   14   25 1   
    26   15   16 1   
    27   15   26 1   
    28   15   27 1   
    29   16   28 1   
@<TRIPOS>SUBSTRUCTURE
     1 KIF         1 TEMP              0 ****  ****    0 ROOT
