@<TRIPOS>MOLECULE
KIF
   28    29     1     0     0
SMALL
bcc


@<TRIPOS>ATOM
      1 C4         -0.7840    0.8650   -1.3110 c3        1 KIF      0.126100
      2 O4         -1.2250    2.0750   -0.7920 oh        1 KIF     -0.602800
      3 C3          0.7130    0.8650   -1.3110 c3        1 KIF      0.121100
      4 O3          1.1890   -0.3540   -2.0370 oh        1 KIF     -0.597800
      5 C2          1.2750    0.8650   -0.0180 c3        1 KIF      0.062100
      6 O2          2.7880    0.6780   -0.1500 oh        1 KIF     -0.603800
      7 C1          0.7640   -0.1700    0.8520 c3        1 KIF      0.259100
      8 N9          1.4190   -0.0620    2.1500 n         1 KIF     -0.570900
      9 C8          0.4050   -0.0770    3.1610 c         1 KIF      0.625500
     10 O8          0.5940   -0.0870    4.3630 o         1 KIF     -0.548500
     11 C7         -0.9300   -0.1960    2.4780 c         1 KIF      0.622500
     12 O7         -2.0140   -0.2380    3.0300 o         1 KIF     -0.544500
     13 N          -0.7280   -0.2140    0.9260 n         1 KIF     -0.477800
     14 C5         -1.4500   -0.3380   -0.4490 c3        1 KIF      0.043700
     15 C6         -1.2030   -1.5180   -1.0110 c3        1 KIF      0.129400
     16 O6         -2.1820   -2.4500   -0.5990 oh        1 KIF     -0.590800
     17 H4         -1.0940    0.7920   -2.2340 h1        1 KIF      0.070700
     18 HO4        -1.7370    2.4850   -1.3910 ho        1 KIF      0.419000
     19 H3          1.0270    1.6570   -1.7890 h1        1 KIF      0.059700
     20 HO3         1.6360   -0.1090   -2.7640 ho        1 KIF      0.424000
     21 H2          1.1020    1.7320    0.3960 h1        1 KIF      0.079700
     22 HO2         3.1920    1.4630   -0.0570 ho        1 KIF      0.418000
     23 H1          1.0460   -1.0210    0.4670 h2        1 KIF      0.097700
     24 H9          2.3190   -0.0240    2.2940 hn        1 KIF      0.347500
     25 H5         -2.4100   -0.1980   -0.3480 h1        1 KIF      0.095700
     26 H61        -0.3200   -1.8310   -0.7360 h1        1 KIF      0.063200
     27 H62        -1.2290   -1.4280   -1.9830 h1        1 KIF      0.063200
     28 HO6        -2.1620   -3.1580   -1.1350 ho        1 KIF      0.409000
@<TRIPOS>BOND
     1    1    2 1   
     2    1    3 1   
     3    1   14 1   
     4    1   17 1   
     5    2   18 1   
     6    3    4 1   
     7    3    5 1   
     8    3   19 1   
     9    4   20 1   
    10    5    6 1   
    11    5    7 1   
    12    5   21 1   
    13    6   22 1   
    14    7    8 1   
    15    7   13 1   
    16    7   23 1   
    17    8    9 1   
    18    8   24 1   
    19    9   10 2   
    20    9   11 1   
    21   11   12 2   
    22   11   13 1   
    23   13   14 1   
    24   14   15 1   
    25   14   25 1   
    26   15   16 1   
    27   15   26 1   
    28   15   27 1   
    29   16   28 1   
@<TRIPOS>SUBSTRUCTURE
     1 KIF         1 TEMP              0 ****  ****    0 ROOT
