@<TRIPOS>MOLECULE
KIF
   28    29     1     0     0
SMALL
bcc


@<TRIPOS>ATOM
      1 C4          0.0310   -0.0280   -0.0400 c3        1 KIF      0.126100
      2 O4         -0.4960    1.1050    0.6350 oh        1 KIF     -0.602800
      3 C3          1.5590    0.1510    0.0050 c3        1 KIF      0.121100
      4 O3          2.1220   -0.8110   -0.8700 oh        1 KIF     -0.597800
      5 C2          2.0840    0.0060    1.4400 c3        1 KIF      0.062100
      6 O2          3.5030   -0.0060    1.4400 oh        1 KIF     -0.603800
      7 C1          1.6610   -1.3740    2.0360 c3        1 KIF      0.259100
      8 N9          1.9270   -1.4770    3.4770 ns        1 KIF     -0.570900
      9 C8          0.7280   -1.5340    4.1860 c         1 KIF      0.625500
     10 O8          0.5980   -1.5400    5.4100 o         1 KIF     -0.548500
     11 C7         -0.4080   -1.6180    3.1340 c         1 KIF      0.622500
     12 O7         -1.6160   -1.6940    3.3530 o         1 KIF     -0.544500
     13 N           0.2140   -1.6260    1.8740 n         1 KIF     -0.477800
     14 C5         -0.4450   -1.3430    0.6260 c3        1 KIF      0.043700
     15 C6         -0.2900   -2.4970   -0.3960 c3        1 KIF      0.129400
     16 O6         -1.0570   -3.6200   -0.0290 oh        1 KIF     -0.590800
     17 H4         -0.3050   -0.0250   -1.1150 h1        1 KIF      0.070700
     18 HO4        -1.4580    1.0440    0.5800 ho        1 KIF      0.419000
     19 H3          1.8150    1.1820   -0.3730 h1        1 KIF      0.059700
     20 HO3         3.0620   -0.8750   -0.6470 ho        1 KIF      0.424000
     21 H2          1.6860    0.8560    2.0590 h1        1 KIF      0.079700
     22 HO2         3.7910    0.8980    1.2650 ho        1 KIF      0.418000
     23 H1          2.2410   -2.1790    1.4890 h2        1 KIF      0.097700
     24 H9          2.7840   -1.1490    3.8420 hn        1 KIF      0.347500
     25 H5         -1.5520   -1.2470    0.8580 h1        1 KIF      0.095700
     26 H61         0.7920   -2.7660   -0.5280 h1        1 KIF      0.063200
     27 H62        -0.7190   -2.1730   -1.3830 h1        1 KIF      0.063200
     28 HO6        -0.7020   -3.9640    0.7990 ho        1 KIF      0.409000
@<TRIPOS>BOND
     1    1    2 1   
     2    1    3 1   
     3    1   14 1   
     4    1   17 1   
     5    2   18 1   
     6    3    4 1   
     7    3    5 1   
     8    3   19 1   
     9    4   20 1   
    10    5    6 1   
    11    5    7 1   
    12    5   21 1   
    13    6   22 1   
    14    7    8 1   
    15    7   13 1   
    16    7   23 1   
    17    8    9 1   
    18    8   24 1   
    19    9   10 2   
    20    9   11 1   
    21   11   12 2   
    22   11   13 1   
    23   13   14 1   
    24   14   15 1   
    25   14   25 1   
    26   15   16 1   
    27   15   26 1   
    28   15   27 1   
    29   16   28 1   
@<TRIPOS>SUBSTRUCTURE
     1 KIF         1 TEMP              0 ****  ****    0 ROOT
