@<TRIPOS>MOLECULE
KIJ
   29    30     1     0     0
SMALL
bcc


@<TRIPOS>ATOM
      1 OAD         0.5300   -0.7030   -0.8850 oh        1 KIJ     -0.496100
      2 CAT         1.7570   -0.3480   -0.3730 ca        1 KIJ      0.086100
      3 CAP         1.9080    0.3920    0.8170 ca        1 KIJ      0.013100
      4 OAC         0.7350    0.7340    1.4720 oh        1 KIJ     -0.537100
      5 CAJ         3.1750    0.7540    1.2800 ca        1 KIJ     -0.135000
      6 CAQ         4.3140    0.3800    0.5650 ca        1 KIJ     -0.120600
      7 CAN         5.6930    0.8090    1.0610 c         1 KIJ      0.913200
      8 OAB         5.7510    1.4000    2.1740 o         1 KIJ     -0.819800
      9 OAA         6.6830    0.5550    0.3220 o         1 KIJ     -0.819800
     10 CAL         4.1870   -0.3690   -0.6070 ca        1 KIJ     -0.109000
     11 CAS         2.9180   -0.7300   -1.0710 ca        1 KIJ      0.027100
     12 OAM         2.7800   -1.5810   -2.1740 os        1 KIJ     -0.227200
     13 CAO         2.8790   -0.9790   -3.4160 ca        1 KIJ      0.138100
     14 CAK         2.4360   -1.7740   -4.4880 ca        1 KIJ     -0.104000
     15 CAH         3.4100    0.2990   -3.6360 ca        1 KIJ     -0.139000
     16 CAG         3.4990    0.7880   -4.9370 ca        1 KIJ     -0.111000
     17 CAI         3.0720    0.0260   -6.0210 ca        1 KIJ     -0.118000
     18 CAR         2.5430   -1.2540   -5.7850 ca        1 KIJ     -0.153200
     19 NAU         2.0830   -2.0730   -6.9350 no        1 KIJ      0.312200
     20 OAF         1.6420   -3.1750   -6.7390 o         1 KIJ     -0.224000
     21 OAE         2.1590   -1.6180   -8.0480 o         1 KIJ     -0.224000
     22 H1         -0.1380   -0.4510   -0.2290 ho        1 KIJ      0.425000
     23 H2          0.9910    1.1550    2.3040 ho        1 KIJ      0.425000
     24 H3          3.3040    1.3340    2.2090 ha        1 KIJ      0.165000
     25 H5          5.0980   -0.6660   -1.1510 ha        1 KIJ      0.173000
     26 H6          2.0190   -2.7760   -4.2960 ha        1 KIJ      0.180000
     27 H7          3.7590    0.9040   -2.7820 ha        1 KIJ      0.178000
     28 H8          3.9200    1.7900   -5.1120 ha        1 KIJ      0.144000
     29 H9          3.1480    0.4170   -7.0480 ha        1 KIJ      0.159000
@<TRIPOS>BOND
     1    1    2 1   
     2    1   22 1   
     3    2    3 ar  
     4    2   11 ar  
     5    3    4 1   
     6    3    5 ar  
     7    4   23 1   
     8    5    6 ar  
     9    5   24 1   
    10    6    7 1   
    11    6   10 ar  
    12    7    8 1   
    13    7    9 1   
    14   10   11 ar  
    15   10   25 1   
    16   11   12 1   
    17   12   13 1   
    18   13   14 ar  
    19   13   15 ar  
    20   14   18 ar  
    21   14   26 1   
    22   15   16 ar  
    23   15   27 1   
    24   16   17 ar  
    25   16   28 1   
    26   17   18 ar  
    27   17   29 1   
    28   18   19 1   
    29   19   20 1   
    30   19   21 1   
@<TRIPOS>SUBSTRUCTURE
     1 KIJ         1 TEMP              0 ****  ****    0 ROOT
