@<TRIPOS>MOLECULE
KIJ
   29    30     1     0     0
SMALL
bcc


@<TRIPOS>ATOM
      1 OAD         0.5450   -0.7300   -0.8660 oh        1 KIJ     -0.496100
      2 CAT         1.7740   -0.3680   -0.3630 ca        1 KIJ      0.086100
      3 CAP         1.9310    0.3660    0.8300 ca        1 KIJ      0.013100
      4 OAC         0.7610    0.6960    1.4980 oh        1 KIJ     -0.537100
      5 CAJ         3.1990    0.7350    1.2840 ca        1 KIJ     -0.135000
      6 CAQ         4.3350    0.3750    0.5560 ca        1 KIJ     -0.120600
      7 CAN         5.7150    0.8120    1.0420 c         1 KIJ      0.913200
      8 OAB         5.7780    1.3970    2.1580 o         1 KIJ     -0.819800
      9 OAA         6.7000    0.5700    0.2920 o         1 KIJ     -0.819800
     10 CAL         4.2030   -0.3680   -0.6190 ca        1 KIJ     -0.109000
     11 CAS         2.9330   -0.7370   -1.0730 ca        1 KIJ      0.027100
     12 OAM         2.7910   -1.5820   -2.1800 os        1 KIJ     -0.227200
     13 CAO         2.8730   -0.9730   -3.4200 ca        1 KIJ      0.138100
     14 CAK         2.4270   -1.7650   -4.4920 ca        1 KIJ     -0.104000
     15 CAH         3.3910    0.3120   -3.6370 ca        1 KIJ     -0.139000
     16 CAG         3.4650    0.8080   -4.9360 ca        1 KIJ     -0.111000
     17 CAI         3.0340    0.0490   -6.0210 ca        1 KIJ     -0.118000
     18 CAR         2.5180   -1.2370   -5.7870 ca        1 KIJ     -0.153200
     19 NAU         2.0550   -2.0540   -6.9380 no        1 KIJ      0.312200
     20 OAF         1.6260   -3.1610   -6.7440 o         1 KIJ     -0.224000
     21 OAE         2.1180   -1.5910   -8.0480 o         1 KIJ     -0.224000
     22 H1         -0.1180   -0.4870   -0.2020 ho        1 KIJ      0.425000
     23 H2          1.0220    1.1130    2.3310 ho        1 KIJ      0.425000
     24 H3          3.3320    1.3110    2.2150 ha        1 KIJ      0.165000
     25 H5          5.1110   -0.6550   -1.1730 ha        1 KIJ      0.173000
     26 H6          2.0210   -2.7720   -4.3030 ha        1 KIJ      0.180000
     27 H7          3.7430    0.9140   -2.7820 ha        1 KIJ      0.178000
     28 H8          3.8750    1.8150   -5.1090 ha        1 KIJ      0.144000
     29 H9          3.0980    0.4460   -7.0460 ha        1 KIJ      0.159000
@<TRIPOS>BOND
     1    1    2 1   
     2    1   22 1   
     3    2    3 ar  
     4    2   11 ar  
     5    3    4 1   
     6    3    5 ar  
     7    4   23 1   
     8    5    6 ar  
     9    5   24 1   
    10    6    7 1   
    11    6   10 ar  
    12    7    8 1   
    13    7    9 1   
    14   10   11 ar  
    15   10   25 1   
    16   11   12 1   
    17   12   13 1   
    18   13   14 ar  
    19   13   15 ar  
    20   14   18 ar  
    21   14   26 1   
    22   15   16 ar  
    23   15   27 1   
    24   16   17 ar  
    25   16   28 1   
    26   17   18 ar  
    27   17   29 1   
    28   18   19 1   
    29   19   20 1   
    30   19   21 1   
@<TRIPOS>SUBSTRUCTURE
     1 KIJ         1 TEMP              0 ****  ****    0 ROOT
