@<TRIPOS>MOLECULE
KIJ
   29    30     1     0     0
SMALL
bcc


@<TRIPOS>ATOM
      1 OAD         0.5190   -0.6780   -0.8960 oh        1 KIJ     -0.496100
      2 CAT         1.7520   -0.3560   -0.3760 ca        1 KIJ      0.086100
      3 CAP         1.9160    0.3600    0.8260 ca        1 KIJ      0.013100
      4 OAC         0.7490    0.7140    1.4870 oh        1 KIJ     -0.537100
      5 CAJ         3.1890    0.6900    1.2970 ca        1 KIJ     -0.135000
      6 CAQ         4.3220    0.3080    0.5760 ca        1 KIJ     -0.120600
      7 CAN         5.7080    0.7020    1.0800 c         1 KIJ      0.913200
      8 OAB         5.7760    1.2720    2.2040 o         1 KIJ     -0.819800
      9 OAA         6.6940    0.4430    0.3380 o         1 KIJ     -0.819800
     10 CAL         4.1820   -0.4180   -0.6080 ca        1 KIJ     -0.109000
     11 CAS         2.9070   -0.7480   -1.0790 ca        1 KIJ      0.027100
     12 OAM         2.7540   -1.5770   -2.1970 os        1 KIJ     -0.227200
     13 CAO         2.8660   -0.9560   -3.4290 ca        1 KIJ      0.138100
     14 CAK         2.4090   -1.7240   -4.5150 ca        1 KIJ     -0.104000
     15 CAH         3.4220    0.3150   -3.6270 ca        1 KIJ     -0.139000
     16 CAG         3.5240    0.8240   -4.9190 ca        1 KIJ     -0.111000
     17 CAI         3.0830    0.0880   -6.0160 ca        1 KIJ     -0.118000
     18 CAR         2.5280   -1.1850   -5.8020 ca        1 KIJ     -0.153200
     19 NAU         2.0540   -1.9750   -6.9670 no        1 KIJ      0.312200
     20 OAF         1.5910   -3.0710   -6.7900 o         1 KIJ     -0.224000
     21 OAE         2.1410   -1.5020   -8.0710 o         1 KIJ     -0.224000
     22 H1         -0.1440   -0.4260   -0.2350 ho        1 KIJ      0.425000
     23 H2          1.0120    1.1150    2.3260 ho        1 KIJ      0.425000
     24 H3          3.3280    1.2520    2.2350 ha        1 KIJ      0.165000
     25 H5          5.0880   -0.7230   -1.1570 ha        1 KIJ      0.173000
     26 H6          1.9720   -2.7200   -4.3400 ha        1 KIJ      0.180000
     27 H7          3.7820    0.8980   -2.7620 ha        1 KIJ      0.178000
     28 H8          3.9640    1.8210   -5.0770 ha        1 KIJ      0.144000
     29 H9          3.1680    0.4950   -7.0360 ha        1 KIJ      0.159000
@<TRIPOS>BOND
     1    1    2 1   
     2    1   22 1   
     3    2    3 ar  
     4    2   11 ar  
     5    3    4 1   
     6    3    5 ar  
     7    4   23 1   
     8    5    6 ar  
     9    5   24 1   
    10    6    7 1   
    11    6   10 ar  
    12    7    8 1   
    13    7    9 1   
    14   10   11 ar  
    15   10   25 1   
    16   11   12 1   
    17   12   13 1   
    18   13   14 ar  
    19   13   15 ar  
    20   14   18 ar  
    21   14   26 1   
    22   15   16 ar  
    23   15   27 1   
    24   16   17 ar  
    25   16   28 1   
    26   17   18 ar  
    27   17   29 1   
    28   18   19 1   
    29   19   20 1   
    30   19   21 1   
@<TRIPOS>SUBSTRUCTURE
     1 KIJ         1 TEMP              0 ****  ****    0 ROOT
