@<TRIPOS>MOLECULE
KIM
   55    54     1     0     0
SMALL
bcc


@<TRIPOS>ATOM
      1 N1          0.7540    0.1700   -0.0950 nh        1 KIM     -0.205000
      2 N3         -1.4650    0.5060   -0.8030 n2        1 KIM     -0.279000
      3 C4          2.1700    0.2360   -0.1100 ca        1 KIM      0.054000
      4 C5         -0.0590    0.6150   -1.1030 c2        1 KIM      0.249000
      5 C6         -0.3890    1.5240   -3.2220 c1        1 KIM     -0.096000
      6 C7         -1.8680    1.5260   -3.0390 c3        1 KIM     -0.255000
      7 C8         -2.3110    0.9300   -1.7190 c2        1 KIM      0.107000
      8 C10        -4.5750    0.3530   -2.4420 c2        1 KIM     -0.017000
      9 C13        -6.5760   -1.3650   -4.1640 c2        1 KIM     -0.071000
     10 C17        -4.2340   -0.6310   -3.2990 c2        1 KIM     -0.138000
     11 C21         4.9740    0.3630   -0.0900 ca        1 KIM     -0.045000
     12 C2          4.2520    0.7170    1.0530 ca        1 KIM     -0.091000
     13 C3          2.8590    0.6540    1.0610 ca        1 KIM     -0.122000
     14 N2          0.4470    1.1050   -2.3070 n2        1 KIM     -0.269000
     15 N4         -3.7310    0.8850   -1.4260 n3        1 KIM     -0.114000
     16 C9         -4.2850    1.2710   -0.2910 c1        1 KIM     -0.089000
     17 C11        -8.7640   -1.1630   -3.0480 c1        1 KIM      0.207000
     18 C12        -7.4440   -1.1060   -3.0620 c2        1 KIM     -0.410000
     19 C14        -6.9500   -1.9420   -5.4470 c2        1 KIM     -0.114000
     20 N5         -5.8390   -2.0690   -6.2320 n2        1 KIM     -0.056000
     21 N6         -4.8080   -1.6230   -5.5270 na        1 KIM     -0.151000
     22 C16        -5.1780   -1.1600   -4.2510 c2        1 KIM     -0.047000
     23 C18         2.9010   -0.1340   -1.2530 ca        1 KIM     -0.110000
     24 C19         4.2930   -0.0490   -1.2380 ca        1 KIM     -0.085000
     25 O2          5.0530   -0.4300   -2.3780 os        1 KIM     -0.045000
     26 O3          6.3830    0.5170   -0.0200 os        1 KIM     -0.021000
     27 HN1         0.3380   -0.1430    0.7610 hn        1 KIM      0.259000
     28 H6         -2.2210    2.5950   -3.1050 hc        1 KIM      0.164500
     29 H7         -2.3320    0.9750   -3.9020 hc        1 KIM      0.164500
     30 H15        -8.4910   -2.1890   -6.9300 hc        1 KIM      0.097333
     31 H15A       -8.4820   -3.4200   -5.5960 hc        1 KIM      0.097333
     32 H15B       -9.0660   -1.7290   -5.2700 hc        1 KIM      0.097333
     33 H17        -3.2250   -1.0810   -3.3100 ha        1 KIM      0.141000
     34 H20         3.7910    0.3920   -3.8270 ha        1 KIM      0.068000
     35 H20A        3.1540   -1.9940   -3.8110 ha        1 KIM      0.004500
     36 H20B        3.6610   -2.2240   -4.1990 ha        1 KIM      0.004500
     37 H22         7.9860   -1.5880    1.2080 ha        1 KIM      0.004500
     38 H22A        7.4630   -1.9920    1.0510 ha        1 KIM      0.004500
     39 H22B        6.9460   -1.0870   -1.2400 ha        1 KIM      0.067000
     40 H1          3.4010    0.5760    3.6500 ho        1 KIM      0.204000
     41 H1A         1.5140    1.9880    2.0970 h1        1 KIM      0.098000
     42 H1B         1.3980    0.2210    2.5950 h1        1 KIM      0.098000
     43 H3          4.7980    1.0770    1.9410 ha        1 KIM      0.173000
     44 H9         -3.6090    1.6430    0.5040 ha        1 KIM      0.070000
     45 H9A        -4.3200   -0.6060    1.3280 ha        1 KIM      0.004500
     46 H9B        -4.9610   -0.5660    1.1110 ha        1 KIM      0.004500
     47 H11        -5.5880    0.8060   -2.4240 h4        1 KIM      0.187000
     48 H12        -6.9460   -0.8440   -2.0990 ha        1 KIM      0.198000
     49 HN6        -3.8970   -1.5970   -5.9230 hn        1 KIM      0.277000
     50 H18         2.4000   -0.4810   -2.1730 ha        1 KIM      0.176000
     51 O1          2.9310    1.3770    3.3860 oh        1 KIM     -0.307000
     52 C15        -8.3150   -2.3390   -5.8360 c3        1 KIM     -0.150000
     53 C20         4.7140   -0.1700   -3.5810 c1        1 KIM     -0.001000
     54 C22         7.2350   -0.2320   -0.5990 c1        1 KIM     -0.005000
     55 C1          2.1020    1.0470    2.2920 c3        1 KIM      0.013000
@<TRIPOS>BOND
     1    1    3 1   
     2    1    4 1   
     3    1   27 1   
     4    2    4 1   
     5    2    7 1   
     6    3   13 1   
     7    3   23 1   
     8    4   14 1   
     9    5    6 1   
    10    5   14 1   
    11    6    7 1   
    12    6   28 1   
    13    6   29 1   
    14    7   15 1   
    15    8   10 1   
    16    8   15 1   
    17    8   47 1   
    18    9   18 1   
    19    9   19 1   
    20    9   22 1   
    21   10   22 1   
    22   10   33 1   
    23   11   12 1   
    24   11   24 1   
    25   11   26 1   
    26   12   13 1   
    27   12   43 1   
    28   13   55 1   
    29   15   16 1   
    30   16   44 1   
    31   17   18 1   
    32   18   48 1   
    33   19   20 1   
    34   19   52 1   
    35   20   21 1   
    36   21   22 1   
    37   21   49 1   
    38   23   24 1   
    39   23   50 1   
    40   24   25 1   
    41   25   53 1   
    42   26   54 1   
    43   30   52 1   
    44   31   52 1   
    45   32   52 1   
    46   34   53 1   
    47   35   36 1   
    48   37   38 1   
    49   39   54 1   
    50   40   51 1   
    51   41   55 1   
    52   42   55 1   
    53   45   46 1   
    54   51   55 1   
@<TRIPOS>SUBSTRUCTURE
     1 KIM         1 TEMP              0 ****  ****    0 ROOT
