@<TRIPOS>MOLECULE
KIM
   55    52     1     0     0
SMALL
bcc


@<TRIPOS>ATOM
      1 N1          0.5530   -0.5640   -2.3230 nh        1 KIM     -0.217000
      2 N3         -1.3580    0.0100   -3.6110 n2        1 KIM     -0.210000
      3 C4          1.4870   -0.2760   -1.2960 ca        1 KIM      0.058000
      4 C5         -0.2520    0.4460   -2.8870 c2        1 KIM      0.145000
      5 C6         -0.6980    2.5190   -3.4020 c1        1 KIM      0.011000
      6 C7         -1.7240    2.2350   -4.0980 c1        1 KIM     -0.267000
      7 C8         -2.1740    0.9230   -4.2430 c2        1 KIM      0.248000
      8 C10        -4.0160   -0.6670   -4.6010 c3        1 KIM     -0.004000
      9 C13        -6.4390   -1.8230   -3.5730 c2        1 KIM      0.156000
     10 C17        -5.1640   -1.0190   -5.5010 c2        1 KIM     -0.050000
     11 C21         3.4030    0.1240    0.7090 ca        1 KIM     -0.060000
     12 C2          2.3190   -0.7260    0.9510 ca        1 KIM     -0.088000
     13 C3          1.3660   -0.9180   -0.0410 ca        1 KIM     -0.152000
     14 N2          0.1740    1.8200   -2.7150 n2        1 KIM     -0.105000
     15 N4         -3.3280    0.5680   -5.0160 n3        1 KIM     -0.073000
     16 C9         -3.8200    1.3060   -5.9780 c1        1 KIM     -0.132000
     17 C11        -4.3220   -0.6760   -3.1480 c1        1 KIM     -0.117000
     18 C12        -5.4490   -1.3690   -2.7110 c2        1 KIM     -0.276000
     19 C14        -7.6220   -2.4620   -3.0560 c2        1 KIM     -0.253000
     20 N5         -8.6380   -2.8060   -3.8550 n2        1 KIM      0.165000
     21 N6         -9.5040   -3.1110   -4.5100 n1        1 KIM      0.036000
     22 C16        -6.2700   -1.6050   -4.9990 c2        1 KIM     -0.220000
     23 C18         2.5880    0.5680   -1.5380 ca        1 KIM     -0.123000
     24 C19         3.5270    0.7660   -0.5250 ca        1 KIM     -0.079000
     25 O2          4.6760    1.5790   -0.7310 os        1 KIM     -0.047000
     26 O3          4.2990    0.3370    1.7880 os        1 KIM     -0.033000
     27 HN1         0.0870   -1.4450   -2.2080 hn        1 KIM      0.241000
     28 H6          2.5890    2.8310   -4.2080 ha        1 KIM      0.002375
     29 H7          3.2380    2.6370   -4.2230 ha        1 KIM      0.002375
     30 H15        -7.7620   -1.7680   -1.0340 hc        1 KIM      0.094000
     31 H15A       -8.6600   -3.3150   -1.3280 hc        1 KIM      0.094000
     32 H15B       -6.8500   -3.3280   -1.2600 hc        1 KIM      0.094000
     33 H17        -5.0520   -0.8110   -6.5790 ha        1 KIM      0.169000
     34 H20         3.7850    2.9830   -1.9910 ha        1 KIM      0.054000
     35 H20A        5.5800    1.6630   -3.4630 ha        1 KIM      0.002375
     36 H20B        4.9460    1.4310   -3.5410 ha        1 KIM      0.002375
     37 H22         5.7390   -1.8930    2.5210 ha        1 KIM      0.002375
     38 H22A        6.1380   -1.9760    1.9780 ha        1 KIM      0.002375
     39 H22B        6.0800    0.2760    0.7030 ha        1 KIM      0.061000
     40 H1          0.5120   -1.5830    0.1650 ha        1 KIM      0.148000
     41 H1A         4.4840   -1.6880    5.4400 h4        1 KIM      0.085500
     42 H1B         4.5430   -0.5220    3.9570 h4        1 KIM      0.085500
     43 H3          2.2340   -1.2300    1.9310 ha        1 KIM      0.185000
     44 H9         -3.2970    2.2560   -6.2130 ha        1 KIM      0.079000
     45 H9A        -4.8370    2.2240    1.0360 ha        1 KIM      0.002375
     46 H9B        -5.2290    2.2200    1.5870 ha        1 KIM      0.002375
     47 H11        -3.2670   -1.5320   -4.7130 h1        1 KIM      0.166000
     48 H12        -5.5680   -1.4840   -1.6210 ha        1 KIM      0.150000
     49 HN6        -7.0720   -1.9070   -5.6890 ha        1 KIM      0.131000
     50 H18         2.7200    1.0730   -2.5100 ha        1 KIM      0.166000
     51 O1          3.1650   -2.0400    3.9170 o         1 KIM     -0.308000
     52 C15        -7.7410   -2.7380   -1.5920 c3        1 KIM     -0.140000
     53 C20         4.6920    2.6260   -1.4610 c1        1 KIM     -0.005000
     54 C22         5.5710    0.3780    1.6810 c1        1 KIM     -0.022000
     55 C1          4.0770   -1.4060    4.4450 c2        1 KIM      0.137000
@<TRIPOS>BOND
     1    1    3 1   
     2    1    4 1   
     3    1   27 1   
     4    2    4 1   
     5    2    7 1   
     6    3   13 1   
     7    3   23 1   
     8    4   14 1   
     9    5    6 1   
    10    5   14 1   
    11    6    7 1   
    12    7   15 1   
    13    8   10 1   
    14    8   15 1   
    15    8   17 1   
    16    8   47 1   
    17    9   18 1   
    18    9   19 1   
    19    9   22 1   
    20   10   22 1   
    21   10   33 1   
    22   11   12 1   
    23   11   24 1   
    24   11   26 1   
    25   12   13 1   
    26   12   43 1   
    27   13   40 1   
    28   15   16 1   
    29   16   44 1   
    30   17   18 1   
    31   18   48 1   
    32   19   20 1   
    33   19   52 1   
    34   20   21 1   
    35   22   49 1   
    36   23   24 1   
    37   23   50 1   
    38   24   25 1   
    39   25   53 1   
    40   26   54 1   
    41   28   29 1   
    42   30   52 1   
    43   31   52 1   
    44   32   52 1   
    45   34   53 1   
    46   35   36 1   
    47   37   38 1   
    48   39   54 1   
    49   41   55 1   
    50   42   55 1   
    51   45   46 1   
    52   51   55 1   
@<TRIPOS>SUBSTRUCTURE
     1 KIM         1 TEMP              0 ****  ****    0 ROOT
