@<TRIPOS>MOLECULE
KIM
   55    52     1     0     0
SMALL
bcc


@<TRIPOS>ATOM
      1 N1          0.4310   -0.3960   -1.9820 n7        1 KIM     -0.184000
      2 N3         -1.6120    0.6430   -2.6260 n2        1 KIM     -0.233000
      3 C4          1.6710   -0.3190   -1.2940 c2        1 KIM     -0.067000
      4 C5         -0.2480    0.7730   -2.3730 c2        1 KIM      0.146000
      5 C6         -0.3090    2.8610   -3.0190 c1        1 KIM      0.022000
      6 C7         -1.5490    2.8470   -3.3050 c1        1 KIM     -0.275000
      7 C8         -2.3310    1.7080   -3.1210 c2        1 KIM      0.216000
      8 C10        -4.4380    0.4420   -3.3130 c2        1 KIM     -0.024000
      9 C13        -6.0420   -1.9510   -2.8500 c2        1 KIM     -0.074000
     10 C17        -4.0020   -0.7210   -3.8210 c2        1 KIM     -0.138000
     11 C21         4.1450   -0.3410    0.0890 c2        1 KIM     -0.023000
     12 C2          2.9720   -0.9890    0.7240 c3        1 KIM     -0.182000
     13 C3          1.7290   -0.9550   -0.0140 c1        1 KIM     -0.124000
     14 N2          0.5400    1.9790   -2.5490 n2        1 KIM     -0.122000
     15 N4         -3.7420    1.6880   -3.3800 n3        1 KIM     -0.079000
     16 C9         -4.4250    2.7810   -3.6640 c1        1 KIM     -0.071000
     17 C11        -7.0870   -1.6170   -0.6410 c1        1 KIM      0.242000
     18 C12        -6.0560   -1.5990   -1.4690 c2        1 KIM     -0.431000
     19 C14        -7.0690   -2.3660   -3.6660 c2        1 KIM     -0.131000
     20 N5         -6.5260   -2.6540   -4.9970 n2        1 KIM     -0.001000
     21 N6         -5.3180   -2.4530   -5.0490 n2        1 KIM     -0.034000
     22 C16        -4.7740   -1.9860   -3.7110 c3        1 KIM     -0.080000
     23 C18         2.7960    0.2490   -1.8610 c2        1 KIM      0.002000
     24 C19         4.0300    0.2520   -1.1330 c2        1 KIM     -0.172000
     25 O2          5.1820    0.8460   -1.7280 os        1 KIM     -0.044000
     26 O3          5.3020   -0.3590    0.8940 os        1 KIM     -0.036000
     27 HN1        -0.1660   -1.1110   -1.5990 hn        1 KIM      0.253000
     28 H6          2.1870    0.1040   -5.6200 ha        1 KIM      0.002625
     29 H7          2.6260    0.2400   -5.1220 ha        1 KIM      0.002625
     30 H15        -9.1210   -1.8960   -4.0290 hc        1 KIM      0.100667
     31 H15A       -8.8030   -3.6040   -3.5070 hc        1 KIM      0.100667
     32 H15B       -8.6980   -2.2510   -2.2940 hc        1 KIM      0.100667
     33 H17        -3.0410   -0.8280   -4.3530 ha        1 KIM      0.158000
     34 H20         4.2220    2.4890   -2.5900 ha        1 KIM      0.058000
     35 H20A        5.2310    1.0780   -4.6240 ha        1 KIM      0.002625
     36 H20B        4.5660    0.9750   -4.5260 ha        1 KIM      0.002625
     37 H22         6.9180   -2.6390    0.0870 ha        1 KIM      0.002625
     38 H22A        7.1860   -2.5690    0.7060 ha        1 KIM      0.002625
     39 H22B        6.7930   -0.2270   -0.5760 ha        1 KIM      0.074000
     40 H1          3.2130   -2.0730    0.9530 hc        1 KIM      0.197000
     41 H1A         0.9320    0.0080    4.2780 ho        1 KIM      0.245000
     42 H1B         0.1020   -0.8600    1.7430 ha        1 KIM      0.066000
     43 H3          2.7780   -0.5140    1.7400 hc        1 KIM      0.197000
     44 H9         -3.8530    3.7320   -3.7310 ha        1 KIM      0.080000
     45 H9A        -5.2540    1.7180    3.1630 ha        1 KIM      0.002625
     46 H9B        -5.0130    1.5240    3.7640 ha        1 KIM      0.002625
     47 H11        -5.4300    0.5520   -2.8280 h4        1 KIM      0.178000
     48 H12        -5.0770   -1.2760   -1.0430 ha        1 KIM      0.204000
     49 HN6        -4.0880   -2.8000   -3.3340 h1        1 KIM      0.157000
     50 H18         2.7980    0.7070   -2.8680 ha        1 KIM      0.170000
     51 O1          1.0780   -0.2440    3.3470 oh        1 KIM     -0.240000
     52 C15        -8.4940   -2.5380   -3.3580 c3        1 KIM     -0.157000
     53 C20         5.1590    1.9250   -2.4070 c1        1 KIM      0.000000
     54 C22         6.5130   -0.3040    0.4920 c1        1 KIM      0.008000
     55 C1         -0.0780   -0.5710    2.8130 c1        1 KIM     -0.072000
@<TRIPOS>BOND
     1    1    3 1   
     2    1    4 1   
     3    1   27 1   
     4    2    4 1   
     5    2    7 1   
     6    3   13 1   
     7    3   23 1   
     8    4   14 1   
     9    5    6 1   
    10    5   14 1   
    11    6    7 1   
    12    7   15 1   
    13    8   10 1   
    14    8   15 1   
    15    8   47 1   
    16    9   18 1   
    17    9   19 1   
    18    9   22 1   
    19   10   22 1   
    20   10   33 1   
    21   11   12 1   
    22   11   24 1   
    23   11   26 1   
    24   12   13 1   
    25   12   40 1   
    26   12   43 1   
    27   15   16 1   
    28   16   44 1   
    29   17   18 1   
    30   18   48 1   
    31   19   20 1   
    32   19   52 1   
    33   20   21 1   
    34   21   22 1   
    35   22   49 1   
    36   23   24 1   
    37   23   50 1   
    38   24   25 1   
    39   25   53 1   
    40   26   54 1   
    41   28   29 1   
    42   30   52 1   
    43   31   52 1   
    44   32   52 1   
    45   34   53 1   
    46   35   36 1   
    47   37   38 1   
    48   39   54 1   
    49   41   51 1   
    50   42   55 1   
    51   45   46 1   
    52   51   55 1   
@<TRIPOS>SUBSTRUCTURE
     1 KIM         1 TEMP              0 ****  ****    0 ROOT
