@<TRIPOS>MOLECULE
KIM
   55    58     1     0     0
SMALL
bcc


@<TRIPOS>ATOM
      1 N1         -1.8060    0.2830   -1.1900 nh        1 KIM     -0.706300
      2 N3          0.4760    0.8550   -0.9430 nb        1 KIM     -0.804000
      3 C4         -3.0980    0.1230   -0.6330 ca        1 KIM      0.188600
      4 C5         -0.6390    0.2450   -0.3890 ca        1 KIM      0.890900
      5 C6          0.5120   -0.4940    1.4730 ca        1 KIM      0.471200
      6 C7          1.7040    0.0660    1.0060 ca        1 KIM     -0.439600
      7 C8          1.6460    0.7650   -0.2410 ca        1 KIM      0.704200
      8 C10         4.0680    0.8920   -0.4370 ca        1 KIM      0.158600
      9 C13         6.6540   -0.0450    0.1230 ca        1 KIM     -0.219900
     10 C17         4.2800   -0.4950   -0.4440 ca        1 KIM     -0.170000
     11 C21        -5.7350   -0.2080    0.3240 ca        1 KIM      0.032100
     12 C2         -5.3650    0.9620   -0.3730 ca        1 KIM      0.147600
     13 C3         -4.0590    1.1400   -0.8320 ca        1 KIM     -0.234000
     14 N2         -0.6610   -0.4290    0.8210 nb        1 KIM     -0.752000
     15 N4          2.7860    1.4510   -0.7130 nh        1 KIM     -0.648700
     16 C9          2.6850    2.2450   -1.9160 c3        1 KIM      0.201100
     17 C11         5.1400    1.7870   -0.1540 ca        1 KIM     -0.165000
     18 C12         6.4160    1.3250    0.1240 ca        1 KIM     -0.051000
     19 C14         7.8040   -0.9210    0.3570 cc        1 KIM      0.360900
     20 N5          7.4220   -2.2130    0.2190 nd        1 KIM     -0.516100
     21 N6          6.1010   -2.2510   -0.0210 na        1 KIM     -0.012100
     22 C16         5.5700   -0.9540   -0.1600 ca        1 KIM     -0.043200
     23 C18        -3.4630   -1.0660    0.0220 ca        1 KIM     -0.234000
     24 C19        -4.7690   -1.2200    0.4990 ca        1 KIM      0.147600
     25 O2         -5.2210   -2.3620    1.1310 os        1 KIM     -0.313400
     26 O3         -6.9870   -0.2880    0.9030 os        1 KIM     -0.308900
     27 HN1        -1.7690    0.9580   -1.9300 hn        1 KIM      0.435800
     28 H6          0.4830   -1.0330    2.4390 h4        1 KIM      0.028100
     29 H7          2.6350   -0.0110    1.5780 ha        1 KIM      0.166000
     30 H15         9.3150   -0.5390    1.8150 hc        1 KIM      0.054033
     31 H15A        9.9440   -1.0720    0.1990 hc        1 KIM      0.054033
     32 H15B        9.2820    0.6090    0.4050 hc        1 KIM      0.054033
     33 H17         3.4630   -1.2000   -0.6520 ha        1 KIM      0.151000
     34 H20        -4.7990   -4.0370    2.1460 h1        1 KIM      0.046367
     35 H20A       -3.7570   -3.7790    0.6530 h1        1 KIM      0.046367
     36 H20B       -3.4450   -2.7900    2.1690 h1        1 KIM      0.046367
     37 H22        -8.8050   -1.1430    0.8480 h1        1 KIM      0.041033
     38 H22A       -8.0560   -0.8590   -0.8080 h1        1 KIM      0.041033
     39 H22B       -7.4420   -2.2280    0.2510 h1        1 KIM      0.041033
     40 H1         -5.2120    3.6150   -0.3660 h1        1 KIM      0.046367
     41 H1A        -5.6150    3.0970   -2.0820 h1        1 KIM      0.046367
     42 H1B        -6.9380    3.7530   -0.9870 h1        1 KIM      0.046367
     43 H3         -3.7830    2.0680   -1.3520 ha        1 KIM      0.151500
     44 H9          3.6590    2.7760   -2.0850 h1        1 KIM      0.049367
     45 H9A         2.4510    1.6160   -2.8170 h1        1 KIM      0.049367
     46 H9B         1.8710    3.0060   -1.7830 h1        1 KIM      0.049367
     47 H11         4.9490    2.8720   -0.1450 ha        1 KIM      0.145000
     48 H12         7.2300    2.0310    0.3480 ha        1 KIM      0.142000
     49 HN6         5.7130   -3.0690   -0.4320 hn        1 KIM      0.316700
     50 H18        -2.7270   -1.8710    0.1640 ha        1 KIM      0.151500
     51 O1         -6.3790    1.8780   -0.5600 os        1 KIM     -0.313400
     52 C15         9.1590   -0.4600    0.7090 c3        1 KIM     -0.106400
     53 C20        -4.2230   -3.2900    1.5430 c3        1 KIM      0.111200
     54 C22        -7.8690   -1.1960    0.2400 c3        1 KIM      0.114700
     55 C1         -5.9880    3.1630   -1.0310 c3        1 KIM      0.111200
@<TRIPOS>BOND
     1    1    3 1   
     2    1    4 1   
     3    1   27 1   
     4    2    4 ar  
     5    2    7 ar  
     6    3   13 ar  
     7    3   23 ar  
     8    4   14 ar  
     9    5    6 ar  
    10    5   14 ar  
    11    5   28 1   
    12    6    7 ar  
    13    6   29 1   
    14    7   15 1   
    15    8   10 ar  
    16    8   15 1   
    17    8   17 ar  
    18    9   18 ar  
    19    9   19 1   
    20    9   22 ar  
    21   10   22 ar  
    22   10   33 1   
    23   11   12 ar  
    24   11   24 ar  
    25   11   26 1   
    26   12   13 ar  
    27   12   51 1   
    28   13   43 1   
    29   15   16 1   
    30   16   44 1   
    31   16   45 1   
    32   16   46 1   
    33   17   18 ar  
    34   17   47 1   
    35   18   48 1   
    36   19   20 2   
    37   19   52 1   
    38   20   21 1   
    39   21   22 1   
    40   21   49 1   
    41   23   24 ar  
    42   23   50 1   
    43   24   25 1   
    44   25   53 1   
    45   26   54 1   
    46   30   52 1   
    47   31   52 1   
    48   32   52 1   
    49   34   53 1   
    50   35   53 1   
    51   36   53 1   
    52   37   54 1   
    53   38   54 1   
    54   39   54 1   
    55   40   55 1   
    56   41   55 1   
    57   42   55 1   
    58   51   55 1   
@<TRIPOS>SUBSTRUCTURE
     1 KIM         1 TEMP              0 ****  ****    0 ROOT
