@<TRIPOS>MOLECULE
KIN
   41    43     1     0     0
SMALL
bcc


@<TRIPOS>ATOM
      1 C11         0.2140    0.7920    0.1380 ca        1 KIN     -0.113000
      2 C13         1.5200    0.3130    0.0500 ca        1 KIN     -0.102000
      3 C21        -3.6600    0.0460    5.6580 ca        1 KIN      0.055600
      4 C22        -3.9880    0.5180    6.9520 ca        1 KIN     -0.144000
      5 C24        -5.3060    0.5260    7.3900 ca        1 KIN     -0.116500
      6 C27        -6.0160   -0.3820    5.2450 ca        1 KIN     -0.116500
      7 C32        -8.4310   -0.8860    6.9840 ca        1 KIN      0.151100
      8 C33        -7.9640   -2.1980    6.8440 ca        1 KIN     -0.288300
      9 C35        -8.9080   -3.2370    6.9310 ca        1 KIN      0.418700
     10 F01         4.3330   -0.1640    0.1270 f         1 KIN     -0.236633
     11 C02         3.5620   -0.7210    1.1180 c3        1 KIN      0.687200
     12 F03         4.3070   -0.5460    2.2600 f         1 KIN     -0.236633
     13 F04         3.6330   -2.0720    0.8780 f         1 KIN     -0.236633
     14 C05         2.1400   -0.1760    1.1990 ca        1 KIN     -0.143300
     15 C06         1.4770   -0.1950    2.4240 ca        1 KIN     -0.137000
     16 C08         0.1550    0.2980    2.5170 ca        1 KIN      0.061600
     17 C09        -0.4690    0.7930    1.3510 ca        1 KIN     -0.108000
     18 N15        -0.4620    0.3390    3.7820 n         1 KIN     -0.464100
     19 C17        -1.8550    0.1680    3.9620 c         1 KIN      0.771100
     20 O18        -2.6460    0.1800    2.9940 o         1 KIN     -0.605100
     21 N19        -2.3010   -0.0190    5.2890 n         1 KIN     -0.460100
     22 C26        -6.3170    0.0810    6.5300 ca        1 KIN      0.066100
     23 C29        -4.6950   -0.4050    4.8110 ca        1 KIN     -0.144000
     24 O31        -7.6330    0.2460    6.9630 os        1 KIN     -0.243200
     25 N37       -10.2230   -3.0430    7.1400 nb        1 KIN     -0.683000
     26 C38       -10.6460   -1.7680    7.2710 ca        1 KIN      0.418700
     27 C40        -9.8020   -0.6500    7.2010 ca        1 KIN     -0.288300
     28 H11        -0.2870    1.1790   -0.7630 ha        1 KIN      0.148000
     29 H13         2.0590    0.3210   -0.9100 ha        1 KIN      0.154000
     30 H22        -3.2020    0.8800    7.6330 ha        1 KIN      0.156000
     31 H24        -5.5620    0.8940    8.3940 ha        1 KIN      0.154000
     32 H27        -6.8230   -0.7290    4.5820 ha        1 KIN      0.154000
     33 H33        -6.9010   -2.4130    6.6740 ha        1 KIN      0.158500
     34 H35        -8.5870   -4.2900    6.8290 h4        1 KIN      0.024600
     35 H06         2.0020   -0.5880    3.3100 ha        1 KIN      0.148000
     36 H09        -1.5050    1.1740    1.3910 ha        1 KIN      0.177000
     37 HN15        0.1380    0.0970    4.5410 hn        1 KIN      0.312500
     38 HN19       -1.6650    0.1990    6.0260 hn        1 KIN      0.310500
     39 H29        -4.4690   -0.7650    3.7930 ha        1 KIN      0.156000
     40 H38       -11.7300   -1.6380    7.4410 h4        1 KIN      0.024600
     41 H40       -10.1850    0.3710    7.3140 ha        1 KIN      0.158500
@<TRIPOS>BOND
     1    1    2 ar  
     2    1   17 ar  
     3    1   28 1   
     4    2   14 ar  
     5    2   29 1   
     6    3    4 ar  
     7    3   21 1   
     8    3   23 ar  
     9    4    5 ar  
    10    4   30 1   
    11    5   22 ar  
    12    5   31 1   
    13    6   22 ar  
    14    6   23 ar  
    15    6   32 1   
    16    7    8 ar  
    17    7   24 1   
    18    7   27 ar  
    19    8    9 ar  
    20    8   33 1   
    21    9   25 ar  
    22    9   34 1   
    23   10   11 1   
    24   11   12 1   
    25   11   13 1   
    26   11   14 1   
    27   14   15 ar  
    28   15   16 ar  
    29   15   35 1   
    30   16   17 ar  
    31   16   18 1   
    32   17   36 1   
    33   18   19 1   
    34   18   37 1   
    35   19   20 2   
    36   19   21 1   
    37   21   38 1   
    38   22   24 1   
    39   23   39 1   
    40   25   26 ar  
    41   26   27 ar  
    42   26   40 1   
    43   27   41 1   
@<TRIPOS>SUBSTRUCTURE
     1 KIN         1 TEMP              0 ****  ****    0 ROOT
