@<TRIPOS>MOLECULE
KIN
   43    45     1     0     0
SMALL
bcc


@<TRIPOS>ATOM
      1 C11         1.2800    1.6750    1.4330 ca        1 KIN     -0.089000
      2 C13         1.9720    0.8520    2.3290 ca        1 KIN      0.008000
      3 C21        -3.9390   -0.9480    3.3460 ca        1 KIN     -0.239400
      4 C22        -3.1460   -1.5590    4.3510 ca        1 KIN     -0.053500
      5 C24        -3.6900   -1.8170    5.5890 ca        1 KIN     -0.166000
      6 C27        -5.8400   -0.8910    4.8390 ca        1 KIN     -0.166000
      7 C32        -6.8340   -1.5570    7.4130 ca        1 KIN      0.059100
      8 C33        -7.8400   -2.3660    6.8750 ca        1 KIN     -0.245300
      9 C35        -9.1440   -2.1730    7.3750 ca        1 KIN      0.429200
     10 F01         1.2570   -1.7910    4.7310 f         1 KIN     -0.204967
     11 C02         2.0110   -0.7080    4.3480 c3        1 KIN      0.694200
     12 F03         3.1790   -1.2250    3.8640 f         1 KIN     -0.204967
     13 F04         2.3330   -0.0660    5.5130 f         1 KIN     -0.204967
     14 C05         1.2710    0.1950    3.3450 ca        1 KIN     -0.144300
     15 C06        -0.1070    0.3520    3.4850 ca        1 KIN     -0.070000
     16 C08        -0.7890    1.1730    2.5700 ca        1 KIN     -0.119400
     17 C09        -0.0970    1.8450    1.5400 ca        1 KIN     -0.066000
     18 N15        -2.2320    1.3930    2.7410 n4        1 KIN     -0.490200
     19 C17        -3.0220    0.6450    1.7110 c         1 KIN      0.477100
     20 O18        -3.3630    1.1840    0.6710 o         1 KIN     -0.307100
     21 N19        -3.3950   -0.7780    2.0050 n4        1 KIN     -0.464200
     22 C26        -5.0510   -1.4870    5.8490 ca        1 KIN      0.254100
     23 C29        -5.2950   -0.6310    3.5970 ca        1 KIN     -0.053500
     24 O31        -5.4780   -1.7840    7.0990 os        1 KIN     -0.187200
     25 N37        -9.4530   -1.2640    8.3190 nb        1 KIN     -0.618000
     26 C38        -8.4590   -0.5070    8.8180 ca        1 KIN      0.429200
     27 C40        -7.1140   -0.6050    8.3980 ca        1 KIN     -0.245300
     28 H11         1.8340    2.2030    0.6320 ha        1 KIN      0.206000
     29 H13         3.0700    0.7200    2.2370 ha        1 KIN      0.213000
     30 H22        -2.1040   -1.8690    4.1510 ha        1 KIN      0.164500
     31 H24        -3.0970   -2.3020    6.3870 ha        1 KIN      0.207500
     32 H27        -6.9000   -0.6520    5.0450 ha        1 KIN      0.207500
     33 H33        -7.6290   -3.1400    6.1260 ha        1 KIN      0.166500
     34 H35        -9.9860   -2.7890    7.0030 h4        1 KIN      0.058100
     35 H06        -0.6210   -0.1580    4.3200 ha        1 KIN      0.169000
     36 H09        -0.6200    2.5050    0.8240 ha        1 KIN      0.180000
     37 HN15       -2.4320    2.4050    2.6090 hn        1 KIN      0.506800
     38 HN19       -4.1100   -1.0540    1.3010 hn        1 KIN      0.507300
     39 H29        -5.9360   -0.1880    2.8140 ha        1 KIN      0.164500
     40 H38        -8.7480    0.2170    9.6050 h4        1 KIN      0.058100
     41 H40        -6.3290    0.0150    8.8500 ha        1 KIN      0.166500
     42 H152       -2.5210    1.1110    3.6950 hn        1 KIN      0.506800
     43 H192       -2.5610   -1.3800    1.8830 hn        1 KIN      0.507300
@<TRIPOS>BOND
     1    1    2 ar  
     2    1   17 ar  
     3    1   28 1   
     4    2   14 ar  
     5    2   29 1   
     6    3    4 ar  
     7    3   21 1   
     8    3   23 ar  
     9    4    5 ar  
    10    4   30 1   
    11    5   22 ar  
    12    5   31 1   
    13    6   22 ar  
    14    6   23 ar  
    15    6   32 1   
    16    7    8 ar  
    17    7   24 1   
    18    7   27 ar  
    19    8    9 ar  
    20    8   33 1   
    21    9   25 ar  
    22    9   34 1   
    23   10   11 1   
    24   11   12 1   
    25   11   13 1   
    26   11   14 1   
    27   14   15 ar  
    28   15   16 ar  
    29   15   35 1   
    30   16   17 ar  
    31   16   18 1   
    32   17   36 1   
    33   18   19 1   
    34   18   37 1   
    35   18   42 1   
    36   19   20 2   
    37   19   21 1   
    38   21   38 1   
    39   21   43 1   
    40   22   24 1   
    41   23   39 1   
    42   25   26 ar  
    43   26   27 ar  
    44   26   40 1   
    45   27   41 1   
@<TRIPOS>SUBSTRUCTURE
     1 KIN         1 TEMP              0 ****  ****    0 ROOT
