@<TRIPOS>MOLECULE
KIN
   41    43     1     0     0
SMALL
bcc


@<TRIPOS>ATOM
      1 C11         2.9520   -3.4060    1.2310 ca        1 KIN     -0.109000
      2 C13         1.9460   -3.1340    0.3070 ca        1 KIN     -0.107000
      3 C21         2.8920   -1.0570    7.6290 ca        1 KIN      0.070600
      4 C22         2.4270   -0.1620    8.6230 ca        1 KIN     -0.149500
      5 C24         3.2310    0.1740    9.7050 ca        1 KIN     -0.113000
      6 C27         4.9890   -1.2710    8.8390 ca        1 KIN     -0.113000
      7 C32         6.4680    0.4640   10.8360 ca        1 KIN      0.151100
      8 C33         6.9660    1.0010    9.6430 ca        1 KIN     -0.288800
      9 C35         8.2400    1.5970    9.6810 ca        1 KIN      0.419200
     10 F01        -0.3880   -3.0230   -1.3320 f         1 KIN     -0.236967
     11 C02        -0.3190   -2.1690   -0.2590 c3        1 KIN      0.686200
     12 F03        -1.5890   -2.1890    0.2680 f         1 KIN     -0.236967
     13 F04        -0.2160   -0.9220   -0.8290 f         1 KIN     -0.236967
     14 C05         0.7870   -2.4910    0.7400 ca        1 KIN     -0.140300
     15 C06         0.6250   -2.1160    2.0720 ca        1 KIN     -0.142000
     16 C08         1.6450   -2.3960    3.0130 ca        1 KIN      0.076600
     17 C09         2.8150   -3.0510    2.5700 ca        1 KIN     -0.118000
     18 N15         1.4200   -2.0430    4.3540 n         1 KIN     -0.480100
     19 C17         2.4370   -1.8210    5.3040 c         1 KIN      0.790100
     20 O18         3.6410   -2.0300    5.0400 o         1 KIN     -0.612100
     21 N19         2.0180   -1.3960    6.5790 n         1 KIN     -0.476100
     22 C26         4.5100   -0.3850    9.8090 ca        1 KIN      0.062100
     23 C29         4.1860   -1.6080    7.7550 ca        1 KIN     -0.149500
     24 O31         5.2230   -0.1260   10.9810 os        1 KIN     -0.244200
     25 N37         8.9990    1.6790   10.7900 nb        1 KIN     -0.684000
     26 C38         8.4930    1.1540   11.9250 ca        1 KIN      0.419200
     27 C40         7.2380    0.5330   12.0120 ca        1 KIN     -0.288800
     28 H11         3.8720   -3.9140    0.9010 ha        1 KIN      0.147000
     29 H13         2.0570   -3.4240   -0.7500 ha        1 KIN      0.154000
     30 H22         1.4210    0.2810    8.5550 ha        1 KIN      0.155500
     31 H24         2.8690    0.8640   10.4810 ha        1 KIN      0.154000
     32 H27         5.9970   -1.7000    8.9350 ha        1 KIN      0.154000
     33 H33         6.3890    0.9610    8.7110 ha        1 KIN      0.159000
     34 H35         8.6760    2.0360    8.7650 h4        1 KIN      0.025100
     35 H06        -0.3070   -1.6120    2.3750 ha        1 KIN      0.147000
     36 H09         3.6310   -3.2790    3.2760 ha        1 KIN      0.179000
     37 HN15        0.4870   -1.7720    4.5710 hn        1 KIN      0.318500
     38 HN19        1.0720   -1.1190    6.7100 hn        1 KIN      0.316500
     39 H29         4.5760   -2.3050    6.9940 ha        1 KIN      0.155500
     40 H38         9.1380    1.2360   12.8190 h4        1 KIN      0.025100
     41 H40         6.8620    0.1190   12.9550 ha        1 KIN      0.159000
@<TRIPOS>BOND
     1    1    2 ar  
     2    1   17 ar  
     3    1   28 1   
     4    2   14 ar  
     5    2   29 1   
     6    3    4 ar  
     7    3   21 1   
     8    3   23 ar  
     9    4    5 ar  
    10    4   30 1   
    11    5   22 ar  
    12    5   31 1   
    13    6   22 ar  
    14    6   23 ar  
    15    6   32 1   
    16    7    8 ar  
    17    7   24 1   
    18    7   27 ar  
    19    8    9 ar  
    20    8   33 1   
    21    9   25 ar  
    22    9   34 1   
    23   10   11 1   
    24   11   12 1   
    25   11   13 1   
    26   11   14 1   
    27   14   15 ar  
    28   15   16 ar  
    29   15   35 1   
    30   16   17 ar  
    31   16   18 1   
    32   17   36 1   
    33   18   19 1   
    34   18   37 1   
    35   19   20 2   
    36   19   21 1   
    37   21   38 1   
    38   22   24 1   
    39   23   39 1   
    40   25   26 ar  
    41   26   27 ar  
    42   26   40 1   
    43   27   41 1   
@<TRIPOS>SUBSTRUCTURE
     1 KIN         1 TEMP              0 ****  ****    0 ROOT
