@<TRIPOS>MOLECULE
KIN
   41    43     1     0     0
SMALL
bcc


@<TRIPOS>ATOM
      1 C11         0.2120    0.7900    0.1380 ca        1 KIN     -0.113000
      2 C13         1.5190    0.3120    0.0490 ca        1 KIN     -0.103000
      3 C21        -3.6590    0.0450    5.6590 ca        1 KIN      0.055600
      4 C22        -3.9870    0.5180    6.9530 ca        1 KIN     -0.143500
      5 C24        -5.3050    0.5260    7.3910 ca        1 KIN     -0.116500
      6 C27        -6.0150   -0.3840    5.2480 ca        1 KIN     -0.116500
      7 C32        -8.4310   -0.8850    6.9840 ca        1 KIN      0.151100
      8 C33        -7.9640   -2.1990    6.8450 ca        1 KIN     -0.288300
      9 C35        -8.9090   -3.2370    6.9300 ca        1 KIN      0.418700
     10 F01         4.3320   -0.1600    0.1260 f         1 KIN     -0.236633
     11 C02         3.5620   -0.7180    1.1170 c3        1 KIN      0.687200
     12 F03         4.3070   -0.5430    2.2600 f         1 KIN     -0.236633
     13 F04         3.6350   -2.0700    0.8780 f         1 KIN     -0.236633
     14 C05         2.1400   -0.1750    1.1990 ca        1 KIN     -0.143300
     15 C06         1.4770   -0.1940    2.4240 ca        1 KIN     -0.137000
     16 C08         0.1550    0.2980    2.5160 ca        1 KIN      0.061600
     17 C09        -0.4710    0.7910    1.3500 ca        1 KIN     -0.108000
     18 N15        -0.4620    0.3390    3.7820 ns        1 KIN     -0.464100
     19 C17        -1.8550    0.1670    3.9620 c         1 KIN      0.771100
     20 O18        -2.6460    0.1780    2.9950 o         1 KIN     -0.605100
     21 N19        -2.3000   -0.0200    5.2900 ns        1 KIN     -0.460100
     22 C26        -6.3160    0.0800    6.5320 ca        1 KIN      0.066100
     23 C29        -4.6950   -0.4070    4.8130 ca        1 KIN     -0.143500
     24 O31        -7.6320    0.2460    6.9660 os        1 KIN     -0.243200
     25 N37       -10.2250   -3.0410    7.1360 nb        1 KIN     -0.683000
     26 C38       -10.6470   -1.7660    7.2680 ca        1 KIN      0.418700
     27 C40        -9.8010   -0.6480    7.1990 ca        1 KIN     -0.288300
     28 H11        -0.2890    1.1760   -0.7640 ha        1 KIN      0.148000
     29 H13         2.0580    0.3210   -0.9110 ha        1 KIN      0.154000
     30 H22        -3.2010    0.8800    7.6340 ha        1 KIN      0.156000
     31 H24        -5.5610    0.8950    8.3960 ha        1 KIN      0.154000
     32 H27        -6.8230   -0.7310    4.5850 ha        1 KIN      0.154000
     33 H33        -6.9020   -2.4140    6.6760 ha        1 KIN      0.158500
     34 H35        -8.5900   -4.2900    6.8270 h4        1 KIN      0.024600
     35 H06         2.0030   -0.5860    3.3090 ha        1 KIN      0.148000
     36 H09        -1.5060    1.1710    1.3900 ha        1 KIN      0.177000
     37 HN15        0.1390    0.0980    4.5410 hn        1 KIN      0.312500
     38 HN19       -1.6640    0.1980    6.0270 hn        1 KIN      0.310500
     39 H29        -4.4690   -0.7680    3.7960 ha        1 KIN      0.156000
     40 H38       -11.7310   -1.6350    7.4360 h4        1 KIN      0.024600
     41 H40       -10.1840    0.3730    7.3120 ha        1 KIN      0.158500
@<TRIPOS>BOND
     1    1    2 ar  
     2    1   17 ar  
     3    1   28 1   
     4    2   14 ar  
     5    2   29 1   
     6    3    4 ar  
     7    3   21 1   
     8    3   23 ar  
     9    4    5 ar  
    10    4   30 1   
    11    5   22 ar  
    12    5   31 1   
    13    6   22 ar  
    14    6   23 ar  
    15    6   32 1   
    16    7    8 ar  
    17    7   24 1   
    18    7   27 ar  
    19    8    9 ar  
    20    8   33 1   
    21    9   25 ar  
    22    9   34 1   
    23   10   11 1   
    24   11   12 1   
    25   11   13 1   
    26   11   14 1   
    27   14   15 ar  
    28   15   16 ar  
    29   15   35 1   
    30   16   17 ar  
    31   16   18 1   
    32   17   36 1   
    33   18   19 1   
    34   18   37 1   
    35   19   20 2   
    36   19   21 1   
    37   21   38 1   
    38   22   24 1   
    39   23   39 1   
    40   25   26 ar  
    41   26   27 ar  
    42   26   40 1   
    43   27   41 1   
@<TRIPOS>SUBSTRUCTURE
     1 KIN         1 TEMP              0 ****  ****    0 ROOT
