@<TRIPOS>MOLECULE
KIQ
   49    51     1     0     0
SMALL
bcc


@<TRIPOS>ATOM
      1 C4          0.6130   -0.2830   -0.4580 ce        1 KIQ      0.024800
      2 C5          0.1650   -0.1320   -1.8830 c2        1 KIQ      0.642300
      3 C8         -1.0220   -2.3110   -1.8160 c3        1 KIQ      0.065000
      4 C15        -0.1730   -4.2020   -5.0500 cc        1 KIQ      0.272800
      5 C20         2.0560   -0.5510   -0.2630 c3        1 KIQ     -0.076200
      6 C21         2.5960   -0.1070    1.0840 c3        1 KIQ     -0.043200
      7 C22         1.6120   -0.1650    2.2120 cf        1 KIQ     -0.188200
      8 C24         3.4560    0.1080    3.8100 ce        1 KIQ     -0.274000
      9 C30         1.1710   -0.3970    4.7130 c3        1 KIQ      0.192000
     10 C29         1.8490   -0.6380    6.0250 c2        1 KIQ     -0.105200
     11 C27         3.1690   -0.3840    6.2230 cf        1 KIQ      0.092500
     12 F28         3.7640   -0.5200    7.4260 f         1 KIQ     -0.105500
     13 C25         3.9990    0.0290    5.0880 cf        1 KIQ      0.349500
     14 F26         5.2830    0.3040    5.3050 f         1 KIQ     -0.069500
     15 C23         2.1050   -0.1720    3.5400 ce        1 KIQ      0.150800
     16 C           0.2570   -0.1360    1.9280 cf        1 KIQ      0.101000
     17 N          -1.2770    0.3380    6.4850 n3        1 KIQ     -1.045400
     18 C3         -0.2340   -0.1100    0.5890 ce        1 KIQ     -0.199000
     19 O           0.5970    0.8350   -2.5340 o         1 KIQ     -0.556300
     20 N7         -0.7830   -1.0100   -2.4000 n         1 KIQ     -0.447800
     21 C12        -1.1430   -0.8930   -3.8090 c3        1 KIQ      0.051700
     22 C11        -0.7650   -2.1090   -4.6030 cc        1 KIQ      0.345800
     23 N13        -0.7150   -2.2840   -5.9630 nd        1 KIQ     -0.307000
     24 N14        -0.3650   -3.5220   -6.2240 nd        1 KIQ     -0.259000
     25 F19         0.2300   -6.3910   -6.0230 f         1 KIQ     -0.216300
     26 F18         1.5280   -5.7760   -4.3800 f         1 KIQ     -0.216300
     27 F          -0.5290   -6.3380   -3.9800 f         1 KIQ     -0.216300
     28 N10        -0.4230   -3.3250   -3.9860 na        1 KIQ     -0.305700
     29 C9         -0.3510   -3.4950   -2.5650 c3        1 KIQ      0.008300
     30 H81        -0.6630   -2.3390   -0.7510 h1        1 KIQ      0.076200
     31 H82        -0.8750   -4.4510   -2.2740 h1        1 KIQ      0.083200
     32 H20         2.2190   -1.6600   -0.3960 hc        1 KIQ      0.103200
     33 H211        3.4850   -0.7550    1.3190 hc        1 KIQ      0.077700
     34 H212        2.6450   -0.0370   -1.0770 hc        1 KIQ      0.103200
     35 H22         2.9660    0.9540    1.0000 hc        1 KIQ      0.077700
     36 H24         4.1320    0.4000    2.9830 ha        1 KIQ      0.198000
     37 H29         0.6130    0.6010    4.8510 h1        1 KIQ      0.162700
     38 H          -0.4980   -0.1010    2.7370 ha        1 KIQ      0.167000
     39 HN1        -1.8760    1.1090    6.2690 hn        1 KIQ      0.349133
     40 HN2         1.1930   -0.9900    6.8430 ha        1 KIQ      0.210000
     41 H31        -1.3140    0.0650    0.4360 ha        1 KIQ      0.181000
     42 H32        -1.7490   -0.5100    6.2440 hn        1 KIQ      0.349133
     43 H121       -2.2640   -0.7660   -3.8670 h1        1 KIQ      0.115700
     44 H122       -0.6520    0.0170   -4.2670 h1        1 KIQ      0.115700
     45 H91        -2.1390   -2.4740   -1.8190 h1        1 KIQ      0.076200
     46 H92         0.7330   -3.5790   -2.2630 h1        1 KIQ      0.083200
     47 F31         0.2240   -1.3790    4.4680 f         1 KIQ     -0.187300
     48 HN3        -1.1050    0.3380    7.4700 hn        1 KIQ      0.349133
     49 C16         0.2540   -5.6520   -4.8780 c3        1 KIQ      0.645600
@<TRIPOS>BOND
     1    1    2 2   
     2    1    5 1   
     3    1   18 1   
     4    2   19 1   
     5    2   20 1   
     6    3   20 1   
     7    3   29 1   
     8    3   30 1   
     9    3   45 1   
    10    4   24 2   
    11    4   28 1   
    12    4   49 1   
    13    5    6 1   
    14    5   32 1   
    15    5   34 1   
    16    6    7 1   
    17    6   33 1   
    18    6   35 1   
    19    7   15 2   
    20    7   16 1   
    21    8   13 2   
    22    8   15 1   
    23    8   36 1   
    24    9   10 1   
    25    9   15 1   
    26    9   37 1   
    27    9   47 1   
    28   10   11 2   
    29   10   40 1   
    30   11   12 1   
    31   11   13 1   
    32   13   14 1   
    33   16   18 2   
    34   16   38 1   
    35   17   39 1   
    36   17   42 1   
    37   17   48 1   
    38   18   41 1   
    39   20   21 1   
    40   21   22 1   
    41   21   43 1   
    42   21   44 1   
    43   22   23 2   
    44   22   28 1   
    45   23   24 1   
    46   25   49 1   
    47   26   49 1   
    48   27   49 1   
    49   28   29 1   
    50   29   31 1   
    51   29   46 1   
@<TRIPOS>SUBSTRUCTURE
     1 KIQ         1 TEMP              0 ****  ****    0 ROOT
