@<TRIPOS>MOLECULE
KIQ
   48    51     1     0     0
SMALL
bcc


@<TRIPOS>ATOM
      1 C4         -1.1400    0.3630   -0.0970 ce        1 KIQ     -0.177400
      2 C5         -1.3210    1.8460   -0.0590 c         1 KIQ      0.668300
      3 C8         -3.0570    1.5900    1.7040 c3        1 KIQ      0.077000
      4 C15        -6.0690    3.8490    0.9550 cc        1 KIQ      0.254800
      5 C20        -1.6470   -0.3580   -1.1060 c2        1 KIQ     -0.114200
      6 C21        -1.4530   -1.8210   -1.2320 c3        1 KIQ     -0.044200
      7 C22        -0.3430   -2.3460   -0.3270 c3        1 KIQ     -0.066400
      8 C24        -1.4080   -4.5260    0.3110 ca        1 KIQ     -0.126000
      9 C30         0.6800   -4.5850   -0.9050 ca        1 KIQ      0.140900
     10 C29         0.6610   -5.9900   -0.8970 ca        1 KIQ     -0.182000
     11 C27        -0.3990   -6.6680   -0.2820 ca        1 KIQ      0.124900
     12 F28        -0.4260   -8.0180   -0.2700 f         1 KIQ     -0.113900
     13 C25        -1.4460   -5.9280    0.3300 ca        1 KIQ      0.083900
     14 F26        -2.4730   -6.5740    0.9270 f         1 KIQ     -0.117900
     15 C23        -0.3580   -3.8390   -0.3000 ca        1 KIQ     -0.109300
     16 C          -0.4930   -1.7340    1.0910 c3        1 KIQ      0.178500
     17 N           0.3560   -2.3060    2.1130 n3        1 KIQ     -0.902800
     18 C3         -0.2860   -0.2120    0.9750 c3        1 KIQ     -0.038200
     19 O          -0.7170    2.5930   -0.8480 o         1 KIQ     -0.565100
     20 N7         -2.1360    2.3930    0.9410 n         1 KIQ     -0.471800
     21 C12        -2.4030    3.8190    0.9360 c3        1 KIQ      0.056700
     22 C11        -3.8700    4.1370    0.8630 cc        1 KIQ      0.362800
     23 N13        -4.4950    5.3400    0.6360 nd        1 KIQ     -0.331000
     24 N14        -5.7930    5.1660    0.6910 nd        1 KIQ     -0.273000
     25 F19        -8.4700    4.0910    1.2190 f         1 KIQ     -0.221633
     26 F18        -7.7710    2.4170    0.0150 f         1 KIQ     -0.221633
     27 F          -7.5440    2.3690    2.1720 f         1 KIQ     -0.221633
     28 N10        -4.8550    3.1590    1.0720 na        1 KIQ     -0.292700
     29 C9         -4.5510    1.7790    1.3200 c3        1 KIQ      0.002300
     30 H81        -2.9330    1.8670    2.7910 h1        1 KIQ      0.077200
     31 H82        -2.8200    0.4950    1.5900 h1        1 KIQ      0.077200
     32 H20        -2.2460    0.1130   -1.9040 ha        1 KIQ      0.142000
     33 H211       -2.4220   -2.3360   -0.9840 hc        1 KIQ      0.065200
     34 H212       -1.2070   -2.0730   -2.2990 hc        1 KIQ      0.065200
     35 H22         0.6450   -1.9990   -0.7470 hc        1 KIQ      0.079700
     36 H24        -2.2290   -3.9670    0.7890 ha        1 KIQ      0.161000
     37 H29         1.4760   -6.5560   -1.3740 ha        1 KIQ      0.175000
     38 H          -1.5590   -1.9140    1.4260 h1        1 KIQ      0.054700
     39 HN1         1.3210   -2.1020    1.9390 hn        1 KIQ      0.356800
     40 HN2         0.2300   -3.2990    2.1520 hn        1 KIQ      0.356800
     41 H31         0.7890    0.0180    0.7380 hc        1 KIQ      0.071200
     42 H32        -0.5190    0.2680    1.9640 hc        1 KIQ      0.071200
     43 H121       -1.8740    4.3130    0.0670 h1        1 KIQ      0.105200
     44 H122       -2.0040    4.2600    1.8980 h1        1 KIQ      0.105200
     45 H91        -4.7890    1.1840    0.3920 h1        1 KIQ      0.080200
     46 H92        -5.1960    1.3990    2.1630 h1        1 KIQ      0.080200
     47 F31         1.7180   -3.9550   -1.5050 f         1 KIQ     -0.126900
     48 C16        -7.4380    3.2070    1.0870 c3        1 KIQ      0.645600
@<TRIPOS>BOND
     1    1    2 1   
     2    1    5 2   
     3    1   18 1   
     4    2   19 2   
     5    2   20 1   
     6    3   20 1   
     7    3   29 1   
     8    3   30 1   
     9    3   31 1   
    10    4   24 2   
    11    4   28 1   
    12    4   48 1   
    13    5    6 1   
    14    5   32 1   
    15    6    7 1   
    16    6   33 1   
    17    6   34 1   
    18    7   15 1   
    19    7   16 1   
    20    7   35 1   
    21    8   13 ar  
    22    8   15 ar  
    23    8   36 1   
    24    9   10 ar  
    25    9   15 ar  
    26    9   47 1   
    27   10   11 ar  
    28   10   37 1   
    29   11   12 1   
    30   11   13 ar  
    31   13   14 1   
    32   16   17 1   
    33   16   18 1   
    34   16   38 1   
    35   17   39 1   
    36   17   40 1   
    37   18   41 1   
    38   18   42 1   
    39   20   21 1   
    40   21   22 1   
    41   21   43 1   
    42   21   44 1   
    43   22   23 2   
    44   22   28 1   
    45   23   24 1   
    46   25   48 1   
    47   26   48 1   
    48   27   48 1   
    49   28   29 1   
    50   29   45 1   
    51   29   46 1   
@<TRIPOS>SUBSTRUCTURE
     1 KIQ         1 TEMP              0 ****  ****    0 ROOT
