@<TRIPOS>MOLECULE
KIQ
   49    51     1     0     0
SMALL
bcc


@<TRIPOS>ATOM
      1 C4         -1.6410   -0.1440    0.2180 ce        1 KIQ     -0.185400
      2 C5         -0.5890   -0.0130   -0.8350 c         1 KIQ      0.663300
      3 C8         -1.5010   -1.8830   -2.2090 c3        1 KIQ      0.068000
      4 C15         1.5790   -3.9590   -3.2490 cc        1 KIQ      0.263800
      5 C20        -1.1070   -0.1580    1.6120 c3        1 KIQ     -0.039200
      6 C21        -0.0670   -1.2420    1.8360 c3        1 KIQ     -0.042200
      7 C22         0.6760   -1.0540    3.1330 ce        1 KIQ     -0.320800
      8 C24         2.2620    0.4080    2.0020 cf        1 KIQ     -0.267000
      9 C30         2.8530   -0.3870    4.3070 c3        1 KIQ      0.207000
     10 C29         4.2480    0.0620    3.9890 c2        1 KIQ     -0.193200
     11 C27         4.5620    0.7230    2.8530 ce        1 KIQ      0.143500
     12 F28         5.8000    1.1840    2.5920 f         1 KIQ     -0.107500
     13 C25         3.5140    0.9500    1.8390 ce        1 KIQ      0.292500
     14 F26         3.8280    1.6840    0.7680 f         1 KIQ     -0.079500
     15 C23         1.8860   -0.3780    3.1340 cf        1 KIQ      0.120800
     16 C          -0.0130   -1.6420    4.2360 ce        1 KIQ      0.455500
     17 N           0.1840   -1.4920    5.5330 nh        1 KIQ     -0.387100
     18 C3         -2.9480   -0.0750   -0.0500 c2        1 KIQ     -0.140000
     19 O           0.3800    0.7530   -0.6410 o         1 KIQ     -0.609100
     20 N7         -0.7170   -0.6790   -2.0550 n         1 KIQ     -0.450800
     21 C12         0.3370   -0.5200   -3.0500 c3        1 KIQ      0.049700
     22 C11         1.1130   -1.7880   -3.2590 cc        1 KIQ      0.349800
     23 N13         2.3540   -1.9870   -3.8080 nd        1 KIQ     -0.317000
     24 N14         2.6260   -3.2710   -3.8030 nd        1 KIQ     -0.264000
     25 F19         2.4620   -6.1960   -3.5950 f         1 KIQ     -0.217967
     26 F18         1.4870   -5.7920   -1.6880 f         1 KIQ     -0.217967
     27 F           0.2940   -5.9920   -3.4890 f         1 KIQ     -0.217967
     28 N10         0.5840   -3.0380   -2.8930 na        1 KIQ     -0.302700
     29 C9         -0.6800   -3.2030   -2.2380 c3        1 KIQ      0.005300
     30 H81        -2.2500   -1.9830   -1.3770 h1        1 KIQ      0.081200
     31 H82        -1.2810   -3.9900   -2.7780 h1        1 KIQ      0.079700
     32 H20        -0.6430    0.8500    1.8050 hc        1 KIQ      0.063700
     33 H211       -0.5670   -2.2500    1.8330 hc        1 KIQ      0.072200
     34 H212       -1.9500   -0.2890    2.3420 hc        1 KIQ      0.063700
     35 H22         0.6630   -1.2580    0.9810 hc        1 KIQ      0.072200
     36 H24         1.5120    0.6020    1.2040 ha        1 KIQ      0.222000
     37 H29         2.4500    0.3790    5.0550 h1        1 KIQ      0.096700
     38 H          -0.9040   -2.2690    3.9660 h4        1 KIQ      0.060800
     39 HN1         0.9610   -0.9900    5.9120 hn        1 KIQ      0.318200
     40 HN2         5.0060   -0.1620    4.7600 ha        1 KIQ      0.199000
     41 H31        -3.3430    0.0240   -1.0720 ha        1 KIQ      0.139000
     42 H32        -3.7100   -0.0920    0.7430 ha        1 KIQ      0.139000
     43 H121        1.0450    0.3070   -2.7490 h1        1 KIQ      0.113200
     44 H122       -0.1510   -0.2390   -4.0300 h1        1 KIQ      0.113200
     45 H91        -2.0610   -1.7930   -3.1860 h1        1 KIQ      0.081200
     46 H92        -0.4950   -3.5630   -1.1850 h1        1 KIQ      0.079700
     47 F31         2.9010   -1.6220    4.9440 f         1 KIQ     -0.212300
     48 HN3        -0.4120   -1.9500    6.1940 hn        1 KIQ      0.318200
     49 C16         1.4690   -5.4580   -3.0210 c3        1 KIQ      0.645600
@<TRIPOS>BOND
     1    1    2 1   
     2    1    5 1   
     3    1   18 2   
     4    2   19 2   
     5    2   20 1   
     6    3   20 1   
     7    3   29 1   
     8    3   30 1   
     9    3   45 1   
    10    4   24 2   
    11    4   28 1   
    12    4   49 1   
    13    5    6 1   
    14    5   32 1   
    15    5   34 1   
    16    6    7 1   
    17    6   33 1   
    18    6   35 1   
    19    7   15 2   
    20    7   16 1   
    21    8   13 2   
    22    8   15 1   
    23    8   36 1   
    24    9   10 1   
    25    9   15 1   
    26    9   37 1   
    27    9   47 1   
    28   10   11 2   
    29   10   40 1   
    30   11   12 1   
    31   11   13 1   
    32   13   14 1   
    33   16   17 2   
    34   16   38 1   
    35   17   39 1   
    36   17   48 1   
    37   18   41 1   
    38   18   42 1   
    39   20   21 1   
    40   21   22 1   
    41   21   43 1   
    42   21   44 1   
    43   22   23 2   
    44   22   28 1   
    45   23   24 1   
    46   25   49 1   
    47   26   49 1   
    48   27   49 1   
    49   28   29 1   
    50   29   31 1   
    51   29   46 1   
@<TRIPOS>SUBSTRUCTURE
     1 KIQ         1 TEMP              0 ****  ****    0 ROOT
