@<TRIPOS>MOLECULE
KIQ
   49    50     1     0     0
SMALL
bcc


@<TRIPOS>ATOM
      1 C4          0.5980   -0.8520   -0.1040 c2        1 KIQ     -0.052000
      2 C5         -0.5960   -0.8590   -1.0190 c2        1 KIQ      0.324000
      3 C8         -0.2600   -3.2750   -1.5090 c3        1 KIQ     -0.043000
      4 C15        -0.5060   -3.9180   -5.2880 c2        1 KIQ     -0.176000
      5 C20         1.9160   -0.8000   -0.7670 c3        1 KIQ     -0.204000
      6 C21         0.4760    1.4640    3.1630 c3        1 KIQ     -0.091000
      7 C22         1.4680    0.3350    3.1660 c2        1 KIQ     -0.156000
      8 C24         3.2050   -0.9160    4.4890 c2        1 KIQ     -0.195000
      9 C30         3.0250    1.4720    4.8000 c2        1 KIQ      0.128000
     10 C29         1.3630    0.3330    6.1030 c1        1 KIQ     -0.050000
     11 C27         1.8460   -0.8600    6.5100 c2        1 KIQ     -0.030000
     12 F28         1.4520   -1.4970    7.6300 f         1 KIQ     -0.028000
     13 C25         2.8820   -1.5210    5.6620 c2        1 KIQ      0.115000
     14 F26         3.4200   -2.6670    6.0990 f         1 KIQ     -0.039000
     15 C23         2.5240    0.3470    4.1750 c2        1 KIQ     -0.115000
     16 C           1.4270   -0.6270    2.2170 c2        1 KIQ      0.000000
     17 N          -0.2260    1.6380    4.4600 nz        1 KIQ     -0.164000
     18 C3          0.3840   -0.7490    1.2200 c2        1 KIQ     -0.183000
     19 O          -1.2200    0.2020   -1.2060 o         1 KIQ     -0.327000
     20 N7         -1.0320   -2.0570   -1.5690 n         1 KIQ     -0.317000
     21 C12        -2.0870   -2.0320   -2.5720 c3        1 KIQ      0.036000
     22 C11        -1.6720   -2.6790   -3.8600 c2        1 KIQ     -0.097000
     23 N13        -2.2860   -2.6540   -5.0870 n2        1 KIQ     -0.051000
     24 N14        -1.5950   -3.3870   -5.9280 n2        1 KIQ      0.001000
     25 F19         0.2750   -5.3130   -7.1160 f         1 KIQ     -0.145667
     26 F18         1.7780   -4.1760   -6.0180 f         1 KIQ     -0.145667
     27 F           0.8500   -5.9080   -5.0990 f         1 KIQ     -0.145667
     28 N10        -0.5240   -3.4850   -3.9550 na        1 KIQ     -0.143000
     29 C9          0.3730   -3.7100   -2.8600 c3        1 KIQ     -0.052000
     30 H81         0.5750   -3.1800   -0.7610 h1        1 KIQ      0.114500
     31 H82         0.6300   -4.8070   -2.8040 h1        1 KIQ      0.122500
     32 H20         1.9620   -1.5200   -1.6230 hc        1 KIQ      0.108333
     33 H211        2.7430   -1.0410   -0.0540 hc        1 KIQ      0.108333
     34 H212        2.0900    0.2300   -1.1770 hc        1 KIQ      0.108333
     35 H22         1.0240    2.4260    2.9260 hx        1 KIQ      0.151500
     36 H24         3.9570   -1.3100    3.7920 ha        1 KIQ      0.196000
     37 H29         3.8810    1.4180    5.5080 h4        1 KIQ      0.197000
     38 H           2.2280   -1.3920    2.1740 ha        1 KIQ      0.157000
     39 HN1        -0.4000    2.6250    4.6310 hn        1 KIQ      0.264000
     40 HN2         0.4050    1.2100    5.3080 hn        1 KIQ      0.264000
     41 H31        -0.6510   -0.7650    1.6090 ha        1 KIQ      0.151000
     42 H32        -0.2940    1.3090    2.3510 hx        1 KIQ      0.151500
     43 H121       -2.4060   -0.9670   -2.7780 h1        1 KIQ      0.149000
     44 H122       -2.9740   -2.6020   -2.1630 h1        1 KIQ      0.149000
     45 H91        -0.9540   -4.0960   -1.1630 h1        1 KIQ      0.114500
     46 H92         1.3240   -3.1320   -3.0460 h1        1 KIQ      0.122500
     47 F31         2.5620    2.7110    4.6100 f         1 KIQ     -0.075000
     48 HN3        -1.1150    1.1450    4.4470 hn        1 KIQ      0.264000
     49 C16         0.5700   -4.8130   -5.8810 c3        1 KIQ      0.526000
@<TRIPOS>BOND
     1    1    2 1   
     2    1    5 1   
     3    1   18 1   
     4    2   19 1   
     5    2   20 1   
     6    3   20 1   
     7    3   29 1   
     8    3   30 1   
     9    3   45 1   
    10    4   24 1   
    11    4   28 1   
    12    4   49 1   
    13    5   32 1   
    14    5   33 1   
    15    5   34 1   
    16    6    7 1   
    17    6   17 1   
    18    6   35 1   
    19    6   42 1   
    20    7   15 1   
    21    7   16 1   
    22    8   13 1   
    23    8   15 1   
    24    8   36 1   
    25    9   15 1   
    26    9   37 1   
    27    9   47 1   
    28   10   11 1   
    29   11   12 1   
    30   11   13 1   
    31   13   14 1   
    32   16   18 1   
    33   16   38 1   
    34   17   39 1   
    35   17   40 1   
    36   17   48 1   
    37   18   41 1   
    38   20   21 1   
    39   21   22 1   
    40   21   43 1   
    41   21   44 1   
    42   22   23 1   
    43   22   28 1   
    44   23   24 1   
    45   25   49 1   
    46   26   49 1   
    47   27   49 1   
    48   28   29 1   
    49   29   31 1   
    50   29   46 1   
@<TRIPOS>SUBSTRUCTURE
     1 KIQ         1 TEMP              0 ****  ****    0 ROOT
