@<TRIPOS>MOLECULE
KIQ
   48    45     1     0     0
SMALL
bcc


@<TRIPOS>ATOM
      1 C4         -0.3200   -0.1500    0.1000 c1        1 KIQ     -0.162000
      2 C5         -1.0790    0.9460   -0.6380 c1        1 KIQ      0.342000
      3 C8         -2.4980    1.6000   -2.5550 c3        1 KIQ     -0.049000
      4 C15        -1.6490    0.3550   -6.0620 c1        1 KIQ     -0.188000
      5 C20         1.3970   -0.1790    0.0610 c1        1 KIQ     -0.104000
      6 C21         2.0730   -0.1690    1.3780 c2        1 KIQ     -0.137000
      7 C22         1.2330   -0.9860    2.5200 c3        1 KIQ     -0.062000
      8 C24         2.5340    0.4640    4.4580 c1        1 KIQ     -0.095000
      9 F31         1.5500   -3.0860    4.1050 f         1 KIQ     -0.100000
     10 C30         2.1180   -1.9120    4.6200 c2        1 KIQ      0.100000
     11 C29         2.8620   -1.9590    5.7930 c1        1 KIQ     -0.186000
     12 C27         3.4450   -0.7910    6.3020 c1        1 KIQ      0.064500
     13 F28         4.2090   -0.8530    7.3340 f         1 KIQ     -0.086000
     14 C25         3.2790    0.4170    5.6320 c1        1 KIQ      0.064500
     15 F26         3.8190    1.5590    6.1420 f         1 KIQ     -0.086000
     16 C23         1.9500   -0.7090    3.9500 c2        1 KIQ     -0.083000
     17 C          -0.0270   -0.6650    2.6300 c3        1 KIQ     -0.019000
     18 N          -0.1050    0.7720    3.0970 n3        1 KIQ     -0.337000
     19 C3         -0.9350   -0.8160    1.2340 c3        1 KIQ     -0.161000
     20 O          -1.1470    2.0050   -0.1860 o         1 KIQ     -0.337000
     21 N7         -1.7750    0.6410   -1.9100 n3        1 KIQ     -0.325000
     22 C12        -1.7160   -0.5720   -2.4510 c3        1 KIQ      0.042000
     23 C11        -1.6410   -0.6210   -4.0450 c2        1 KIQ     -0.100000
     24 N13        -1.3820   -1.5780   -4.9430 n2        1 KIQ     -0.069000
     25 N14        -1.3810   -0.9930   -6.2110 n2        1 KIQ     -0.013000
     26 C16        -1.6230    0.7030   -7.5360 c2        1 KIQ      0.526000
     27 F19        -1.8090    1.9870   -7.6850 f         1 KIQ     -0.149333
     28 F18        -0.4030    0.3520   -8.0700 f         1 KIQ     -0.149333
     29 F          -2.5970    0.0320   -8.1720 f         1 KIQ     -0.149333
     30 N10        -1.8100    0.6050   -4.7500 n2        1 KIQ     -0.127000
     31 C9         -2.1890    1.8120   -3.9610 c2        1 KIQ     -0.060000
     32 H81        -2.3130    2.4640   -2.0870 h1        1 KIQ      0.127000
     33 H82        -3.4910    1.3130   -2.5040 h1        1 KIQ      0.127000
     34 H20         1.8390    0.1180   -0.6790 ha        1 KIQ      0.140000
     35 H211        2.2470    0.6960    1.7950 ha        1 KIQ      0.109000
     36 H212        2.9980   -0.4960    1.2270 ha        1 KIQ      0.109000
     37 H22         1.2940   -1.9750    2.3190 hc        1 KIQ      0.110000
     38 H24         2.4170    1.3060    3.9890 ha        1 KIQ      0.169000
     39 H29         2.9630   -2.8420    6.2990 ha        1 KIQ      0.171000
     40 H          -0.4150   -1.2130    3.2930 h1        1 KIQ      0.111000
     41 HN1        -0.4080    0.7940    3.9500 hn        1 KIQ      0.151000
     42 HN2        -0.6660    1.2300    2.5700 hn        1 KIQ      0.151000
     43 H31        -1.9100   -0.4420    1.2920 hc        1 KIQ      0.102500
     44 H32        -1.1190   -1.8250    1.0730 hc        1 KIQ      0.102500
     45 H121       -0.8820   -1.0100   -2.1040 h1        1 KIQ      0.131500
     46 H122       -2.5020   -1.0180   -2.2020 h1        1 KIQ      0.131500
     47 H91        -1.4410    2.4610   -4.0170 ha        1 KIQ      0.124500
     48 H92        -2.9970    2.2270   -4.3960 ha        1 KIQ      0.124500
@<TRIPOS>BOND
     1    1    5 1   
     2    1   19 1   
     3    2   20 1   
     4    2   21 1   
     5    3   21 1   
     6    3   31 1   
     7    3   32 1   
     8    3   33 1   
     9    4   25 1   
    10    4   30 1   
    11    5   34 1   
    12    6    7 1   
    13    6   35 1   
    14    6   36 1   
    15    7   16 1   
    16    7   17 1   
    17    7   37 1   
    18    8   16 1   
    19    8   38 1   
    20    9   10 1   
    21   10   11 1   
    22   10   16 1   
    23   11   39 1   
    24   12   13 1   
    25   12   14 1   
    26   14   15 1   
    27   17   18 1   
    28   17   19 1   
    29   17   40 1   
    30   18   41 1   
    31   18   42 1   
    32   19   43 1   
    33   19   44 1   
    34   21   22 1   
    35   22   23 1   
    36   22   45 1   
    37   22   46 1   
    38   23   24 1   
    39   23   30 1   
    40   24   25 1   
    41   26   27 1   
    42   26   28 1   
    43   26   29 1   
    44   31   47 1   
    45   31   48 1   
@<TRIPOS>SUBSTRUCTURE
     1 KIQ         1 TEMP              0 ****  ****    0 ROOT
