@<TRIPOS>MOLECULE
KIU
   32    33     1     0     0
SMALL
bcc


@<TRIPOS>ATOM
      1 OAA        -0.4980   -0.1680   -2.1740 o         1 KIU     -0.852300
      2 CAP         0.5640   -0.2480   -1.4810 c         1 KIU      0.906200
      3 OAC         0.5470   -0.3440   -0.2210 o         1 KIU     -0.852300
      4 CAT         1.8930   -0.2220   -2.2120 ca        1 KIU     -0.130600
      5 CAJ         1.8910    0.1230   -3.5670 ca        1 KIU     -0.154000
      6 CAM         3.1040   -0.5390   -1.5860 ca        1 KIU     -0.084000
      7 CAU         4.3110   -0.5150   -2.2960 ca        1 KIU     -0.130600
      8 CAQ         5.6340   -0.8540   -1.6340 c         1 KIU      0.906200
      9 OAD         6.7020   -0.6700   -2.2960 o         1 KIU     -0.852300
     10 OAB         5.6370   -1.3090   -0.4540 o         1 KIU     -0.852300
     11 CAK         4.3100   -0.1680   -3.6510 ca        1 KIU     -0.154000
     12 CAS         3.0950    0.1380   -4.2740 ca        1 KIU      0.008100
     13 OAO         3.1610    0.3800   -5.6550 os        1 KIU     -0.348900
     14 CAN         2.2750    1.3750   -6.1420 c3        1 KIU      0.172700
     15 CAR         1.1540    0.7650   -6.9310 ca        1 KIU     -0.095300
     16 CAL         0.6400    1.4510   -8.0340 ca        1 KIU     -0.078000
     17 CAH         0.6100   -0.4740   -6.5670 ca        1 KIU     -0.039000
     18 CAG        -0.4510   -1.0180   -7.2910 ca        1 KIU     -0.142000
     19 CAI        -0.9790   -0.3480   -8.3900 ca        1 KIU     -0.085000
     20 CAV        -0.4230    0.8890   -8.7610 ca        1 KIU     -0.192200
     21 NAW        -0.9660    1.6070   -9.9350 no        1 KIU      0.314200
     22 OAF        -0.5000    2.6720  -10.2510 o         1 KIU     -0.240000
     23 OAE        -1.8660    1.1140  -10.5690 o         1 KIU     -0.240000
     24 H2          0.9300    0.3770   -4.0400 ha        1 KIU      0.140500
     25 H3          3.1090   -0.8110   -0.5170 ha        1 KIU      0.166000
     26 H5          5.2590   -0.1500   -4.2070 ha        1 KIU      0.140500
     27 H6          1.8470    2.0020   -5.3140 h1        1 KIU      0.058200
     28 H7          2.9040    2.0220   -6.8160 h1        1 KIU      0.058200
     29 H8          1.0640    2.4240   -8.3310 ha        1 KIU      0.157000
     30 H9          1.0300   -1.0080   -5.6910 ha        1 KIU      0.199000
     31 H10        -0.8820   -1.9820   -6.9820 ha        1 KIU      0.147000
     32 H11        -1.8190   -0.7750   -8.9600 ha        1 KIU      0.150000
@<TRIPOS>BOND
     1    1    2 1   
     2    2    3 1   
     3    2    4 1   
     4    4    5 ar  
     5    4    6 ar  
     6    5   12 ar  
     7    5   24 1   
     8    6    7 ar  
     9    6   25 1   
    10    7    8 1   
    11    7   11 ar  
    12    8    9 1   
    13    8   10 1   
    14   11   12 ar  
    15   11   26 1   
    16   12   13 1   
    17   13   14 1   
    18   14   15 1   
    19   14   27 1   
    20   14   28 1   
    21   15   16 ar  
    22   15   17 ar  
    23   16   20 ar  
    24   16   29 1   
    25   17   18 ar  
    26   17   30 1   
    27   18   19 ar  
    28   18   31 1   
    29   19   20 ar  
    30   19   32 1   
    31   20   21 1   
    32   21   22 1   
    33   21   23 1   
@<TRIPOS>SUBSTRUCTURE
     1 KIU         1 TEMP              0 ****  ****    0 ROOT
