@<TRIPOS>MOLECULE
KIU
   32    33     1     0     0
SMALL
bcc


@<TRIPOS>ATOM
      1 OAA        -0.4660   -0.2860   -2.1680 o         1 KIU     -0.852300
      2 CAP         0.6030   -0.3440   -1.4830 c         1 KIU      0.906200
      3 OAC         0.5960   -0.4610   -0.2240 o         1 KIU     -0.852300
      4 CAT         1.9250   -0.2650   -2.2210 ca        1 KIU     -0.130600
      5 CAJ         1.9030    0.1030   -3.5710 ca        1 KIU     -0.154000
      6 CAM         3.1490   -0.5540   -1.6080 ca        1 KIU     -0.084000
      7 CAU         4.3500   -0.4810   -2.3240 ca        1 KIU     -0.130600
      8 CAQ         5.6880   -0.7890   -1.6770 c         1 KIU      0.906200
      9 OAD         6.7450   -0.5610   -2.3410 o         1 KIU     -0.852300
     10 OAB         5.7120   -1.2660   -0.5050 o         1 KIU     -0.852300
     11 CAK         4.3300   -0.1110   -3.6740 ca        1 KIU     -0.154000
     12 CAS         3.1020    0.1680   -4.2840 ca        1 KIU      0.008100
     13 OAO         3.1510    0.4350   -5.6610 os        1 KIU     -0.348900
     14 CAN         2.2310    1.4100   -6.1260 c3        1 KIU      0.172700
     15 CAR         1.1250    0.7780   -6.9180 ca        1 KIU     -0.095300
     16 CAL         0.5810    1.4670   -8.0050 ca        1 KIU     -0.078000
     17 CAH         0.6230   -0.4830   -6.5710 ca        1 KIU     -0.039000
     18 CAG        -0.4260   -1.0480   -7.2980 ca        1 KIU     -0.142000
     19 CAI        -0.9830   -0.3760   -8.3810 ca        1 KIU     -0.085000
     20 CAV        -0.4690    0.8840   -8.7350 ca        1 KIU     -0.192200
     21 NAW        -1.0420    1.6040   -9.8930 no        1 KIU      0.314200
     22 OAF        -0.6120    2.6890  -10.1940 o         1 KIU     -0.240000
     23 OAE        -1.9310    1.0940  -10.5290 o         1 KIU     -0.240000
     24 H2          0.9320    0.3360   -4.0330 ha        1 KIU      0.140500
     25 H3          3.1700   -0.8440   -0.5440 ha        1 KIU      0.166000
     26 H5          5.2740   -0.0530   -4.2340 ha        1 KIU      0.140500
     27 H6          2.8350    2.0880   -6.7920 h1        1 KIU      0.058200
     28 H7          1.7900    2.0100   -5.2840 h1        1 KIU      0.058200
     29 H8          0.9730    2.4570   -8.2880 ha        1 KIU      0.157000
     30 H9          1.0650   -1.0180   -5.7070 ha        1 KIU      0.199000
     31 H10        -0.8250   -2.0300   -7.0020 ha        1 KIU      0.147000
     32 H11        -1.8130   -0.8190   -8.9530 ha        1 KIU      0.150000
@<TRIPOS>BOND
     1    1    2 1   
     2    2    3 1   
     3    2    4 1   
     4    4    5 ar  
     5    4    6 ar  
     6    5   12 ar  
     7    5   24 1   
     8    6    7 ar  
     9    6   25 1   
    10    7    8 1   
    11    7   11 ar  
    12    8    9 1   
    13    8   10 1   
    14   11   12 ar  
    15   11   26 1   
    16   12   13 1   
    17   13   14 1   
    18   14   15 1   
    19   14   27 1   
    20   14   28 1   
    21   15   16 ar  
    22   15   17 ar  
    23   16   20 ar  
    24   16   29 1   
    25   17   18 ar  
    26   17   30 1   
    27   18   19 ar  
    28   18   31 1   
    29   19   20 ar  
    30   19   32 1   
    31   20   21 1   
    32   21   22 1   
    33   21   23 1   
@<TRIPOS>SUBSTRUCTURE
     1 KIU         1 TEMP              0 ****  ****    0 ROOT
