@<TRIPOS>MOLECULE
KIU
   32    33     1     0     0
SMALL
bcc


@<TRIPOS>ATOM
      1 OAA        -0.4480   -0.2550   -2.1490 o         1 KIU     -0.852300
      2 CAP         0.6260   -0.3210   -1.4720 c         1 KIU      0.906200
      3 OAC         0.6280   -0.4330   -0.2130 o         1 KIU     -0.852300
      4 CAT         1.9430   -0.2560   -2.2210 ca        1 KIU     -0.130600
      5 CAJ         1.9140    0.1070   -3.5710 ca        1 KIU     -0.154000
      6 CAM         3.1690   -0.5540   -1.6160 ca        1 KIU     -0.084000
      7 CAU         4.3650   -0.4940   -2.3420 ca        1 KIU     -0.130600
      8 CAQ         5.7050   -0.8120   -1.7030 c         1 KIU      0.906200
      9 OAD         6.7590   -0.5970   -2.3770 o         1 KIU     -0.852300
     10 OAB         5.7340   -1.2820   -0.5290 o         1 KIU     -0.852300
     11 CAK         4.3380   -0.1300   -3.6920 ca        1 KIU     -0.154000
     12 CAS         3.1080    0.1580   -4.2950 ca        1 KIU      0.008100
     13 OAO         3.1490    0.4190   -5.6730 os        1 KIU     -0.348900
     14 CAN         2.2350    1.4010   -6.1340 c3        1 KIU      0.172700
     15 CAR         1.1170    0.7760   -6.9160 ca        1 KIU     -0.095300
     16 CAL         0.5720    1.4660   -8.0020 ca        1 KIU     -0.078000
     17 CAH         0.6050   -0.4790   -6.5610 ca        1 KIU     -0.039000
     18 CAG        -0.4540   -1.0370   -7.2780 ca        1 KIU     -0.142000
     19 CAI        -1.0120   -0.3640   -8.3600 ca        1 KIU     -0.085000
     20 CAV        -0.4890    0.8900   -8.7220 ca        1 KIU     -0.192200
     21 NAW        -1.0630    1.6110   -9.8790 no        1 KIU      0.314200
     22 OAF        -0.6250    2.6910  -10.1870 o         1 KIU     -0.240000
     23 OAE        -1.9610    1.1070  -10.5070 o         1 KIU     -0.240000
     24 H2          0.9420    0.3460   -4.0270 ha        1 KIU      0.140500
     25 H3          3.1950   -0.8400   -0.5510 ha        1 KIU      0.166000
     26 H5          5.2780   -0.0830   -4.2610 ha        1 KIU      0.140500
     27 H6          1.8050    2.0070   -5.2920 h1        1 KIU      0.058200
     28 H7          2.8400    2.0700   -6.8080 h1        1 KIU      0.058200
     29 H8          0.9710    2.4520   -8.2920 ha        1 KIU      0.157000
     30 H9          1.0490   -1.0150   -5.6980 ha        1 KIU      0.199000
     31 H10        -0.8600   -2.0140   -6.9760 ha        1 KIU      0.147000
     32 H11        -1.8500   -0.8010   -8.9240 ha        1 KIU      0.150000
@<TRIPOS>BOND
     1    1    2 1   
     2    2    3 1   
     3    2    4 1   
     4    4    5 ar  
     5    4    6 ar  
     6    5   12 ar  
     7    5   24 1   
     8    6    7 ar  
     9    6   25 1   
    10    7    8 1   
    11    7   11 ar  
    12    8    9 1   
    13    8   10 1   
    14   11   12 ar  
    15   11   26 1   
    16   12   13 1   
    17   13   14 1   
    18   14   15 1   
    19   14   27 1   
    20   14   28 1   
    21   15   16 ar  
    22   15   17 ar  
    23   16   20 ar  
    24   16   29 1   
    25   17   18 ar  
    26   17   30 1   
    27   18   19 ar  
    28   18   31 1   
    29   19   20 ar  
    30   19   32 1   
    31   20   21 1   
    32   21   22 1   
    33   21   23 1   
@<TRIPOS>SUBSTRUCTURE
     1 KIU         1 TEMP              0 ****  ****    0 ROOT
