@<TRIPOS>MOLECULE
KIV
   15    14     1     0     0
SMALL
bcc


@<TRIPOS>ATOM
      1 O1         -2.3430   -0.9010    1.8770 o         1 KIV     -0.817300
      2 C1         -1.0840   -0.9010    1.8770 c         1 KIV      0.855600
      3 O2         -0.4550   -0.9010    2.9680 o         1 KIV     -0.817300
      4 C2         -0.3280   -0.9020    0.5670 c         1 KIV      0.473100
      5 C3          0.0520    0.4080   -0.0870 c3        1 KIV     -0.180700
      6 C4         -0.5850    0.4910   -1.4570 c3        1 KIV     -0.081100
      7 C5          1.5570    0.4840   -0.2260 c3        1 KIV     -0.081100
      8 O3         -0.0260   -1.9540    0.0410 o         1 KIV     -0.590100
      9 HC31       -0.2620    1.1500    0.4630 hc        1 KIV      0.065700
     10 HC41       -0.2420   -0.2290   -2.0200 hc        1 KIV      0.028867
     11 HC42       -1.5540    0.4030   -1.3710 hc        1 KIV      0.028867
     12 HC43       -0.3720    1.3520   -1.8640 hc        1 KIV      0.028867
     13 HC51        1.8050    1.3460   -0.6120 hc        1 KIV      0.028867
     14 HC52        1.9700    0.3900    0.6530 hc        1 KIV      0.028867
     15 HC53        1.8670   -0.2350   -0.8100 hc        1 KIV      0.028867
@<TRIPOS>BOND
     1    1    2 1   
     2    2    3 1   
     3    2    4 1   
     4    4    5 1   
     5    4    8 2   
     6    5    6 1   
     7    5    7 1   
     8    5    9 1   
     9    6   10 1   
    10    6   11 1   
    11    6   12 1   
    12    7   13 1   
    13    7   14 1   
    14    7   15 1   
@<TRIPOS>SUBSTRUCTURE
     1 KIV         1 TEMP              0 ****  ****    0 ROOT
