@<TRIPOS>MOLECULE
KIV
   15    14     1     0     0
SMALL
bcc


@<TRIPOS>ATOM
      1 O1          0.7400   -1.0360   -1.6610 o         1 KIV     -0.817300
      2 C1          0.3490    0.1020   -1.2840 c         1 KIV      0.855600
      3 O2          0.6260    1.1960   -1.8420 o         1 KIV     -0.817300
      4 C2         -0.4940    0.1660   -0.0010 c         1 KIV      0.473100
      5 C3          0.3290    0.2690    1.2730 c3        1 KIV     -0.180700
      6 C4         -0.4870    0.7450    2.4510 c3        1 KIV     -0.081100
      7 C5          0.9720   -1.0720    1.5580 c3        1 KIV     -0.081100
      8 O3         -1.7300    0.1460    0.0290 o         1 KIV     -0.590100
      9 HC31        1.1410    1.0220    1.0600 hc        1 KIV      0.065700
     10 HC41        0.1380    0.7740    3.3760 hc        1 KIV      0.028867
     11 HC42       -0.8860    1.7690    2.2540 hc        1 KIV      0.028867
     12 HC43       -1.3530    0.0620    2.6220 hc        1 KIV      0.028867
     13 HC51        0.2070   -1.8060    1.9090 hc        1 KIV      0.028867
     14 HC52        1.4450   -1.4690    0.6230 hc        1 KIV      0.028867
     15 HC53        1.7510   -0.9680    2.3520 hc        1 KIV      0.028867
@<TRIPOS>BOND
     1    1    2 1   
     2    2    3 1   
     3    2    4 1   
     4    4    5 1   
     5    4    8 2   
     6    5    6 1   
     7    5    7 1   
     8    5    9 1   
     9    6   10 1   
    10    6   11 1   
    11    6   12 1   
    12    7   13 1   
    13    7   14 1   
    14    7   15 1   
@<TRIPOS>SUBSTRUCTURE
     1 KIV         1 TEMP              0 ****  ****    0 ROOT
