@<TRIPOS>MOLECULE
KIV
   15    14     1     0     0
SMALL
bcc


@<TRIPOS>ATOM
      1 O1          1.1490    1.2920    0.3460 o         1 KIV     -0.817300
      2 C1          1.4630    0.0960    0.0990 c         1 KIV      0.855600
      3 O2          1.3690   -0.8700    0.9020 o         1 KIV     -0.817300
      4 C2          2.0650   -0.2020   -1.2840 c         1 KIV      0.473100
      5 C3          3.5730   -0.0220   -1.3500 c3        1 KIV     -0.180700
      6 C4          4.1830   -0.7050   -2.5510 c3        1 KIV     -0.081100
      7 C5          3.8980    1.4570   -1.3380 c3        1 KIV     -0.081100
      8 O3          1.4130   -0.5640   -2.2690 o         1 KIV     -0.590100
      9 HC31        3.9860   -0.4910   -0.4120 hc        1 KIV      0.065700
     10 HC41        5.2840   -0.5220   -2.5900 hc        1 KIV      0.028867
     11 HC42        3.7200   -0.3190   -3.4920 hc        1 KIV      0.028867
     12 HC43        4.0010   -1.8050   -2.5020 hc        1 KIV      0.028867
     13 HC51        4.9890    1.6130   -1.1620 hc        1 KIV      0.028867
     14 HC52        3.6270    1.9260   -2.3140 hc        1 KIV      0.028867
     15 HC53        3.3150    1.9630   -0.5260 hc        1 KIV      0.028867
@<TRIPOS>BOND
     1    1    2 1   
     2    2    3 1   
     3    2    4 1   
     4    4    5 1   
     5    4    8 2   
     6    5    6 1   
     7    5    7 1   
     8    5    9 1   
     9    6   10 1   
    10    6   11 1   
    11    6   12 1   
    12    7   13 1   
    13    7   14 1   
    14    7   15 1   
@<TRIPOS>SUBSTRUCTURE
     1 KIV         1 TEMP              0 ****  ****    0 ROOT
