@<TRIPOS>MOLECULE
KIW
   33    34     1     0     0
SMALL
bcc


@<TRIPOS>ATOM
      1 OAA        -0.3310    0.5650   -0.5980 o         1 KIW     -0.855300
      2 CAP         0.8090    0.0710   -0.3620 c         1 KIW      0.905700
      3 OAC         1.0840   -0.5110    0.7340 o         1 KIW     -0.855300
      4 CAT         1.8980    0.1700   -1.4130 ca        1 KIW     -0.134100
      5 CAJ         3.1830   -0.2610   -1.0790 ca        1 KIW     -0.150500
      6 CAM         1.6470    0.6670   -2.6970 ca        1 KIW     -0.080000
      7 CAU         2.6720    0.7330   -3.6460 ca        1 KIW     -0.134100
      8 CAQ         2.4470    1.2610   -5.0510 c         1 KIW      0.905700
      9 OAD         1.2780    1.5610   -5.4260 o         1 KIW     -0.855300
     10 OAB         3.4580    1.3820   -5.8130 o         1 KIW     -0.855300
     11 CAK         3.9560    0.3020   -3.3060 ca        1 KIW     -0.150500
     12 CAS         4.2310   -0.1930   -2.0180 ca        1 KIW      0.009600
     13 NAO         5.5620   -0.5510   -1.6400 nu        1 KIW     -0.710600
     14 CAN         6.2640   -1.4240   -2.5590 c3        1 KIW      0.211100
     15 CAR         7.5610   -0.8190   -3.0380 ca        1 KIW     -0.070300
     16 CAL         8.7450   -1.5530   -2.9610 ca        1 KIW     -0.082000
     17 CAH         7.5720    0.4700   -3.5880 ca        1 KIW     -0.038000
     18 CAG         8.7620    1.0190   -4.0670 ca        1 KIW     -0.150000
     19 CAI         9.9530    0.3010   -4.0050 ca        1 KIW     -0.088000
     20 CAV         9.9380   -0.9890   -3.4490 ca        1 KIW     -0.193200
     21 NAW        11.1970   -1.7620   -3.3720 no        1 KIW      0.314200
     22 OAF        11.1890   -2.8730   -2.9050 o         1 KIW     -0.239500
     23 OAE        12.2210   -1.2710   -3.7780 o         1 KIW     -0.239500
     24 H2          3.3470   -0.6480   -0.0600 ha        1 KIW      0.130500
     25 H3          0.6320    1.0070   -2.9630 ha        1 KIW      0.165000
     26 H5          4.7360    0.3660   -4.0820 ha        1 KIW      0.130500
     27 H6          5.5730   -0.9320   -0.7130 hn        1 KIW      0.364800
     28 H7          6.4940   -2.4210   -2.0800 h1        1 KIW      0.047700
     29 H8          5.6410   -1.6300   -3.4800 h1        1 KIW      0.047700
     30 H9          8.7490   -2.5650   -2.5240 ha        1 KIW      0.157000
     31 H10         6.6280    1.0470   -3.6420 ha        1 KIW      0.199000
     32 H11         8.7580    2.0290   -4.5040 ha        1 KIW      0.144000
     33 H12        10.8920    0.7330   -4.3850 ha        1 KIW      0.149000
@<TRIPOS>BOND
     1    1    2 1   
     2    2    3 1   
     3    2    4 1   
     4    4    5 ar  
     5    4    6 ar  
     6    5   12 ar  
     7    5   24 1   
     8    6    7 ar  
     9    6   25 1   
    10    7    8 1   
    11    7   11 ar  
    12    8    9 1   
    13    8   10 1   
    14   11   12 ar  
    15   11   26 1   
    16   12   13 1   
    17   13   14 1   
    18   13   27 1   
    19   14   15 1   
    20   14   28 1   
    21   14   29 1   
    22   15   16 ar  
    23   15   17 ar  
    24   16   20 ar  
    25   16   30 1   
    26   17   18 ar  
    27   17   31 1   
    28   18   19 ar  
    29   18   32 1   
    30   19   20 ar  
    31   19   33 1   
    32   20   21 1   
    33   21   22 1   
    34   21   23 1   
@<TRIPOS>SUBSTRUCTURE
     1 KIW         1 TEMP              0 ****  ****    0 ROOT
