@<TRIPOS>MOLECULE
KIW
   33    34     1     0     0
SMALL
bcc


@<TRIPOS>ATOM
      1 OAA        -0.3580    0.5760   -0.6740 o         1 KIW     -0.855300
      2 CAP         0.7800    0.0870   -0.4200 c         1 KIW      0.905700
      3 OAC         1.0440   -0.4830    0.6840 o         1 KIW     -0.855300
      4 CAT         1.8810    0.1790   -1.4600 ca        1 KIW     -0.134100
      5 CAJ         3.1630   -0.2460   -1.1070 ca        1 KIW     -0.150500
      6 CAM         1.6430    0.6640   -2.7520 ca        1 KIW     -0.080000
      7 CAU         2.6790    0.7240   -3.6890 ca        1 KIW     -0.134100
      8 CAQ         2.4700    1.2380   -5.1010 c         1 KIW      0.905700
      9 OAD         1.3050    1.5330   -5.4920 o         1 KIW     -0.855300
     10 OAB         3.4890    1.3530   -5.8530 o         1 KIW     -0.855300
     11 CAK         3.9610    0.2980   -3.3310 ca        1 KIW     -0.150500
     12 CAS         4.2210   -0.1850   -2.0350 ca        1 KIW      0.009600
     13 NAO         5.5490   -0.5380   -1.6390 nh        1 KIW     -0.710600
     14 CAN         6.2620   -1.4190   -2.5410 c3        1 KIW      0.211100
     15 CAR         7.5640   -0.8190   -3.0100 ca        1 KIW     -0.070300
     16 CAL         8.7470   -1.5510   -2.9130 ca        1 KIW     -0.082000
     17 CAH         7.5810    0.4650   -3.5740 ca        1 KIW     -0.038000
     18 CAG         8.7760    1.0100   -4.0440 ca        1 KIW     -0.150000
     19 CAI         9.9670    0.2930   -3.9600 ca        1 KIW     -0.088000
     20 CAV         9.9450   -0.9910   -3.3910 ca        1 KIW     -0.193200
     21 NAW        11.2040   -1.7630   -3.2920 no        1 KIW      0.314200
     22 OAF        11.1910   -2.8690   -2.8150 o         1 KIW     -0.239500
     23 OAE        12.2330   -1.2750   -3.6910 o         1 KIW     -0.239500
     24 H2          3.3150   -0.6240   -0.0830 ha        1 KIW      0.130500
     25 H3          0.6310    1.0000   -3.0310 ha        1 KIW      0.165000
     26 H5          4.7490    0.3560   -4.0980 ha        1 KIW      0.130500
     27 H6          5.5500   -0.9090   -0.7080 hn        1 KIW      0.364800
     28 H7          5.6490   -1.6330   -3.4680 h1        1 KIW      0.047700
     29 H8          6.4860   -2.4110   -2.0500 h1        1 KIW      0.047700
     30 H9          8.7460   -2.5590   -2.4660 ha        1 KIW      0.157000
     31 H10         6.6370    1.0410   -3.6440 ha        1 KIW      0.199000
     32 H11         8.7770    2.0160   -4.4900 ha        1 KIW      0.144000
     33 H12        10.9090    0.7220   -4.3330 ha        1 KIW      0.149000
@<TRIPOS>BOND
     1    1    2 1   
     2    2    3 1   
     3    2    4 1   
     4    4    5 ar  
     5    4    6 ar  
     6    5   12 ar  
     7    5   24 1   
     8    6    7 ar  
     9    6   25 1   
    10    7    8 1   
    11    7   11 ar  
    12    8    9 1   
    13    8   10 1   
    14   11   12 ar  
    15   11   26 1   
    16   12   13 1   
    17   13   14 1   
    18   13   27 1   
    19   14   15 1   
    20   14   28 1   
    21   14   29 1   
    22   15   16 ar  
    23   15   17 ar  
    24   16   20 ar  
    25   16   30 1   
    26   17   18 ar  
    27   17   31 1   
    28   18   19 ar  
    29   18   32 1   
    30   19   20 ar  
    31   19   33 1   
    32   20   21 1   
    33   21   22 1   
    34   21   23 1   
@<TRIPOS>SUBSTRUCTURE
     1 KIW         1 TEMP              0 ****  ****    0 ROOT
