@<TRIPOS>MOLECULE
KIW
   33    34     1     0     0
SMALL
bcc


@<TRIPOS>ATOM
      1 OAA        -0.3500    0.5490   -0.6440 o         1 KIW     -0.855300
      2 CAP         0.7960    0.0800   -0.3890 c         1 KIW      0.905700
      3 OAC         1.0740   -0.4630    0.7260 o         1 KIW     -0.855300
      4 CAT         1.8870    0.1620   -1.4390 ca        1 KIW     -0.134100
      5 CAJ         3.1780   -0.2400   -1.0860 ca        1 KIW     -0.150500
      6 CAM         1.6340    0.6150   -2.7390 ca        1 KIW     -0.080000
      7 CAU         2.6620    0.6650   -3.6860 ca        1 KIW     -0.134100
      8 CAQ         2.4360    1.1460   -5.1070 c         1 KIW      0.905700
      9 OAD         1.2640    1.4170   -5.4960 o         1 KIW     -0.855300
     10 OAB         3.4470    1.2560   -5.8690 o         1 KIW     -0.855300
     11 CAK         3.9510    0.2630   -3.3280 ca        1 KIW     -0.150500
     12 CAS         4.2280   -0.1860   -2.0240 ca        1 KIW      0.009600
     13 NAO         5.5620   -0.5140   -1.6310 nh        1 KIW     -0.710600
     14 CAN         6.2800   -1.4050   -2.5180 c3        1 KIW      0.211100
     15 CAR         7.5700   -0.7970   -3.0120 ca        1 KIW     -0.070300
     16 CAL         8.7640   -1.5110   -2.9080 ca        1 KIW     -0.082000
     17 CAH         7.5660    0.4740   -3.6030 ca        1 KIW     -0.038000
     18 CAG         8.7490    1.0240   -4.0950 ca        1 KIW     -0.150000
     19 CAI         9.9500    0.3260   -4.0050 ca        1 KIW     -0.088000
     20 CAV         9.9510   -0.9460   -3.4090 ca        1 KIW     -0.193200
     21 NAW        11.2200   -1.6980   -3.3030 no        1 KIW      0.314200
     22 OAF        11.2260   -2.7940   -2.8020 o         1 KIW     -0.239500
     23 OAE        12.2390   -1.2050   -3.7210 o         1 KIW     -0.239500
     24 H2          3.3420   -0.5930   -0.0560 ha        1 KIW      0.130500
     25 H3          0.6160    0.9310   -3.0180 ha        1 KIW      0.165000
     26 H5          4.7320    0.3140   -4.1030 ha        1 KIW      0.130500
     27 H6          5.5750   -0.8650   -0.6920 hn        1 KIW      0.364800
     28 H7          6.5220   -2.3830   -2.0070 h1        1 KIW      0.047700
     29 H8          5.6630   -1.6480   -3.4350 h1        1 KIW      0.047700
     30 H9          8.7810   -2.5090   -2.4390 ha        1 KIW      0.157000
     31 H10         6.6130    1.0350   -3.6780 ha        1 KIW      0.199000
     32 H11         8.7330    2.0200   -4.5630 ha        1 KIW      0.144000
     33 H12        10.8840    0.7590   -4.3960 ha        1 KIW      0.149000
@<TRIPOS>BOND
     1    1    2 1   
     2    2    3 1   
     3    2    4 1   
     4    4    5 ar  
     5    4    6 ar  
     6    5   12 ar  
     7    5   24 1   
     8    6    7 ar  
     9    6   25 1   
    10    7    8 1   
    11    7   11 ar  
    12    8    9 1   
    13    8   10 1   
    14   11   12 ar  
    15   11   26 1   
    16   12   13 1   
    17   13   14 1   
    18   13   27 1   
    19   14   15 1   
    20   14   28 1   
    21   14   29 1   
    22   15   16 ar  
    23   15   17 ar  
    24   16   20 ar  
    25   16   30 1   
    26   17   18 ar  
    27   17   31 1   
    28   18   19 ar  
    29   18   32 1   
    30   19   20 ar  
    31   19   33 1   
    32   20   21 1   
    33   21   22 1   
    34   21   23 1   
@<TRIPOS>SUBSTRUCTURE
     1 KIW         1 TEMP              0 ****  ****    0 ROOT
