@<TRIPOS>MOLECULE
KJ2
   44    46     1     0     0
SMALL
bcc


@<TRIPOS>ATOM
      1 C1          0.3230    0.6100   -0.1680 ca        1 KJ2      0.194100
      2 C2          1.5290   -0.0600    0.1190 ca        1 KJ2     -0.118600
      3 C3         -0.4450    1.1560    0.8710 ca        1 KJ2     -0.249000
      4 C4         -0.0000    1.0220    2.1910 ca        1 KJ2      0.187100
      5 C5          1.1940    0.3280    2.4940 ca        1 KJ2     -0.103000
      6 C6          1.9560   -0.1860    1.4420 ca        1 KJ2     -0.032000
      7 O7         -0.6870    1.5680    3.2450 oh        1 KJ2     -0.481100
      8 O8         -0.1840    0.7740   -1.4290 oh        1 KJ2     -0.481100
      9 CL9         2.4840   -0.7100   -1.1290 cl        1 KJ2     -0.081400
     10 C10         1.6390    0.1870    3.8690 cc        1 KJ2     -0.012300
     11 C11         1.6860   -0.9160    4.7560 cd        1 KJ2     -0.209300
     12 N12         2.4810    0.9610    5.8370 nc        1 KJ2     -0.493800
     13 C13         2.2350   -0.3640    5.9840 cd        1 KJ2      0.304200
     14 N14         2.1350    1.2820    4.5940 na        1 KJ2      0.003400
     15 C15         1.2680   -2.2820    4.5930 ca        1 KJ2      0.021000
     16 C16         0.8980   -3.0270    5.7310 ca        1 KJ2     -0.101500
     17 C17         0.4950   -4.3520    5.6230 ca        1 KJ2     -0.155500
     18 C18         0.8240   -4.2360    3.2100 ca        1 KJ2     -0.155500
     19 C19         1.2200   -2.9060    3.3390 ca        1 KJ2     -0.101500
     20 C20         0.4650   -4.9520    4.3540 ca        1 KJ2      0.076100
     21 O21         0.1230   -6.3020    4.3430 os        1 KJ2     -0.333900
     22 C22        -0.4710   -6.7580    3.1300 c3        1 KJ2      0.139400
     23 C23        -1.2100   -8.0370    3.5170 c3        1 KJ2     -0.129400
     24 C24        -1.6970   -8.7330    2.2570 c3        1 KJ2      0.103800
     25 N25        -2.4050  -10.0140    2.5590 n4        1 KJ2     -0.838600
     26 H3         -1.3770    1.6870    0.6320 ha        1 KJ2      0.166000
     27 H6          2.9110   -0.6920    1.6640 ha        1 KJ2      0.164000
     28 H7         -1.4940    1.9840    2.9020 ho        1 KJ2      0.433000
     29 H8          0.4630    0.4350   -2.0710 ho        1 KJ2      0.439000
     30 H13         2.4520   -0.8950    6.9110 h4        1 KJ2      0.046100
     31 H14         2.1610    2.2260    4.2850 hn        1 KJ2      0.331700
     32 H16         0.9210   -2.5500    6.7240 ha        1 KJ2      0.147000
     33 H17         0.2130   -4.9340    6.5120 ha        1 KJ2      0.138500
     34 H18         0.8080   -4.7070    2.2180 ha        1 KJ2      0.138500
     35 H19         1.5040   -2.3410    2.4380 ha        1 KJ2      0.147000
     36 H221       -1.1770   -5.9940    2.7120 h1        1 KJ2      0.052700
     37 H222        0.3410   -6.9740    2.3850 h1        1 KJ2      0.052700
     38 H231       -0.5070   -8.6930    4.0980 hc        1 KJ2      0.086700
     39 H232       -2.0670   -7.7710    4.1910 hc        1 KJ2      0.086700
     40 H241       -2.4160   -8.0680    1.6960 hx        1 KJ2      0.114200
     41 H242       -0.8240   -8.9750    1.5830 hx        1 KJ2      0.114200
     42 H251       -2.7180  -10.4570    1.6900 hn        1 KJ2      0.462800
     43 H252       -1.7750  -10.6540    3.0550 hn        1 KJ2      0.462800
     44 H253       -3.2190   -9.8330    3.1560 hn        1 KJ2      0.462800
@<TRIPOS>BOND
     1    1    2 ar  
     2    1    3 ar  
     3    1    8 1   
     4    2    6 ar  
     5    2    9 1   
     6    3    4 ar  
     7    3   26 1   
     8    4    5 ar  
     9    4    7 1   
    10    5    6 ar  
    11    5   10 1   
    12    6   27 1   
    13    7   28 1   
    14    8   29 1   
    15   10   11 2   
    16   10   14 1   
    17   11   13 1   
    18   11   15 1   
    19   12   13 2   
    20   12   14 1   
    21   13   30 1   
    22   14   31 1   
    23   15   16 ar  
    24   15   19 ar  
    25   16   17 ar  
    26   16   32 1   
    27   17   20 ar  
    28   17   33 1   
    29   18   19 ar  
    30   18   20 ar  
    31   18   34 1   
    32   19   35 1   
    33   20   21 1   
    34   21   22 1   
    35   22   23 1   
    36   22   36 1   
    37   22   37 1   
    38   23   24 1   
    39   23   38 1   
    40   23   39 1   
    41   24   25 1   
    42   24   40 1   
    43   24   41 1   
    44   25   42 1   
    45   25   43 1   
    46   25   44 1   
@<TRIPOS>SUBSTRUCTURE
     1 KJ2         1 TEMP              0 ****  ****    0 ROOT
