@<TRIPOS>MOLECULE
KJ2
   44    46     1     0     0
SMALL
bcc


@<TRIPOS>ATOM
      1 C1          0.3710    0.5750   -0.2070 ca        1 KJ2      0.194100
      2 C2          1.5730   -0.0900    0.1080 ca        1 KJ2     -0.118600
      3 C3         -0.4150    1.1320    0.8130 ca        1 KJ2     -0.249000
      4 C4          0.0070    1.0130    2.1410 ca        1 KJ2      0.187100
      5 C5          1.1970    0.3240    2.4720 ca        1 KJ2     -0.103000
      6 C6          1.9770   -0.2000    1.4400 ca        1 KJ2     -0.032000
      7 O7         -0.6980    1.5700    3.1770 oh        1 KJ2     -0.481100
      8 O8         -0.1140    0.7240   -1.4780 oh        1 KJ2     -0.481100
      9 Cl9         2.5500   -0.7520   -1.1160 cl        1 KJ2     -0.081400
     10 C10         1.6180    0.1990    3.8560 cc        1 KJ2     -0.012300
     11 C11         1.6510   -0.8940    4.7560 cd        1 KJ2     -0.209300
     12 N12         2.4250    0.9960    5.8300 nc        1 KJ2     -0.493800
     13 C13         2.1790   -0.3270    5.9870 cd        1 KJ2      0.304200
     14 N14         2.1000    1.3020    4.5770 na        1 KJ2      0.003400
     15 C15         1.2370   -2.2630    4.6010 ca        1 KJ2      0.021000
     16 C16         0.8470   -2.9950    5.7400 ca        1 KJ2     -0.101500
     17 C17         0.4480   -4.3210    5.6400 ca        1 KJ2     -0.155500
     18 C18         0.8220   -4.2320    3.2330 ca        1 KJ2     -0.155500
     19 C19         1.2140   -2.9010    3.3530 ca        1 KJ2     -0.101500
     20 C20         0.4420   -4.9360    4.3780 ca        1 KJ2      0.076100
     21 O21         0.1010   -6.2860    4.3760 os        1 KJ2     -0.333900
     22 C22        -0.4670   -6.7580    3.1560 c3        1 KJ2      0.139400
     23 C23        -1.2110   -8.0340    3.5430 c3        1 KJ2     -0.129400
     24 C24        -1.6700   -8.7450    2.2820 c3        1 KJ2      0.103800
     25 N25        -2.3820  -10.0240    2.5840 nz        1 KJ2     -0.838600
     26 H3         -1.3440    1.6590    0.5510 ha        1 KJ2      0.166000
     27 H6          2.9290   -0.7030    1.6830 ha        1 KJ2      0.164000
     28 H7         -1.5000    1.9810    2.8160 ho        1 KJ2      0.433000
     29 H8          0.5430    0.3790   -2.1050 ho        1 KJ2      0.439000
     30 H13         2.3790   -0.8480    6.9240 h4        1 KJ2      0.046100
     31 H14         2.1310    2.2440    4.2580 hn        1 KJ2      0.331700
     32 H16         0.8510   -2.5060    6.7280 ha        1 KJ2      0.147000
     33 H17         0.1500   -4.8930    6.5300 ha        1 KJ2      0.138500
     34 H18         0.8250   -4.7150    2.2460 ha        1 KJ2      0.138500
     35 H19         1.5140   -2.3460    2.4510 ha        1 KJ2      0.147000
     36 H221       -1.1660   -6.0000    2.7150 h1        1 KJ2      0.052700
     37 H222        0.3600   -6.9800    2.4310 h1        1 KJ2      0.052700
     38 H231       -0.5190   -8.6810    4.1470 hc        1 KJ2      0.086700
     39 H232       -2.0820   -7.7620    4.1970 hc        1 KJ2      0.086700
     40 H241       -2.3780   -8.0880    1.6980 hx        1 KJ2      0.114200
     41 H242       -0.7830   -8.9940    1.6290 hx        1 KJ2      0.114200
     42 H251       -2.6760  -10.4780    1.7140 hn        1 KJ2      0.462800
     43 H252       -1.7620  -10.6570    3.1000 hn        1 KJ2      0.462800
     44 H253       -3.2090   -9.8380    3.1620 hn        1 KJ2      0.462800
@<TRIPOS>BOND
     1    1    2 ar  
     2    1    3 ar  
     3    1    8 1   
     4    2    6 ar  
     5    2    9 1   
     6    3    4 ar  
     7    3   26 1   
     8    4    5 ar  
     9    4    7 1   
    10    5    6 ar  
    11    5   10 1   
    12    6   27 1   
    13    7   28 1   
    14    8   29 1   
    15   10   11 2   
    16   10   14 1   
    17   11   13 1   
    18   11   15 1   
    19   12   13 2   
    20   12   14 1   
    21   13   30 1   
    22   14   31 1   
    23   15   16 ar  
    24   15   19 ar  
    25   16   17 ar  
    26   16   32 1   
    27   17   20 ar  
    28   17   33 1   
    29   18   19 ar  
    30   18   20 ar  
    31   18   34 1   
    32   19   35 1   
    33   20   21 1   
    34   21   22 1   
    35   22   23 1   
    36   22   36 1   
    37   22   37 1   
    38   23   24 1   
    39   23   38 1   
    40   23   39 1   
    41   24   25 1   
    42   24   40 1   
    43   24   41 1   
    44   25   42 1   
    45   25   43 1   
    46   25   44 1   
@<TRIPOS>SUBSTRUCTURE
     1 KJ2         1 TEMP              0 ****  ****    0 ROOT
