@<TRIPOS>MOLECULE
KJ2
   44    46     1     0     0
SMALL
bcc


@<TRIPOS>ATOM
      1 C1          0.3630    0.5790   -0.2030 ca        1 KJ2      0.194100
      2 C2          1.5660   -0.0880    0.1050 ca        1 KJ2     -0.118600
      3 C3         -0.4170    1.1350    0.8210 ca        1 KJ2     -0.249000
      4 C4          0.0110    1.0150    2.1470 ca        1 KJ2      0.187100
      5 C5          1.2010    0.3230    2.4720 ca        1 KJ2     -0.103000
      6 C6          1.9750   -0.2020    1.4350 ca        1 KJ2     -0.032000
      7 O7         -0.6890    1.5710    3.1870 oh        1 KJ2     -0.481100
      8 O8         -0.1270    0.7300   -1.4720 oh        1 KJ2     -0.481100
      9 CL9         2.5360   -0.7510   -1.1240 cl        1 KJ2     -0.081400
     10 C10         1.6280    0.1950    3.8540 cc        1 KJ2     -0.012300
     11 C11         1.6640   -0.8990    4.7520 cd        1 KJ2     -0.209300
     12 N12         2.4460    0.9880    5.8240 nc        1 KJ2     -0.493800
     13 C13         2.1980   -0.3350    5.9810 cd        1 KJ2      0.304200
     14 N14         2.1160    1.2970    4.5740 na        1 KJ2      0.003400
     15 C15         1.2460   -2.2670    4.5980 ca        1 KJ2      0.021000
     16 C16         0.8620   -3.0000    5.7380 ca        1 KJ2     -0.101500
     17 C17         0.4590   -4.3250    5.6370 ca        1 KJ2     -0.155500
     18 C18         0.8200   -4.2340    3.2280 ca        1 KJ2     -0.155500
     19 C19         1.2160   -2.9030    3.3490 ca        1 KJ2     -0.101500
     20 C20         0.4460   -4.9380    4.3750 ca        1 KJ2      0.076100
     21 O21         0.1020   -6.2880    4.3720 os        1 KJ2     -0.333900
     22 C22        -0.4730   -6.7570    3.1550 c3        1 KJ2      0.139400
     23 C23        -1.2170   -8.0320    3.5450 c3        1 KJ2     -0.129400
     24 C24        -1.6850   -8.7410    2.2850 c3        1 KJ2      0.103800
     25 N25        -2.3970  -10.0190    2.5890 n4        1 KJ2     -0.838600
     26 H3         -1.3460    1.6650    0.5640 ha        1 KJ2      0.166000
     27 H6          2.9280   -0.7060    1.6740 ha        1 KJ2      0.164000
     28 H7         -1.4910    1.9840    2.8290 ho        1 KJ2      0.433000
     29 H8          0.5270    0.3850   -2.1020 ho        1 KJ2      0.439000
     30 H13         2.4020   -0.8570    6.9170 h4        1 KJ2      0.046100
     31 H14         2.1460    2.2380    4.2560 hn        1 KJ2      0.331700
     32 H16         0.8720   -2.5130    6.7260 ha        1 KJ2      0.147000
     33 H17         0.1650   -4.8980    6.5280 ha        1 KJ2      0.138500
     34 H18         0.8170   -4.7150    2.2410 ha        1 KJ2      0.138500
     35 H19         1.5110   -2.3470    2.4460 ha        1 KJ2      0.147000
     36 H221       -1.1730   -5.9970    2.7190 h1        1 KJ2      0.052700
     37 H222        0.3490   -6.9790    2.4250 h1        1 KJ2      0.052700
     38 H231       -2.0830   -7.7600    4.2040 hc        1 KJ2      0.086700
     39 H232       -0.5220   -8.6810    4.1430 hc        1 KJ2      0.086700
     40 H241       -2.3960   -8.0810    1.7060 hx        1 KJ2      0.114200
     41 H242       -0.8030   -8.9900    1.6250 hx        1 KJ2      0.114200
     42 H251       -1.7740  -10.6540    3.1000 hn        1 KJ2      0.462800
     43 H252       -3.2200   -9.8320    3.1720 hn        1 KJ2      0.462800
     44 H253       -2.6970  -10.4710    1.7200 hn        1 KJ2      0.462800
@<TRIPOS>BOND
     1    1    2 ar  
     2    1    3 ar  
     3    1    8 1   
     4    2    6 ar  
     5    2    9 1   
     6    3    4 ar  
     7    3   26 1   
     8    4    5 ar  
     9    4    7 1   
    10    5    6 ar  
    11    5   10 1   
    12    6   27 1   
    13    7   28 1   
    14    8   29 1   
    15   10   11 2   
    16   10   14 1   
    17   11   13 1   
    18   11   15 1   
    19   12   13 2   
    20   12   14 1   
    21   13   30 1   
    22   14   31 1   
    23   15   16 ar  
    24   15   19 ar  
    25   16   17 ar  
    26   16   32 1   
    27   17   20 ar  
    28   17   33 1   
    29   18   19 ar  
    30   18   20 ar  
    31   18   34 1   
    32   19   35 1   
    33   20   21 1   
    34   21   22 1   
    35   22   23 1   
    36   22   36 1   
    37   22   37 1   
    38   23   24 1   
    39   23   38 1   
    40   23   39 1   
    41   24   25 1   
    42   24   40 1   
    43   24   41 1   
    44   25   42 1   
    45   25   43 1   
    46   25   44 1   
@<TRIPOS>SUBSTRUCTURE
     1 KJ2         1 TEMP              0 ****  ****    0 ROOT
