@<TRIPOS>MOLECULE
KJ2
   43    45     1     0     0
SMALL
bcc


@<TRIPOS>ATOM
      1 C1          2.4640   -0.8050   -3.0720 ca        1 KJ2      0.183100
      2 C2          1.9030    0.4230   -3.4830 ca        1 KJ2     -0.115600
      3 C3          1.6840   -1.7460   -2.3900 ca        1 KJ2     -0.196000
      4 C4          0.3380   -1.4550   -2.1250 ca        1 KJ2      0.199100
      5 C5         -0.2350   -0.2310   -2.5370 ca        1 KJ2     -0.150000
      6 C6          0.5640    0.6970   -3.2130 ca        1 KJ2     -0.035000
      7 O7         -0.3610   -2.4330   -1.4700 oh        1 KJ2     -0.484100
      8 O8          3.7680   -1.1620   -3.2950 oh        1 KJ2     -0.483100
      9 CL9         2.8410    1.5790   -4.3070 cl        1 KJ2     -0.088400
     10 C10        -1.6340    0.0660   -2.2920 cc        1 KJ2     -0.060300
     11 C11        -2.3760    0.2220   -1.0970 cd        1 KJ2     -0.186300
     12 N12        -3.7820    0.5080   -2.9020 nc        1 KJ2     -0.501800
     13 C13        -3.7290    0.4960   -1.5460 cd        1 KJ2      0.300200
     14 N14        -2.5530    0.2540   -3.3390 na        1 KJ2     -0.008600
     15 C15        -1.9420    0.1650    0.2730 ca        1 KJ2     -0.052000
     16 C16        -2.8420   -0.2350    1.2780 ca        1 KJ2     -0.086000
     17 C17        -2.4520   -0.2780    2.6080 ca        1 KJ2     -0.180000
     18 C18        -0.2290    0.4910    1.9690 ca        1 KJ2     -0.180000
     19 C19        -0.6380    0.5280    0.6380 ca        1 KJ2     -0.086000
     20 C20        -1.1360    0.0880    2.9550 ca        1 KJ2      0.133100
     21 O21        -0.8540    0.0130    4.3030 os        1 KJ2     -0.327900
     22 C22         0.4860    0.3510    4.6830 c3        1 KJ2      0.129400
     23 C23         0.5440    0.1630    6.1880 c3        1 KJ2     -0.090400
     24 C24         1.9250    0.5780    6.6940 c3        1 KJ2      0.162800
     25 N25         2.0980    0.3580    8.1090 n3        1 KJ2     -0.914800
     26 H3          2.1200   -2.7030   -2.0690 ha        1 KJ2      0.178000
     27 H6          0.1260    1.6580   -3.5300 ha        1 KJ2      0.156000
     28 H7         -1.2340   -2.0780   -1.2270 ho        1 KJ2      0.444000
     29 H8          4.2090   -0.4390   -3.7710 ho        1 KJ2      0.435000
     30 H13        -4.6050    0.6850   -0.9250 h4        1 KJ2      0.048100
     31 H14        -2.3540    0.2110   -4.3120 hn        1 KJ2      0.326700
     32 H16        -3.8690   -0.5200    1.0040 ha        1 KJ2      0.138500
     33 H17        -3.1500   -0.5920    3.3970 ha        1 KJ2      0.145000
     34 H18         0.8000    0.7800    2.2250 ha        1 KJ2      0.145000
     35 H19         0.0720    0.8470   -0.1410 ha        1 KJ2      0.138500
     36 H221        0.6970    1.4160    4.3970 h1        1 KJ2      0.041200
     37 H222        1.2080   -0.3300    4.1610 h1        1 KJ2      0.041200
     38 H231        0.3390   -0.9090    6.4400 hc        1 KJ2      0.064700
     39 H232       -0.2560    0.7810    6.6730 hc        1 KJ2      0.064700
     40 H241        2.0950    1.6570    6.3980 h1        1 KJ2      0.025200
     41 H242        2.7080   -0.0370    6.1630 h1        1 KJ2      0.025200
     42 H251        2.9630    0.7550    8.4190 hn        1 KJ2      0.351800
     43 H252        1.3440    0.7550    8.6330 hn        1 KJ2      0.351800
@<TRIPOS>BOND
     1    1    2 ar  
     2    1    3 ar  
     3    1    8 1   
     4    2    6 ar  
     5    2    9 1   
     6    3    4 ar  
     7    3   26 1   
     8    4    5 ar  
     9    4    7 1   
    10    5    6 ar  
    11    5   10 1   
    12    6   27 1   
    13    7   28 1   
    14    8   29 1   
    15   10   11 2   
    16   10   14 1   
    17   11   13 1   
    18   11   15 1   
    19   12   13 2   
    20   12   14 1   
    21   13   30 1   
    22   14   31 1   
    23   15   16 ar  
    24   15   19 ar  
    25   16   17 ar  
    26   16   32 1   
    27   17   20 ar  
    28   17   33 1   
    29   18   19 ar  
    30   18   20 ar  
    31   18   34 1   
    32   19   35 1   
    33   20   21 1   
    34   21   22 1   
    35   22   23 1   
    36   22   36 1   
    37   22   37 1   
    38   23   24 1   
    39   23   38 1   
    40   23   39 1   
    41   24   25 1   
    42   24   40 1   
    43   24   41 1   
    44   25   42 1   
    45   25   43 1   
@<TRIPOS>SUBSTRUCTURE
     1 KJ2         1 TEMP              0 ****  ****    0 ROOT
