@<TRIPOS>MOLECULE
KJ8
   70    60     1     0     0
SMALL
bcc


@<TRIPOS>ATOM
      1 C35         1.3610    5.6890    5.4680 c3        1 KJ8     -0.122000
      2 N32         0.8170    6.1490    4.2070 n3        1 KJ8     -0.266000
      3 C34         1.1860    7.5680    4.0060 c3        1 KJ8     -0.122000
      4 C31         1.3650    5.3590    3.1350 c3        1 KJ8     -0.064000
      5 C30         0.2120    4.7180    2.3100 c3        1 KJ8     -0.188000
      6 C29         0.7490    3.4950    1.5430 c2        1 KJ8      0.309000
      7 O33         1.8140    3.5810    0.9010 o         1 KJ8     -0.347000
      8 N28        -0.0440    2.3390    1.4360 n         1 KJ8     -0.328000
      9 C26         0.3690    1.2550    0.5860 c1        1 KJ8      0.076000
     10 C27        -0.2230    0.0050    0.7320 c1        1 KJ8     -0.172000
     11 C25         1.4640    1.4040   -0.2320 c1        1 KJ8     -0.125500
     12 C24         1.9810    0.2970   -0.9160 c1        1 KJ8     -0.125500
     13 C23         1.3860   -0.9520   -0.7680 c1        1 KJ8     -0.151000
     14 C16         0.2940   -1.1010    0.0480 c1        1 KJ8     -0.008000
     15 C1         -0.4440   -2.4670    0.1100 c2        1 KJ8     -0.061000
     16 C5         -1.3670   -3.3420   -0.4530 c1        1 KJ8     -0.240000
     17 C2         -0.1160   -2.9420    1.3610 c1        1 KJ8      0.044000
     18 C10         0.7130   -2.8350    2.6580 c1        1 KJ8     -0.035000
     19 C11         0.0830   -2.5090    3.8600 c1        1 KJ8     -0.125500
     20 C12         0.8510   -2.2920    5.0220 c1        1 KJ8     -0.125500
     21 C13         2.2330   -2.4020    4.9740 c1        1 KJ8     -0.125500
     22 C14         2.8700   -2.7300    3.7660 c1        1 KJ8     -0.125500
     23 C15         2.1080   -2.9470    2.6070 c1        1 KJ8     -0.105000
     24 O3         -0.8200   -4.0900    1.5740 os        1 KJ8     -0.083000
     25 C4         -1.6000   -4.3370    0.4390 c1        1 KJ8      0.114000
     26 N6         -2.3770   -5.3790    0.0920 n1        1 KJ8     -0.176000
     27 C7         -2.9230   -5.4310   -1.1460 c1        1 KJ8      0.017000
     28 N8         -2.6850   -4.4230   -2.0470 n1        1 KJ8     -0.243000
     29 C9         -1.9240   -3.4000   -1.7090 c1        1 KJ8      0.209000
     30 N          -1.5830   -2.4170   -2.7220 n2        1 KJ8     -0.278000
     31 CA         -2.0770   -2.5710   -4.0720 c3        1 KJ8      0.004000
     32 C          -1.5850   -3.8800   -4.6490 c3        1 KJ8     -0.019000
     33 O          -2.5090   -4.3460   -5.6100 oh        1 KJ8     -0.321000
     34 C17        -1.5850   -1.4260   -4.9170 c1        1 KJ8     -0.115000
     35 C18        -0.2400   -1.3310   -5.2540 c1        1 KJ8     -0.125500
     36 C19         0.1990   -0.2960   -6.0830 c1        1 KJ8     -0.125500
     37 C20        -0.7170    0.6430   -6.5720 c1        1 KJ8     -0.125500
     38 C21        -2.0660    0.5470   -6.2330 c1        1 KJ8     -0.125500
     39 C22        -2.5020   -0.4780   -5.4120 c1        1 KJ8     -0.103000
     40 H1          1.1230    6.3100    6.1650 h1        1 KJ8      0.073833
     41 H2          1.0000    4.8180    5.6750 h1        1 KJ8      0.073833
     42 H3          2.3550    5.6290    5.4030 h1        1 KJ8      0.073833
     43 H5          2.0830    7.6190    3.7200 h1        1 KJ8      0.073833
     44 H6          0.6140    7.9600    3.3400 h1        1 KJ8      0.073833
     45 H7          1.0860    8.0450    4.8340 h1        1 KJ8      0.073833
     46 H8          1.9050    5.9360    2.5480 h1        1 KJ8      0.079000
     47 H9          1.9190    4.6650    3.4990 h1        1 KJ8      0.079000
     48 H10        -0.1410    5.3830    1.6640 hc        1 KJ8      0.120000
     49 H11        -0.5410    4.4200    2.9420 hc        1 KJ8      0.120000
     50 H12        -0.8530    2.3060    1.8480 hn        1 KJ8      0.235000
     51 H13        -0.9890   -0.0980    1.3020 ha        1 KJ8      0.142000
     52 H14         1.8760    2.2720   -0.3360 ha        1 KJ8      0.141000
     53 H15         2.7500    0.4000   -1.4910 ha        1 KJ8      0.141000
     54 H16         1.7440   -1.7190   -1.2420 ha        1 KJ8      0.147000
     55 H17        -0.9080   -2.4290    3.8970 ha        1 KJ8      0.141000
     56 H18         0.4040   -2.0620    5.8750 ha        1 KJ8      0.141000
     57 H19         2.7650   -2.2500    5.7840 ha        1 KJ8      0.141000
     58 H20         3.8360   -2.8070    3.7320 ha        1 KJ8      0.141000
     59 H21         2.5700   -3.1860    1.7280 ha        1 KJ8      0.147000
     60 H22        -3.4650   -6.1580   -1.3900 ha        1 KJ8      0.195000
     61 H23        -1.1360   -1.6340   -2.4780 hn        1 KJ8      0.224000
     62 H24        -3.0970   -2.5690   -4.0640 h1        1 KJ8      0.148000
     63 H25        -0.6980   -3.7430   -5.0820 h1        1 KJ8      0.094000
     64 H26        -1.4990   -4.5560   -3.9160 h1        1 KJ8      0.094000
     65 H27        -2.2620   -5.0720   -5.8960 ho        1 KJ8      0.207000
     66 H28         0.4070   -1.9980   -4.9080 ha        1 KJ8      0.141000
     67 H29         1.1160   -0.2270   -6.3150 ha        1 KJ8      0.141000
     68 H30        -0.4150    1.3540   -7.1420 ha        1 KJ8      0.141000
     69 H31        -2.7110    1.2100   -6.5780 ha        1 KJ8      0.141000
     70 H32        -3.5070   -0.5470   -5.1620 ha        1 KJ8      0.144000
@<TRIPOS>BOND
     1    1    2 1   
     2    1   40 1   
     3    1   41 1   
     4    1   42 1   
     5    2    3 1   
     6    2    4 1   
     7    3   43 1   
     8    3   44 1   
     9    3   45 1   
    10    4    5 1   
    11    4   46 1   
    12    4   47 1   
    13    5    6 1   
    14    5   48 1   
    15    5   49 1   
    16    6    7 1   
    17    6    8 1   
    18    8    9 1   
    19    8   50 1   
    20    9   10 1   
    21   10   51 1   
    22   11   12 1   
    23   11   52 1   
    24   12   53 1   
    25   13   14 1   
    26   13   54 1   
    27   14   15 1   
    28   15   16 1   
    29   15   17 1   
    30   16   29 1   
    31   17   24 1   
    32   18   23 1   
    33   19   20 1   
    34   19   55 1   
    35   20   56 1   
    36   21   22 1   
    37   21   57 1   
    38   22   58 1   
    39   23   59 1   
    40   24   25 1   
    41   25   26 1   
    42   27   28 1   
    43   27   60 1   
    44   30   31 1   
    45   30   61 1   
    46   31   32 1   
    47   31   34 1   
    48   31   62 1   
    49   32   33 1   
    50   32   63 1   
    51   32   64 1   
    52   33   65 1   
    53   34   39 1   
    54   35   36 1   
    55   35   66 1   
    56   36   67 1   
    57   37   38 1   
    58   37   68 1   
    59   38   69 1   
    60   39   70 1   
@<TRIPOS>SUBSTRUCTURE
     1 KJ8         1 TEMP              0 ****  ****    0 ROOT
