@<TRIPOS>MOLECULE
KJ8
   70    74     1     0     0
SMALL
bcc


@<TRIPOS>ATOM
      1 C35         6.2210    4.2390    2.7240 c3        1 KJ8      0.159100
      2 N32         6.0060    3.7910    1.3660 n3        1 KJ8     -0.748600
      3 C34         7.2370    3.4850    0.6740 c3        1 KJ8      0.159100
      4 C31         5.0150    2.7270    1.2690 c3        1 KJ8      0.175800
      5 C30         4.2360    2.7810   -0.0480 c3        1 KJ8     -0.156400
      6 C29         3.1770    1.6900   -0.0580 c         1 KJ8      0.665100
      7 O33         3.0500    0.8870    0.8810 o         1 KJ8     -0.583100
      8 N28         2.3730    1.6590   -1.1940 n         1 KJ8     -0.476100
      9 C26         1.3120    0.7860   -1.4770 ca        1 KJ8      0.074600
     10 C27         0.8700   -0.2090   -0.5800 ca        1 KJ8     -0.136000
     11 C25         0.6540    0.9160   -2.7260 ca        1 KJ8     -0.183000
     12 C24        -0.4060    0.0800   -3.0500 ca        1 KJ8     -0.106000
     13 C23        -0.8430   -0.8980   -2.1600 ca        1 KJ8     -0.156000
     14 C16        -0.1990   -1.0440   -0.9240 ca        1 KJ8     -0.017800
     15 C1         -0.6510   -2.0570    0.0130 cc        1 KJ8     -0.029400
     16 C5         -1.8330   -1.9540    0.8420 ca        1 KJ8     -0.380400
     17 C2         -0.0600   -3.2760    0.3060 cd        1 KJ8      0.097900
     18 C10         1.1090   -3.9750   -0.1720 ca        1 KJ8     -0.040800
     19 C11         1.6300   -5.0620    0.5510 ca        1 KJ8     -0.099500
     20 C12         2.7570   -5.7350    0.0870 ca        1 KJ8     -0.135500
     21 C13         3.3750   -5.3360   -1.0980 ca        1 KJ8     -0.117000
     22 C14         2.8620   -4.2600   -1.8210 ca        1 KJ8     -0.135500
     23 C15         1.7340   -3.5810   -1.3650 ca        1 KJ8     -0.099500
     24 O3         -0.7970   -3.9770    1.3000 os        1 KJ8     -0.299400
     25 C4         -1.8780   -3.1590    1.6220 ca        1 KJ8      0.613600
     26 N6         -2.8290   -3.4710    2.5380 nb        1 KJ8     -0.708000
     27 C7         -3.7670   -2.4910    2.6420 ca        1 KJ8      0.679900
     28 N8         -3.8680   -1.3120    1.9790 nb        1 KJ8     -0.789000
     29 C9         -2.8820   -1.0060    1.0630 ca        1 KJ8      0.736200
     30 N          -2.8500    0.2160    0.4130 nh        1 KJ8     -0.820900
     31 CA         -3.9780    1.1270    0.4370 c3        1 KJ8      0.266800
     32 C          -5.1940    0.6650   -0.4020 c3        1 KJ8      0.100400
     33 O          -4.7570    0.2950   -1.7000 oh        1 KJ8     -0.611800
     34 C17        -3.5470    2.5120    0.0170 ca        1 KJ8     -0.100300
     35 C18        -3.2070    2.7890   -1.3110 ca        1 KJ8     -0.109500
     36 C19        -2.8180    4.0770   -1.6790 ca        1 KJ8     -0.136000
     37 C20        -2.7630    5.0920   -0.7240 ca        1 KJ8     -0.123000
     38 C21        -3.0960    4.8160    0.6030 ca        1 KJ8     -0.136000
     39 C22        -3.4830    3.5300    0.9750 ca        1 KJ8     -0.109500
     40 H1          6.9390    5.1000    2.7100 h1        1 KJ8      0.031867
     41 H2          5.2460    4.5920    3.1510 h1        1 KJ8      0.031867
     42 H3          6.6360    3.4380    3.3950 h1        1 KJ8      0.031867
     43 H5          7.8050    2.6300    1.1340 h1        1 KJ8      0.031867
     44 H6          7.0020    3.2210   -0.3910 h1        1 KJ8      0.031867
     45 H7          7.8930    4.3940    0.6830 h1        1 KJ8      0.031867
     46 H8          5.4840    1.7040    1.3610 h1        1 KJ8      0.053200
     47 H9          4.2740    2.8260    2.1130 h1        1 KJ8      0.053200
     48 H10         3.7460    3.7840   -0.1620 hc        1 KJ8      0.071700
     49 H11         4.9280    2.6320   -0.9170 hc        1 KJ8      0.071700
     50 H12         2.5530    2.3490   -1.8890 hn        1 KJ8      0.315500
     51 H13         1.3560   -0.3410    0.4020 ha        1 KJ8      0.185000
     52 H14         0.9740    1.6810   -3.4500 ha        1 KJ8      0.130000
     53 H15        -0.9080    0.1940   -4.0230 ha        1 KJ8      0.135000
     54 H16        -1.6840   -1.5560   -2.4250 ha        1 KJ8      0.146000
     55 H17         1.1400   -5.3780    1.4860 ha        1 KJ8      0.148500
     56 H18         3.1590   -6.5840    0.6590 ha        1 KJ8      0.134000
     57 H19         4.2660   -5.8690   -1.4610 ha        1 KJ8      0.132000
     58 H20         3.3470   -3.9420   -2.7560 ha        1 KJ8      0.134000
     59 H21         1.3310   -2.7300   -1.9370 ha        1 KJ8      0.148500
     60 H22        -4.5770   -2.6880    3.3770 h5        1 KJ8      0.054100
     61 H23        -2.2980    0.2410   -0.4220 hn        1 KJ8      0.445800
     62 H24        -4.3530    1.1850    1.5060 h1        1 KJ8      0.090700
     63 H25        -5.6850   -0.2120    0.1000 h1        1 KJ8      0.041700
     64 H26        -5.9260    1.5130   -0.4730 h1        1 KJ8      0.041700
     65 H27        -5.5290   -0.0560   -2.1580 ho        1 KJ8      0.406000
     66 H28        -3.2630    1.9880   -2.0660 ha        1 KJ8      0.144500
     67 H29        -2.5560    4.2910   -2.7250 ha        1 KJ8      0.131500
     68 H30        -2.4570    6.1070   -1.0150 ha        1 KJ8      0.130000
     69 H31        -3.0500    5.6140    1.3590 ha        1 KJ8      0.131500
     70 H32        -3.7340    3.3160    2.0250 ha        1 KJ8      0.144500
@<TRIPOS>BOND
     1    1    2 1   
     2    1   40 1   
     3    1   41 1   
     4    1   42 1   
     5    2    3 1   
     6    2    4 1   
     7    3   43 1   
     8    3   44 1   
     9    3   45 1   
    10    4    5 1   
    11    4   46 1   
    12    4   47 1   
    13    5    6 1   
    14    5   48 1   
    15    5   49 1   
    16    6    7 2   
    17    6    8 1   
    18    8    9 1   
    19    8   50 1   
    20    9   10 ar  
    21    9   11 ar  
    22   10   14 ar  
    23   10   51 1   
    24   11   12 ar  
    25   11   52 1   
    26   12   13 ar  
    27   12   53 1   
    28   13   14 ar  
    29   13   54 1   
    30   14   15 1   
    31   15   16 1   
    32   15   17 2   
    33   16   25 ar  
    34   16   29 ar  
    35   17   18 1   
    36   17   24 1   
    37   18   19 ar  
    38   18   23 ar  
    39   19   20 ar  
    40   19   55 1   
    41   20   21 ar  
    42   20   56 1   
    43   21   22 ar  
    44   21   57 1   
    45   22   23 ar  
    46   22   58 1   
    47   23   59 1   
    48   24   25 1   
    49   25   26 ar  
    50   26   27 ar  
    51   27   28 ar  
    52   27   60 1   
    53   28   29 ar  
    54   29   30 1   
    55   30   31 1   
    56   30   61 1   
    57   31   32 1   
    58   31   34 1   
    59   31   62 1   
    60   32   33 1   
    61   32   63 1   
    62   32   64 1   
    63   33   65 1   
    64   34   35 ar  
    65   34   39 ar  
    66   35   36 ar  
    67   35   66 1   
    68   36   37 ar  
    69   36   67 1   
    70   37   38 ar  
    71   37   68 1   
    72   38   39 ar  
    73   38   69 1   
    74   39   70 1   
@<TRIPOS>SUBSTRUCTURE
     1 KJ8         1 TEMP              0 ****  ****    0 ROOT
