@<TRIPOS>MOLECULE
KJ8
   73    77     1     0     0
SMALL
bcc


@<TRIPOS>ATOM
      1 C35         0.5890    1.9420   -0.0830 c3        1 KJ8      0.077600
      2 N32         1.7390    1.1860    0.5040 n4        1 KJ8     -0.677400
      3 C34         1.4920    0.9230    1.9500 c3        1 KJ8      0.077600
      4 C31         1.9650   -0.0780   -0.2650 c3        1 KJ8      0.101800
      5 C30         3.3360   -0.7220   -0.0320 c3        1 KJ8     -0.185400
      6 C29         3.4800   -1.9180   -0.9450 c         1 KJ8      0.532100
      7 O33         2.7070   -2.2480   -1.8280 o         1 KJ8     -0.363100
      8 N28         4.7050   -2.7730   -0.7020 n4        1 KJ8     -0.532200
      9 C26         5.1760   -3.5380   -1.8670 ca        1 KJ8     -0.059400
     10 C27         4.8920   -4.9110   -1.9540 ca        1 KJ8     -0.084000
     11 C25         5.9680   -2.9020   -2.8410 ca        1 KJ8     -0.100000
     12 C24         6.4950   -3.6660   -3.8780 ca        1 KJ8     -0.088000
     13 C23         6.2560   -5.0400   -3.9520 ca        1 KJ8     -0.093000
     14 C16         5.4510   -5.6750   -2.9960 ca        1 KJ8      0.014200
     15 C1          5.2360   -7.1060   -2.9960 cc        1 KJ8     -0.174400
     16 C5          4.5830   -7.9320   -3.9920 ca        1 KJ8     -0.269400
     17 C2          5.5790   -7.9490   -1.9330 cd        1 KJ8      0.238900
     18 C10         6.3190   -7.7800   -0.7060 ca        1 KJ8     -0.132800
     19 C11         6.0790   -8.6400    0.3810 ca        1 KJ8     -0.082000
     20 C12         6.8430   -8.5240    1.5410 ca        1 KJ8     -0.133000
     21 C13         7.8560   -7.5680    1.6220 ca        1 KJ8     -0.065000
     22 C14         8.1010   -6.7150    0.5410 ca        1 KJ8     -0.133000
     23 C15         7.3400   -6.8170   -0.6190 ca        1 KJ8     -0.082000
     24 O3          5.1280   -9.2620   -2.1500 os        1 KJ8     -0.255400
     25 C4          4.5060   -9.2650   -3.3960 ca        1 KJ8      0.604600
     26 N6          3.9280  -10.3490   -3.9400 nb        1 KJ8     -0.582000
     27 C7          3.4010  -10.1040   -5.1760 ca        1 KJ8      0.688900
     28 N8          3.4280   -8.9380   -5.8690 nb        1 KJ8     -0.686000
     29 C9          4.0320   -7.8620   -5.2870 ca        1 KJ8      0.527200
     30 N           4.0820   -6.6140   -6.0730 n4        1 KJ8     -0.750700
     31 CA          4.4790   -6.7980   -7.5370 c3        1 KJ8      0.196800
     32 C           5.9680   -7.1610   -7.6810 c3        1 KJ8      0.116400
     33 O           6.7480   -6.3050   -6.8610 oh        1 KJ8     -0.660800
     34 C17         4.0830   -5.5680   -8.2930 ca        1 KJ8     -0.204300
     35 C18         4.9020   -4.4340   -8.3310 ca        1 KJ8     -0.103000
     36 C19         4.5350   -3.3350   -9.1040 ca        1 KJ8     -0.122000
     37 C20         3.3490   -3.3610   -9.8420 ca        1 KJ8     -0.071000
     38 C21         2.5260   -4.4870   -9.8000 ca        1 KJ8     -0.122000
     39 C22         2.8880   -5.5900   -9.0270 ca        1 KJ8     -0.103000
     40 H1         -0.3390    1.3080   -0.0450 hx        1 KJ8      0.120533
     41 H2          0.4260    2.8800    0.5180 hx        1 KJ8      0.120533
     42 H3          0.8210    2.2160   -1.1470 hx        1 KJ8      0.120533
     43 H5          2.3650    0.3710    2.3880 hx        1 KJ8      0.120533
     44 H6          1.3670    1.9060    2.4860 hx        1 KJ8      0.120533
     45 H7          0.5530    0.3190    2.0730 hx        1 KJ8      0.120533
     46 H8          1.1480   -0.8070    0.0150 hx        1 KJ8      0.131700
     47 H9          1.8520    0.1590   -1.3670 hx        1 KJ8      0.131700
     48 H10         4.1640    0.0070   -0.2620 hc        1 KJ8      0.119700
     49 H11         3.4430   -1.0460    1.0410 hc        1 KJ8      0.119700
     50 H12         5.4780   -2.1710   -0.3850 hn        1 KJ8      0.476300
     51 H13         4.2630   -5.4220   -1.2040 ha        1 KJ8      0.168000
     52 H14         6.1990   -1.8250   -2.7930 ha        1 KJ8      0.161000
     53 H15         7.1350   -3.1800   -4.6380 ha        1 KJ8      0.188000
     54 H16         6.7440   -5.6360   -4.7510 ha        1 KJ8      0.197000
     55 H17         5.3000   -9.4180    0.3060 ha        1 KJ8      0.147000
     56 H18         6.6590   -9.2090    2.3870 ha        1 KJ8      0.164500
     57 H19         8.4770   -7.4980    2.5310 ha        1 KJ8      0.169000
     58 H20         8.9230   -5.9840    0.5970 ha        1 KJ8      0.164500
     59 H21         7.5620   -6.1750   -1.4840 ha        1 KJ8      0.147000
     60 H22         2.8970  -10.9670   -5.6780 h5        1 KJ8      0.118100
     61 H23         4.7660   -5.9840   -5.6350 hn        1 KJ8      0.460300
     62 H24         3.8870   -7.6780   -7.9440 hx        1 KJ8      0.144700
     63 H25         6.2410   -7.0490   -8.7660 h1        1 KJ8      0.086700
     64 H26         6.1360   -8.2240   -7.3550 h1        1 KJ8      0.086700
     65 H27         7.6440   -6.3010   -7.2250 ho        1 KJ8      0.454000
     66 H28         5.8540   -4.4230   -7.7770 ha        1 KJ8      0.145000
     67 H29         5.1920   -2.4510   -9.1520 ha        1 KJ8      0.164000
     68 H30         3.0690   -2.4970  -10.4690 ha        1 KJ8      0.168000
     69 H31         1.5950   -4.5150  -10.3920 ha        1 KJ8      0.164000
     70 H32         2.2430   -6.4840   -9.0200 ha        1 KJ8      0.145000
     71 H321        2.5790    1.7780    0.4230 hn        1 KJ8      0.456800
     72 H282        4.4810   -3.4410    0.0520 hn        1 KJ8      0.476300
     73 H2A         3.1510   -6.1780   -6.0570 hn        1 KJ8      0.460300
@<TRIPOS>BOND
     1    1    2 1   
     2    1   40 1   
     3    1   41 1   
     4    1   42 1   
     5    2    3 1   
     6    2    4 1   
     7    2   71 1   
     8    3   43 1   
     9    3   44 1   
    10    3   45 1   
    11    4    5 1   
    12    4   46 1   
    13    4   47 1   
    14    5    6 1   
    15    5   48 1   
    16    5   49 1   
    17    6    7 2   
    18    6    8 1   
    19    8    9 1   
    20    8   50 1   
    21    8   72 1   
    22    9   10 ar  
    23    9   11 ar  
    24   10   14 ar  
    25   10   51 1   
    26   11   12 ar  
    27   11   52 1   
    28   12   13 ar  
    29   12   53 1   
    30   13   14 ar  
    31   13   54 1   
    32   14   15 1   
    33   15   16 1   
    34   15   17 2   
    35   16   25 ar  
    36   16   29 ar  
    37   17   18 1   
    38   17   24 1   
    39   18   19 ar  
    40   18   23 ar  
    41   19   20 ar  
    42   19   55 1   
    43   20   21 ar  
    44   20   56 1   
    45   21   22 ar  
    46   21   57 1   
    47   22   23 ar  
    48   22   58 1   
    49   23   59 1   
    50   24   25 1   
    51   25   26 ar  
    52   26   27 ar  
    53   27   28 ar  
    54   27   60 1   
    55   28   29 ar  
    56   29   30 1   
    57   30   31 1   
    58   30   61 1   
    59   30   73 1   
    60   31   32 1   
    61   31   34 1   
    62   31   62 1   
    63   32   33 1   
    64   32   63 1   
    65   32   64 1   
    66   33   65 1   
    67   34   35 ar  
    68   34   39 ar  
    69   35   36 ar  
    70   35   66 1   
    71   36   37 ar  
    72   36   67 1   
    73   37   38 ar  
    74   37   68 1   
    75   38   39 ar  
    76   38   69 1   
    77   39   70 1   
@<TRIPOS>SUBSTRUCTURE
     1 KJ8         1 TEMP              0 ****  ****    0 ROOT
