@<TRIPOS>MOLECULE
KJ8
   71    75     1     0     0
SMALL
bcc


@<TRIPOS>ATOM
      1 C35        -0.3390   -0.0900   -1.5640 c3        1 KJ8      0.082600
      2 N32         1.0930    0.2320   -1.8120 nx        1 KJ8     -0.679400
      3 C34         1.5340    1.3520   -0.9410 c3        1 KJ8      0.082600
      4 C31         1.9400   -0.9900   -1.6090 c3        1 KJ8      0.108800
      5 C30         3.3260   -0.8860   -2.2340 c3        1 KJ8     -0.195400
      6 C29         4.0060   -2.2510   -2.0590 c         1 KJ8      0.670100
      7 O33         3.4170   -3.1370   -1.4120 o         1 KJ8     -0.586100
      8 N28         5.2410   -2.3880   -2.6400 ns        1 KJ8     -0.445100
      9 C26         5.9990   -3.5810   -2.6950 ca        1 KJ8      0.032600
     10 C27         5.4100   -4.8490   -2.5430 ca        1 KJ8     -0.127000
     11 C25         7.3870   -3.4860   -2.9470 ca        1 KJ8     -0.159000
     12 C24         8.1510   -4.6430   -3.0480 ca        1 KJ8     -0.106000
     13 C23         7.5680   -5.9010   -2.9010 ca        1 KJ8     -0.114000
     14 C16         6.1940   -6.0060   -2.6480 ca        1 KJ8     -0.009800
     15 C1          5.5650   -7.3040   -2.5020 cc        1 KJ8     -0.056400
     16 C5          4.5490   -7.8440   -3.3830 ca        1 KJ8     -0.370400
     17 C2          5.8000   -8.2590   -1.5250 cd        1 KJ8      0.120900
     18 C10         6.6640   -8.3400   -0.3700 ca        1 KJ8     -0.058800
     19 C11         6.9710   -9.5890    0.1950 ca        1 KJ8     -0.097500
     20 C12         7.8030   -9.6660    1.3090 ca        1 KJ8     -0.134500
     21 C13         8.3350   -8.5050    1.8700 ca        1 KJ8     -0.107000
     22 C14         8.0300   -7.2610    1.3160 ca        1 KJ8     -0.134500
     23 C15         7.1970   -7.1750    0.2020 ca        1 KJ8     -0.097500
     24 O3          4.9870   -9.4050   -1.7230 os        1 KJ8     -0.291400
     25 C4          4.2260   -9.1440   -2.8600 ca        1 KJ8      0.610600
     26 N6          3.3220  -10.0060   -3.3890 nb        1 KJ8     -0.689000
     27 C7          2.7360   -9.5000   -4.5070 ca        1 KJ8      0.678900
     28 N8          2.9410   -8.3080   -5.1240 nb        1 KJ8     -0.777000
     29 C9          3.8520   -7.4430   -4.5640 ca        1 KJ8      0.713200
     30 N           4.0410   -6.1560   -5.0760 nu        1 KJ8     -0.813900
     31 CA          3.5990   -5.8300   -6.4220 c3        1 KJ8      0.248800
     32 C           4.4530   -6.4640   -7.5470 c3        1 KJ8      0.100400
     33 O           5.8230   -6.2040   -7.2850 oh        1 KJ8     -0.618800
     34 C17         3.5270   -4.3320   -6.6080 ca        1 KJ8     -0.084300
     35 C18         4.6880   -3.5550   -6.6760 ca        1 KJ8     -0.110500
     36 C19         4.5990   -2.1790   -6.8820 ca        1 KJ8     -0.146000
     37 C20         3.3510   -1.5700   -7.0180 ca        1 KJ8     -0.141000
     38 C21         2.1910   -2.3400   -6.9430 ca        1 KJ8     -0.146000
     39 C22         2.2760   -3.7170   -6.7340 ca        1 KJ8     -0.110500
     40 H1         -0.4590   -0.4800   -0.5180 hx        1 KJ8      0.106700
     41 H2         -0.6770   -0.8730   -2.2960 hx        1 KJ8      0.106700
     42 H3         -0.9550    0.8400   -1.6930 hx        1 KJ8      0.106700
     43 H5          2.6140    1.5810   -1.1470 hx        1 KJ8      0.106700
     44 H6          1.4130    1.0600    0.1370 hx        1 KJ8      0.106700
     45 H7          0.9080    2.2600   -1.1550 hx        1 KJ8      0.106700
     46 H8          1.3980   -1.8740   -2.0630 hx        1 KJ8      0.128200
     47 H9          2.0340   -1.1810   -0.5000 hx        1 KJ8      0.128200
     48 H10         3.2600   -0.6400   -3.3270 hc        1 KJ8      0.084200
     49 H11         3.9420   -0.0990   -1.7260 hc        1 KJ8      0.084200
     50 H12         5.6480   -1.5970   -3.0860 hn        1 KJ8      0.324500
     51 H13         4.3310   -4.9540   -2.3370 ha        1 KJ8      0.176000
     52 H14         7.8740   -2.5060   -3.0680 ha        1 KJ8      0.135000
     53 H15         9.2320   -4.5630   -3.2470 ha        1 KJ8      0.149000
     54 H16         8.1830   -6.8100   -2.9840 ha        1 KJ8      0.157000
     55 H17         6.5460  -10.5050   -0.2450 ha        1 KJ8      0.147000
     56 H18         8.0410  -10.6480    1.7460 ha        1 KJ8      0.140000
     57 H19         8.9930   -8.5690    2.7500 ha        1 KJ8      0.140000
     58 H20         8.4450   -6.3440    1.7590 ha        1 KJ8      0.140000
     59 H21         6.9550   -6.1930   -0.2320 ha        1 KJ8      0.147000
     60 H22         1.9870  -10.1620   -4.9930 h5        1 KJ8      0.063100
     61 H23         4.9370   -5.7680   -4.8480 hn        1 KJ8      0.428800
     62 H24         2.5530   -6.2480   -6.5590 h1        1 KJ8      0.096700
     63 H25         4.1600   -6.0100   -8.5310 h1        1 KJ8      0.047200
     64 H26         4.2700   -7.5710   -7.5760 h1        1 KJ8      0.047200
     65 H27         6.3290   -6.7030   -7.9380 ho        1 KJ8      0.416000
     66 H28         5.6740   -4.0440   -6.5950 ha        1 KJ8      0.151000
     67 H29         5.5170   -1.5780   -6.9600 ha        1 KJ8      0.130500
     68 H30         3.2840   -0.4900   -7.2110 ha        1 KJ8      0.126000
     69 H31         1.2070   -1.8680   -7.0720 ha        1 KJ8      0.130500
     70 H32         1.3570   -4.3210   -6.6820 ha        1 KJ8      0.151000
     71 H321        1.1920    0.5290   -2.7920 hn        1 KJ8      0.447800
@<TRIPOS>BOND
     1    1    2 1   
     2    1   40 1   
     3    1   41 1   
     4    1   42 1   
     5    2    3 1   
     6    2    4 1   
     7    2   71 1   
     8    3   43 1   
     9    3   44 1   
    10    3   45 1   
    11    4    5 1   
    12    4   46 1   
    13    4   47 1   
    14    5    6 1   
    15    5   48 1   
    16    5   49 1   
    17    6    7 2   
    18    6    8 1   
    19    8    9 1   
    20    8   50 1   
    21    9   10 ar  
    22    9   11 ar  
    23   10   14 ar  
    24   10   51 1   
    25   11   12 ar  
    26   11   52 1   
    27   12   13 ar  
    28   12   53 1   
    29   13   14 ar  
    30   13   54 1   
    31   14   15 1   
    32   15   16 1   
    33   15   17 2   
    34   16   25 ar  
    35   16   29 ar  
    36   17   18 1   
    37   17   24 1   
    38   18   19 ar  
    39   18   23 ar  
    40   19   20 ar  
    41   19   55 1   
    42   20   21 ar  
    43   20   56 1   
    44   21   22 ar  
    45   21   57 1   
    46   22   23 ar  
    47   22   58 1   
    48   23   59 1   
    49   24   25 1   
    50   25   26 ar  
    51   26   27 ar  
    52   27   28 ar  
    53   27   60 1   
    54   28   29 ar  
    55   29   30 1   
    56   30   31 1   
    57   30   61 1   
    58   31   32 1   
    59   31   34 1   
    60   31   62 1   
    61   32   33 1   
    62   32   63 1   
    63   32   64 1   
    64   33   65 1   
    65   34   35 ar  
    66   34   39 ar  
    67   35   36 ar  
    68   35   66 1   
    69   36   37 ar  
    70   36   67 1   
    71   37   38 ar  
    72   37   68 1   
    73   38   39 ar  
    74   38   69 1   
    75   39   70 1   
@<TRIPOS>SUBSTRUCTURE
     1 KJ8         1 TEMP              0 ****  ****    0 ROOT
