@<TRIPOS>MOLECULE
KJQ
   52    56     1     0     0
SMALL
bcc


@<TRIPOS>ATOM
      1 C3          0.5880   -1.4790    0.1510 ca        1 KJQ     -0.383400
      2 C2          1.4010   -0.2850    0.0590 cc        1 KJQ     -0.028400
      3 N8         -1.1770   -3.1280    0.2460 nb        1 KJQ     -0.788000
      4 C9         -0.1920   -4.0490    0.3870 ca        1 KJQ      0.679900
      5 C6         -0.8060   -1.8040    0.1400 ca        1 KJQ      0.735200
      6 C4          1.5040   -2.5750    0.3020 ca        1 KJQ      0.613600
      7 C1          2.7220   -0.6930    0.1480 cd        1 KJQ      0.093900
      8 C23        -4.7930    0.0520    1.4210 ca        1 KJQ     -0.110500
      9 C25        -5.5750    1.1410    1.8070 ca        1 KJQ     -0.135000
     10 C27        -5.5490    2.3200    1.0630 ca        1 KJQ     -0.122000
     11 C26        -4.7420    2.4090   -0.0710 ca        1 KJQ     -0.135000
     12 C24        -3.9610    1.3220   -0.4610 ca        1 KJQ     -0.110500
     13 C22        -3.9880    0.1370    0.2810 ca        1 KJQ     -0.101300
     14 CA         -3.1540   -1.0540   -0.1260 c3        1 KJQ      0.266800
     15 C          -3.5020   -1.4850   -1.5720 c3        1 KJQ      0.101400
     16 O          -2.9150   -0.5740   -2.4870 oh        1 KJQ     -0.611800
     17 N          -1.7460   -0.7870    0.0980 nh        1 KJQ     -0.819900
     18 N7          1.1580   -3.8810    0.4260 nb        1 KJQ     -0.708000
     19 O5          2.8150   -2.1040    0.3000 os        1 KJQ     -0.299400
     20 C10         3.9960   -0.0130    0.1150 ca        1 KJQ     -0.042800
     21 C14         5.1620   -0.6710    0.5400 ca        1 KJQ     -0.101500
     22 C17         6.3880   -0.0130    0.5080 ca        1 KJQ     -0.135000
     23 C21         6.4680    1.3030    0.0520 ca        1 KJQ     -0.117000
     24 C18         5.3140    1.9610   -0.3750 ca        1 KJQ     -0.135000
     25 C15         4.0830    1.3090   -0.3470 ca        1 KJQ     -0.101500
     26 C11         0.8890    1.0650   -0.0810 ca        1 KJQ     -0.045800
     27 C13         0.8540    1.9270    1.0240 ca        1 KJQ     -0.114500
     28 C16         0.3560    3.2220    0.8860 ca        1 KJQ     -0.133000
     29 C20        -0.1080    3.6670   -0.3510 ca        1 KJQ     -0.123000
     30 C19        -0.0790    2.8120   -1.4530 ca        1 KJQ     -0.133000
     31 C12         0.4150    1.5150   -1.3220 ca        1 KJQ     -0.114500
     32 H1         -0.5400   -5.1010    0.4790 h5        1 KJQ      0.054100
     33 H2         -4.8100   -0.8720    2.0180 ha        1 KJQ      0.143500
     34 H3         -6.2090    1.0690    2.7030 ha        1 KJQ      0.132500
     35 H4         -6.1650    3.1780    1.3700 ha        1 KJQ      0.131000
     36 H5         -4.7180    3.3380   -0.6580 ha        1 KJQ      0.132500
     37 H6         -3.3300    1.3850   -1.3630 ha        1 KJQ      0.143500
     38 H7         -3.4500   -1.9310    0.5300 h1        1 KJQ      0.090700
     39 H8         -3.1090   -2.5200   -1.7600 h1        1 KJQ      0.041700
     40 H9         -4.6180   -1.4810   -1.6910 h1        1 KJQ      0.041700
     41 H10        -3.1150   -0.9050   -3.3700 ho        1 KJQ      0.407000
     42 H11        -1.4150    0.0840   -0.2680 hn        1 KJQ      0.445800
     43 H12         5.1000   -1.7120    0.8970 ha        1 KJQ      0.149000
     44 H13         7.2970   -0.5350    0.8440 ha        1 KJQ      0.135500
     45 H14         7.4380    1.8210    0.0280 ha        1 KJQ      0.133000
     46 H15         5.3730    2.9980   -0.7380 ha        1 KJQ      0.135500
     47 H16         3.1740    1.8310   -0.6870 ha        1 KJQ      0.149000
     48 H17         1.2190    1.5770    2.0020 ha        1 KJQ      0.144500
     49 H18         0.3300    3.8920    1.7580 ha        1 KJQ      0.135500
     50 H19        -0.4990    4.6900   -0.4570 ha        1 KJQ      0.134000
     51 H20        -0.4460    3.1600   -2.4300 ha        1 KJQ      0.135500
     52 H21         0.4370    0.8430   -2.1920 ha        1 KJQ      0.144500
@<TRIPOS>BOND
     1    1    2 1   
     2    1    5 ar  
     3    1    6 ar  
     4    2    7 2   
     5    2   26 1   
     6    3    4 ar  
     7    3    5 ar  
     8    4   18 ar  
     9    4   32 1   
    10    5   17 1   
    11    6   18 ar  
    12    6   19 1   
    13    7   19 1   
    14    7   20 1   
    15    8    9 ar  
    16    8   13 ar  
    17    8   33 1   
    18    9   10 ar  
    19    9   34 1   
    20   10   11 ar  
    21   10   35 1   
    22   11   12 ar  
    23   11   36 1   
    24   12   13 ar  
    25   12   37 1   
    26   13   14 1   
    27   14   15 1   
    28   14   17 1   
    29   14   38 1   
    30   15   16 1   
    31   15   39 1   
    32   15   40 1   
    33   16   41 1   
    34   17   42 1   
    35   20   21 ar  
    36   20   25 ar  
    37   21   22 ar  
    38   21   43 1   
    39   22   23 ar  
    40   22   44 1   
    41   23   24 ar  
    42   23   45 1   
    43   24   25 ar  
    44   24   46 1   
    45   25   47 1   
    46   26   27 ar  
    47   26   31 ar  
    48   27   28 ar  
    49   27   48 1   
    50   28   29 ar  
    51   28   49 1   
    52   29   30 ar  
    53   29   50 1   
    54   30   31 ar  
    55   30   51 1   
    56   31   52 1   
@<TRIPOS>SUBSTRUCTURE
     1 KJQ         1 TEMP              0 ****  ****    0 ROOT
