@<TRIPOS>MOLECULE
KJQ
   53    57     1     0     0
SMALL
bcc


@<TRIPOS>ATOM
      1 C3          0.1410    0.3590   -0.1130 ca        1 KJQ     -0.267400
      2 C2          1.5760    0.2000   -0.1050 cc        1 KJQ     -0.110400
      3 N8         -2.1950    0.6910   -0.6360 nb        1 KJQ     -0.695000
      4 C9         -2.4370    0.6270    0.6970 ca        1 KJQ      0.661900
      5 C6         -0.8980    0.5500   -1.0390 ca        1 KJQ      0.519200
      6 C4         -0.2800    0.3030    1.2820 ca        1 KJQ      0.602600
      7 C1          1.9540    0.0360    1.2240 cd        1 KJQ      0.215900
      8 C23        -2.1060    1.3390   -5.4460 ca        1 KJQ     -0.101500
      9 C25        -1.8420    1.7140   -6.7620 ca        1 KJQ     -0.123500
     10 C27        -0.7530    1.1660   -7.4420 ca        1 KJQ     -0.082000
     11 C26         0.0720    0.2370   -6.8060 ca        1 KJQ     -0.123500
     12 C24        -0.1900   -0.1460   -5.4920 ca        1 KJQ     -0.101500
     13 C22        -1.2810    0.4040   -4.8080 ca        1 KJQ     -0.190300
     14 CA         -1.5990   -0.0070   -3.4010 c3        1 KJQ      0.196800
     15 C          -1.6720   -1.5360   -3.2280 c3        1 KJQ      0.119400
     16 O          -0.3560   -2.0630   -3.1860 oh        1 KJQ     -0.633800
     17 N          -0.5740    0.6200   -2.4750 n4        1 KJQ     -0.745700
     18 N7         -1.5460    0.4330    1.7160 nb        1 KJQ     -0.605000
     19 O5          0.8320    0.0980    2.0920 os        1 KJQ     -0.278400
     20 C10         3.2090   -0.1870    1.8970 ca        1 KJQ     -0.103800
     21 C14         3.3070   -0.0120    3.2890 ca        1 KJQ     -0.076500
     22 C17         4.5200   -0.2330    3.9350 ca        1 KJQ     -0.135000
     23 C21         5.6420   -0.6320    3.2050 ca        1 KJQ     -0.077000
     24 C18         5.5480   -0.8120    1.8240 ca        1 KJQ     -0.135000
     25 C15         4.3400   -0.5920    1.1680 ca        1 KJQ     -0.076500
     26 C11         2.4240    0.2530   -1.2790 ca        1 KJQ     -0.078800
     27 C13         3.2610    1.3590   -1.4910 ca        1 KJQ     -0.129500
     28 C16         4.0850    1.4090   -2.6140 ca        1 KJQ     -0.127000
     29 C20         4.0860    0.3570   -3.5310 ca        1 KJQ     -0.109000
     30 C19         3.2550   -0.7450   -3.3250 ca        1 KJQ     -0.127000
     31 C12         2.4250   -0.8000   -2.2070 ca        1 KJQ     -0.129500
     32 H1         -3.5020    0.7480    1.0030 h5        1 KJQ      0.095100
     33 H2         -2.9710    1.7710   -4.9190 ha        1 KJQ      0.147500
     34 H3         -2.4970    2.4440   -7.2660 ha        1 KJQ      0.156000
     35 H4         -0.5480    1.4640   -8.4830 ha        1 KJQ      0.158000
     36 H5          0.9280   -0.2000   -7.3440 ha        1 KJQ      0.156000
     37 H6          0.4500   -0.8940   -4.9950 ha        1 KJQ      0.147500
     38 H7         -2.6170    0.4060   -3.1170 hx        1 KJQ      0.129700
     39 H8         -2.2500   -1.9520   -4.0960 h1        1 KJQ      0.073200
     40 H9         -2.1980   -1.7860   -2.2660 h1        1 KJQ      0.073200
     41 H10        -0.4210   -3.0110   -3.3590 ho        1 KJQ      0.443000
     42 H11         0.3310    0.1330   -2.6210 hn        1 KJQ      0.474300
     43 H12         2.4220    0.2990    3.8670 ha        1 KJQ      0.151000
     44 H13         4.5930   -0.0930    5.0250 ha        1 KJQ      0.152000
     45 H14         6.6000   -0.8080    3.7200 ha        1 KJQ      0.152000
     46 H15         6.4320   -1.1310    1.2500 ha        1 KJQ      0.152000
     47 H16         4.2690   -0.7370    0.0790 ha        1 KJQ      0.151000
     48 H17         3.2750    2.1840   -0.7610 ha        1 KJQ      0.151500
     49 H18         4.7440    2.2770   -2.7700 ha        1 KJQ      0.151500
     50 H19         4.7480    0.3930   -4.4100 ha        1 KJQ      0.153000
     51 H20         3.2630   -1.5820   -4.0410 ha        1 KJQ      0.151500
     52 H21         1.7830   -1.6820   -2.0430 ha        1 KJQ      0.151500
     53 H22        -0.4690    1.6090   -2.7350 hn        1 KJQ      0.474300
@<TRIPOS>BOND
     1    1    2 1   
     2    1    5 ar  
     3    1    6 ar  
     4    2    7 2   
     5    2   26 1   
     6    3    4 ar  
     7    3    5 ar  
     8    4   18 ar  
     9    4   32 1   
    10    5   17 1   
    11    6   18 ar  
    12    6   19 1   
    13    7   19 1   
    14    7   20 1   
    15    8    9 ar  
    16    8   13 ar  
    17    8   33 1   
    18    9   10 ar  
    19    9   34 1   
    20   10   11 ar  
    21   10   35 1   
    22   11   12 ar  
    23   11   36 1   
    24   12   13 ar  
    25   12   37 1   
    26   13   14 1   
    27   14   15 1   
    28   14   17 1   
    29   14   38 1   
    30   15   16 1   
    31   15   39 1   
    32   15   40 1   
    33   16   41 1   
    34   17   42 1   
    35   17   53 1   
    36   20   21 ar  
    37   20   25 ar  
    38   21   22 ar  
    39   21   43 1   
    40   22   23 ar  
    41   22   44 1   
    42   23   24 ar  
    43   23   45 1   
    44   24   25 ar  
    45   24   46 1   
    46   25   47 1   
    47   26   27 ar  
    48   26   31 ar  
    49   27   28 ar  
    50   27   48 1   
    51   28   29 ar  
    52   28   49 1   
    53   29   30 ar  
    54   29   50 1   
    55   30   31 ar  
    56   30   51 1   
    57   31   52 1   
@<TRIPOS>SUBSTRUCTURE
     1 KJQ         1 TEMP              0 ****  ****    0 ROOT
