@<TRIPOS>MOLECULE
KJQ
   52    56     1     0     0
SMALL
bcc


@<TRIPOS>ATOM
      1 C3          0.1230    0.0850   -0.0710 ca        1 KJQ     -0.383400
      2 C2          1.5710    0.0540   -0.0910 cc        1 KJQ     -0.028400
      3 N8         -2.2420    0.1220   -0.5720 nb        1 KJQ     -0.788000
      4 C9         -2.4370    0.1480    0.7700 ca        1 KJQ      0.679900
      5 C6         -0.9400    0.1070   -1.0290 ca        1 KJQ      0.735200
      6 C4         -0.2560    0.1090    1.3130 ca        1 KJQ      0.613600
      7 C1          1.9890    0.0540    1.2300 cd        1 KJQ      0.093900
      8 C23        -1.7540    1.7000   -5.2460 ca        1 KJQ     -0.110500
      9 C25        -1.3260    2.2040   -6.4740 ca        1 KJQ     -0.135000
     10 C27        -0.3160    1.5550   -7.1830 ca        1 KJQ     -0.122000
     11 C26         0.2660    0.3990   -6.6630 ca        1 KJQ     -0.135000
     12 C24        -0.1610   -0.1100   -5.4370 ca        1 KJQ     -0.110500
     13 C22        -1.1770    0.5360   -4.7260 ca        1 KJQ     -0.101300
     14 CA         -1.6590    0.0010   -3.3980 c3        1 KJQ      0.266800
     15 C          -2.1520   -1.4580   -3.5550 c3        1 KJQ      0.101400
     16 O          -1.0320   -2.3220   -3.6650 oh        1 KJQ     -0.611800
     17 N          -0.6440    0.1860   -2.3800 nu        1 KJQ     -0.819900
     18 N7         -1.5280    0.1430    1.7830 nb        1 KJQ     -0.708000
     19 O5          0.8800    0.0890    2.1190 os        1 KJQ     -0.299400
     20 C10         3.2770    0.0210    1.8830 ca        1 KJQ     -0.042800
     21 C14         3.3870    0.3420    3.2470 ca        1 KJQ     -0.101500
     22 C17         4.6290    0.3100    3.8750 ca        1 KJQ     -0.135000
     23 C21         5.7720   -0.0410    3.1540 ca        1 KJQ     -0.117000
     24 C18         5.6680   -0.3630    1.8020 ca        1 KJQ     -0.135000
     25 C15         4.4280   -0.3350    1.1660 ca        1 KJQ     -0.101500
     26 C11         2.3880    0.0440   -1.2890 ca        1 KJQ     -0.045800
     27 C13         3.0280    1.2150   -1.7190 ca        1 KJQ     -0.114500
     28 C16         3.8090    1.2020   -2.8740 ca        1 KJQ     -0.133000
     29 C20         3.9600    0.0250   -3.6060 ca        1 KJQ     -0.123000
     30 C19         3.3230   -1.1420   -3.1840 ca        1 KJQ     -0.133000
     31 C12         2.5380   -1.1360   -2.0330 ca        1 KJQ     -0.114500
     32 H1         -3.5010    0.1700    1.0900 h5        1 KJQ      0.054100
     33 H2         -2.5450    2.2220   -4.6860 ha        1 KJQ      0.143500
     34 H3         -1.7850    3.1170   -6.8800 ha        1 KJQ      0.132500
     35 H4          0.0220    1.9550   -8.1500 ha        1 KJQ      0.131000
     36 H5          1.0640   -0.1140   -7.2200 ha        1 KJQ      0.132500
     37 H6          0.2880   -1.0300   -5.0290 ha        1 KJQ      0.143500
     38 H7         -2.5740    0.5980   -3.0900 h1        1 KJQ      0.090700
     39 H8         -2.7830   -1.5290   -4.4810 h1        1 KJQ      0.041700
     40 H9         -2.7670   -1.7450   -2.6600 h1        1 KJQ      0.041700
     41 H10        -1.3830   -3.2190   -3.7120 ho        1 KJQ      0.407000
     42 H11         0.2740   -0.1230   -2.6330 hn        1 KJQ      0.445800
     43 H12         2.4840    0.6150    3.8160 ha        1 KJQ      0.149000
     44 H13         4.7080    0.5630    4.9420 ha        1 KJQ      0.135500
     45 H14         6.7520   -0.0650    3.6530 ha        1 KJQ      0.133000
     46 H15         6.5660   -0.6430    1.2310 ha        1 KJQ      0.135500
     47 H16         4.3490   -0.5920    0.0970 ha        1 KJQ      0.149000
     48 H17         2.9090    2.1450   -1.1430 ha        1 KJQ      0.144500
     49 H18         4.3060    2.1260   -3.2070 ha        1 KJQ      0.135500
     50 H19         4.5780    0.0180   -4.5160 ha        1 KJQ      0.134000
     51 H20         3.4390   -2.0720   -3.7610 ha        1 KJQ      0.135500
     52 H21         2.0360   -2.0580   -1.7020 ha        1 KJQ      0.144500
@<TRIPOS>BOND
     1    1    2 1   
     2    1    5 ar  
     3    1    6 ar  
     4    2    7 2   
     5    2   26 1   
     6    3    4 ar  
     7    3    5 ar  
     8    4   18 ar  
     9    4   32 1   
    10    5   17 1   
    11    6   18 ar  
    12    6   19 1   
    13    7   19 1   
    14    7   20 1   
    15    8    9 ar  
    16    8   13 ar  
    17    8   33 1   
    18    9   10 ar  
    19    9   34 1   
    20   10   11 ar  
    21   10   35 1   
    22   11   12 ar  
    23   11   36 1   
    24   12   13 ar  
    25   12   37 1   
    26   13   14 1   
    27   14   15 1   
    28   14   17 1   
    29   14   38 1   
    30   15   16 1   
    31   15   39 1   
    32   15   40 1   
    33   16   41 1   
    34   17   42 1   
    35   20   21 ar  
    36   20   25 ar  
    37   21   22 ar  
    38   21   43 1   
    39   22   23 ar  
    40   22   44 1   
    41   23   24 ar  
    42   23   45 1   
    43   24   25 ar  
    44   24   46 1   
    45   25   47 1   
    46   26   27 ar  
    47   26   31 ar  
    48   27   28 ar  
    49   27   48 1   
    50   28   29 ar  
    51   28   49 1   
    52   29   30 ar  
    53   29   50 1   
    54   30   31 ar  
    55   30   51 1   
    56   31   52 1   
@<TRIPOS>SUBSTRUCTURE
     1 KJQ         1 TEMP              0 ****  ****    0 ROOT
