@<TRIPOS>MOLECULE
KJQ
   52    40     1     0     0
SMALL
bcc


@<TRIPOS>ATOM
      1 C3         -0.7420    0.0540    1.0830 c1        1 KJQ     -0.065000
      2 C2          0.6500    0.1570    1.0790 c1        1 KJQ     -0.059000
      3 N8         -2.9950   -0.0340    0.3470 n1        1 KJQ     -0.260000
      4 C9         -3.4060   -0.1410    1.6540 c1        1 KJQ      0.017000
      5 C6         -1.6810    0.0630    0.0580 c1        1 KJQ      0.215000
      6 C4         -1.1510   -0.0530    2.3790 c1        1 KJQ     -0.065000
      7 C1          1.0850    0.1110    2.3900 c1        1 KJQ      0.044000
      8 C23        -1.9010   -1.4240   -4.3570 c1        1 KJQ     -0.121000
      9 C25        -2.2910   -2.3600   -5.3090 c1        1 KJQ     -0.126600
     10 C27        -3.5620   -2.9250   -5.2500 c1        1 KJQ     -0.126600
     11 C26        -4.4430   -2.5530   -4.2380 c1        1 KJQ     -0.126600
     12 C24        -4.0530   -1.6170   -3.2860 c1        1 KJQ     -0.126600
     13 C22        -2.7820   -1.0520   -3.3450 c1        1 KJQ     -0.132000
     14 CA         -2.3740    0.0060   -2.3330 c3        1 KJQ      0.026000
     15 C          -3.3120    1.1960   -2.4360 c3        1 KJQ     -0.012000
     16 O          -3.1440    1.8240   -3.6990 oh        1 KJQ     -0.325000
     17 N          -2.4420   -0.5410   -1.0200 n2        1 KJQ     -0.276000
     18 N7         -2.4810   -0.1510    2.6670 n1        1 KJQ     -0.179000
     19 O5         -0.0140   -0.0170    3.1960 o         1 KJQ     -0.083000
     20 C10         2.2660    0.0780    3.3670 c1        1 KJQ     -0.033000
     21 C14         2.9940   -1.0930    3.5340 c2        1 KJQ     -0.105000
     22 C17         4.1320   -1.0970    4.3380 c1        1 KJQ     -0.135000
     23 C21         4.5390    0.0690    4.9710 c1        1 KJQ     -0.126600
     24 C18         3.8100    1.2440    4.8040 c1        1 KJQ     -0.126600
     25 C15         2.6750    1.2490    4.0030 c1        1 KJQ     -0.096000
     26 C11         1.9980    0.8000    0.7390 c1        1 KJQ     -0.036000
     27 C13         3.0850   -0.0020    0.4050 c1        1 KJQ     -0.126600
     28 C16         4.3390    0.5710    0.2060 c1        1 KJQ     -0.126600
     29 C20         4.5050    1.9450    0.3410 c1        1 KJQ     -0.126600
     30 C19         3.4170    2.7490    0.6750 c1        1 KJQ     -0.126600
     31 C12         2.1650    2.1770    0.8740 c1        1 KJQ     -0.107000
     32 H1         -4.3630   -0.2110    1.8630 ha        1 KJQ      0.193000
     33 H2         -1.0050   -1.0260   -4.3980 ha        1 KJQ      0.133000
     34 H3         -1.6690   -2.6230   -6.0240 ha        1 KJQ      0.138100
     35 H4         -3.8370   -3.5870   -5.9230 ha        1 KJQ      0.138100
     36 H5         -5.3380   -2.9510   -4.1960 ha        1 KJQ      0.138100
     37 H6         -4.6730   -1.3550   -2.5740 ha        1 KJQ      0.138100
     38 H7         -1.4540    0.2970   -2.5180 h1        1 KJQ      0.113000
     39 H8         -4.2430    0.8890   -2.3440 h1        1 KJQ      0.109000
     40 H9         -3.1070    1.8370   -1.7210 h1        1 KJQ      0.109000
     41 H10        -3.6100    2.5880   -3.7170 ho        1 KJQ      0.199000
     42 H11        -2.9360   -1.3010   -0.8640 hn        1 KJQ      0.236000
     43 H12         2.7060   -1.9180    3.0860 ha        1 KJQ      0.145000
     44 H13         4.6460   -1.9260    4.4560 ha        1 KJQ      0.135000
     45 H14         5.3410    0.0660    5.5380 ha        1 KJQ      0.138100
     46 H15         4.0980    2.0690    5.2520 ha        1 KJQ      0.138100
     47 H16         2.1620    2.0770    3.8840 ha        1 KJQ      0.152000
     48 H17         2.9680   -0.9720    0.3100 ha        1 KJQ      0.138100
     49 H18         5.1060    0.0050   -0.0300 ha        1 KJQ      0.138100
     50 H19         5.3880    2.3480    0.2000 ha        1 KJQ      0.138100
     51 H20         3.5340    3.7180    0.7700 ha        1 KJQ      0.138100
     52 H21         1.4000    2.7430    1.1100 ha        1 KJQ      0.146000
@<TRIPOS>BOND
     1    1    6 1   
     2    2    7 1   
     3    3    5 1   
     4    4   18 1   
     5    4   32 1   
     6    7   19 1   
     7    8   13 1   
     8    8   33 1   
     9    9   10 1   
    10    9   34 1   
    11   10   35 1   
    12   11   12 1   
    13   11   36 1   
    14   12   37 1   
    15   13   14 1   
    16   14   15 1   
    17   14   17 1   
    18   14   38 1   
    19   15   16 1   
    20   15   39 1   
    21   15   40 1   
    22   16   41 1   
    23   17   42 1   
    24   20   21 1   
    25   20   25 1   
    26   21   22 1   
    27   21   43 1   
    28   22   44 1   
    29   23   24 1   
    30   23   45 1   
    31   24   46 1   
    32   25   47 1   
    33   26   31 1   
    34   27   28 1   
    35   27   48 1   
    36   28   49 1   
    37   29   30 1   
    38   29   50 1   
    39   30   51 1   
    40   31   52 1   
@<TRIPOS>SUBSTRUCTURE
     1 KJQ         1 TEMP              0 ****  ****    0 ROOT
