@<TRIPOS>MOLECULE
KJR
   59    63     1     0     0
SMALL
bcc


@<TRIPOS>ATOM
      1 C24        -1.8320    5.1780    2.6390 c3        1 KJR     -0.179100
      2 C23        -1.6010    3.8230    2.0080 c         1 KJR      0.665100
      3 O25        -1.8490    2.7750    2.6290 o         1 KJR     -0.581100
      4 N22        -1.1080    3.8380    0.7080 n         1 KJR     -0.477100
      5 C20        -0.7810    2.7360   -0.0980 ca        1 KJR      0.068600
      6 C21        -1.1300    1.4100    0.2360 ca        1 KJR     -0.138000
      7 C19        -0.0830    2.9720   -1.3080 ca        1 KJR     -0.182000
      8 C18         0.2540    1.9120   -2.1410 ca        1 KJR     -0.106000
      9 C17        -0.0860    0.6040   -1.8050 ca        1 KJR     -0.144000
     10 C16        -0.7840    0.3550   -0.6170 ca        1 KJR     -0.022800
     11 C15        -1.1470   -1.0050   -0.2610 cc        1 KJR     -0.028400
     12 C1         -0.2190   -2.0300    0.1710 ca        1 KJR     -0.379400
     13 C14        -2.4090   -1.5770   -0.2470 cd        1 KJR      0.097900
     14 C26        -3.7360   -1.1120   -0.5800 ca        1 KJR     -0.041800
     15 C27        -3.9100    0.0470   -1.3510 ca        1 KJR     -0.099000
     16 C28        -5.1920    0.4880   -1.6700 ca        1 KJR     -0.135500
     17 C29        -6.3090   -0.2190   -1.2290 ca        1 KJR     -0.117000
     18 C30        -6.1430   -1.3740   -0.4640 ca        1 KJR     -0.135500
     19 C31        -4.8650   -1.8230   -0.1400 ca        1 KJR     -0.099000
     20 O13        -2.3550   -2.9300    0.1850 os        1 KJR     -0.298400
     21 C2         -1.0120   -3.1960    0.4420 ca        1 KJR      0.613600
     22 N3         -0.5390   -4.3850    0.8900 nb        1 KJR     -0.707000
     23 C4          0.8100   -4.3550    1.0670 ca        1 KJR      0.678900
     24 N5          1.6890   -3.3430    0.8620 nb        1 KJR     -0.787000
     25 C6          1.1910   -2.1480    0.3850 ca        1 KJR      0.731200
     26 N           2.0290   -1.1010    0.0340 nh        1 KJR     -0.818900
     27 CA          3.4200   -1.0690    0.4500 c3        1 KJR      0.261800
     28 C           3.6260   -0.7860    1.9580 c3        1 KJR      0.101400
     29 O           2.8780    0.3610    2.3240 oh        1 KJR     -0.609800
     30 C7          4.1960   -0.0750   -0.3820 ca        1 KJR     -0.098300
     31 C8          3.9940    1.3010   -0.2370 ca        1 KJR     -0.109500
     32 C9          4.7260    2.2000   -1.0110 ca        1 KJR     -0.136500
     33 C10         5.6590    1.7310   -1.9360 ca        1 KJR     -0.123000
     34 C11         5.8580    0.3590   -2.0870 ca        1 KJR     -0.136500
     35 C12         5.1260   -0.5440   -1.3160 ca        1 KJR     -0.109500
     36 H1         -0.8750    5.7500    2.7040 hc        1 KJR      0.069033
     37 H2         -2.5730    5.7660    2.0470 hc        1 KJR      0.069033
     38 H3         -2.2320    5.0240    3.6710 hc        1 KJR      0.069033
     39 H4         -0.9000    4.7290    0.3160 hn        1 KJR      0.314500
     40 H5         -1.6730    1.1890    1.1700 ha        1 KJR      0.183000
     41 H6          0.1990    3.9940   -1.6010 ha        1 KJR      0.130000
     42 H7          0.7990    2.1100   -3.0770 ha        1 KJR      0.138000
     43 H8          0.1910   -0.2300   -2.4670 ha        1 KJR      0.149000
     44 H9         -3.0280    0.6080   -1.7000 ha        1 KJR      0.148500
     45 H10        -5.3190    1.3990   -2.2740 ha        1 KJR      0.134000
     46 H11        -7.3200    0.1330   -1.4830 ha        1 KJR      0.132000
     47 H12        -7.0230   -1.9350   -0.1150 ha        1 KJR      0.134000
     48 H13        -4.7330   -2.7360    0.4610 ha        1 KJR      0.148500
     49 H14         1.2600   -5.3000    1.4410 h5        1 KJR      0.054100
     50 H15         1.5850   -0.2050   -0.0190 hn        1 KJR      0.443800
     51 H16         3.8620   -2.0980    0.2690 h1        1 KJR      0.090700
     52 H17         3.2910   -1.6770    2.5540 h1        1 KJR      0.042200
     53 H18         4.7170   -0.5990    2.1470 h1        1 KJR      0.042200
     54 H19         2.8380    0.3700    3.2880 ho        1 KJR      0.408000
     55 H20         3.2660    1.6690    0.5040 ha        1 KJR      0.145000
     56 H21         4.5670    3.2810   -0.8900 ha        1 KJR      0.131000
     57 H22         6.2360    2.4410   -2.5460 ha        1 KJR      0.130000
     58 H23         6.5910   -0.0140   -2.8170 ha        1 KJR      0.131000
     59 H24         5.2820   -1.6260   -1.4460 ha        1 KJR      0.145000
@<TRIPOS>BOND
     1    1    2 1   
     2    1   36 1   
     3    1   37 1   
     4    1   38 1   
     5    2    3 2   
     6    2    4 1   
     7    4    5 1   
     8    4   39 1   
     9    5    6 ar  
    10    5    7 ar  
    11    6   10 ar  
    12    6   40 1   
    13    7    8 ar  
    14    7   41 1   
    15    8    9 ar  
    16    8   42 1   
    17    9   10 ar  
    18    9   43 1   
    19   10   11 1   
    20   11   12 1   
    21   11   13 2   
    22   12   21 ar  
    23   12   25 ar  
    24   13   14 1   
    25   13   20 1   
    26   14   15 ar  
    27   14   19 ar  
    28   15   16 ar  
    29   15   44 1   
    30   16   17 ar  
    31   16   45 1   
    32   17   18 ar  
    33   17   46 1   
    34   18   19 ar  
    35   18   47 1   
    36   19   48 1   
    37   20   21 1   
    38   21   22 ar  
    39   22   23 ar  
    40   23   24 ar  
    41   23   49 1   
    42   24   25 ar  
    43   25   26 1   
    44   26   27 1   
    45   26   50 1   
    46   27   28 1   
    47   27   30 1   
    48   27   51 1   
    49   28   29 1   
    50   28   52 1   
    51   28   53 1   
    52   29   54 1   
    53   30   31 ar  
    54   30   35 ar  
    55   31   32 ar  
    56   31   55 1   
    57   32   33 ar  
    58   32   56 1   
    59   33   34 ar  
    60   33   57 1   
    61   34   35 ar  
    62   34   58 1   
    63   35   59 1   
@<TRIPOS>SUBSTRUCTURE
     1 KJR         1 TEMP              0 ****  ****    0 ROOT
