@<TRIPOS>MOLECULE
KJR
   59    49     1     0     0
SMALL
bcc


@<TRIPOS>ATOM
      1 C24        -6.3610    0.0580   -3.0250 c3        1 KJR     -0.247000
      2 C23        -4.8600    0.2600   -3.0040 c1        1 KJR      0.309000
      3 O25        -4.3000    0.7510   -3.9630 o         1 KJR     -0.351000
      4 N22        -4.0980   -0.1890   -1.8910 n2        1 KJR     -0.328000
      5 C20        -2.6790   -0.0630   -1.9010 c1        1 KJR      0.074000
      6 C21        -1.9220   -0.6710   -0.9100 c1        1 KJR     -0.177000
      7 C19        -2.0520    0.6240   -2.9290 c1        1 KJR     -0.125000
      8 C18        -0.6700    0.7030   -2.9670 c1        1 KJR     -0.125000
      9 C17         0.0880    0.0950   -1.9760 c1        1 KJR     -0.144000
     10 C16        -0.5390   -0.5920   -0.9480 c1        1 KJR     -0.008000
     11 C15         0.2900   -1.2840    0.1170 c1        1 KJR     -0.057000
     12 C1          0.9350   -1.0750    1.3310 c1        1 KJR     -0.251000
     13 C14         0.3580   -2.6270   -0.1750 c1        1 KJR      0.041000
     14 C26        -0.0320   -3.7630   -1.0960 c1        1 KJR     -0.031000
     15 C27         0.5760   -3.8890   -2.3360 c2        1 KJR     -0.107000
     16 C28         0.1550   -4.8720   -3.2180 c1        1 KJR     -0.135000
     17 C29        -0.8730   -5.7290   -2.8600 c1        1 KJR     -0.125000
     18 C30        -1.4810   -5.6040   -1.6200 c1        1 KJR     -0.125000
     19 C31        -1.0610   -4.6210   -0.7380 c1        1 KJR     -0.097000
     20 O13         1.0330   -3.2460    0.8380 os        1 KJR     -0.085000
     21 C2          1.3910   -2.2750    1.7750 c1        1 KJR      0.118000
     22 N3          2.0830   -2.3490    2.9430 n1        1 KJR     -0.185000
     23 C4          2.3200   -1.2170    3.6700 c1        1 KJR      0.020000
     24 N5          1.8610   -0.0060    3.2240 n1        1 KJR     -0.252000
     25 C6          1.1760    0.0700    2.0690 c1        1 KJR      0.228000
     26 N           0.8780    1.4360    1.8160 n3        1 KJR     -0.282000
     27 CA          1.2650    2.4330    2.7510 c3        1 KJR      0.067000
     28 C           0.2270    3.5300    2.7770 c3        1 KJR     -0.028000
     29 O           0.0520    3.9810    4.1020 oh        1 KJR     -0.322000
     30 C7          2.6020    3.0130    2.3440 c1        1 KJR     -0.117000
     31 C8          3.6980    2.8800    3.1810 c1        1 KJR     -0.125000
     32 C9          4.9130    3.4480    2.8280 c1        1 KJR     -0.125000
     33 C10         5.0310    4.1470    1.6380 c1        1 KJR     -0.125000
     34 C11         3.9350    4.2800    0.8010 c1        1 KJR     -0.125000
     35 C12         2.7200    3.7120    1.1540 c1        1 KJR     -0.122000
     36 H1         -6.6270   -0.3270   -3.8860 hc        1 KJR      0.109667
     37 H2         -6.6190   -0.5500   -2.3010 hc        1 KJR      0.109667
     38 H3         -6.8080    0.9220   -2.9010 hc        1 KJR      0.109667
     39 H4         -4.5200   -0.5340   -1.1590 hn        1 KJR      0.234000
     40 H5         -2.3630   -1.1540   -0.1860 ha        1 KJR      0.148000
     41 H6         -2.5830    1.0500   -3.6250 ha        1 KJR      0.141000
     42 H7         -0.2280    1.1860   -3.6910 ha        1 KJR      0.141000
     43 H8          1.0630    0.1510   -2.0030 ha        1 KJR      0.147000
     44 H9          1.3010   -3.2850   -2.5880 ha        1 KJR      0.146000
     45 H10         0.5830   -4.9600   -4.0910 ha        1 KJR      0.135000
     46 H11        -1.1700   -6.4220   -3.4820 ha        1 KJR      0.141000
     47 H12        -2.2060   -6.2080   -1.3690 ha        1 KJR      0.141000
     48 H13        -1.4880   -4.5340    0.1340 ha        1 KJR      0.152000
     49 H14         2.8170   -1.2710    4.5080 ha        1 KJR      0.192000
     50 H15         0.4230    1.6710    1.0610 hn        1 KJR      0.237000
     51 H16         1.3400    2.0340    3.6400 h1        1 KJR      0.142000
     52 H17        -0.6240    3.1830    2.4350 h1        1 KJR      0.076000
     53 H18         0.5250    4.2750    2.2140 h1        1 KJR      0.076000
     54 H19        -0.6240    4.5590    4.1320 ho        1 KJR      0.199000
     55 H20         3.6150    2.3870    4.0200 ha        1 KJR      0.141000
     56 H21         5.6860    3.3540    3.4180 ha        1 KJR      0.141000
     57 H22         5.8860    4.5470    1.3890 ha        1 KJR      0.141000
     58 H23         4.0180    4.7730   -0.0380 ha        1 KJR      0.141000
     59 H24         1.9470    3.8060    0.5640 ha        1 KJR      0.129000
@<TRIPOS>BOND
     1    1    2 1   
     2    1   36 1   
     3    1   37 1   
     4    1   38 1   
     5    2    3 1   
     6    4    5 1   
     7    4   39 1   
     8    5    6 1   
     9    6   40 1   
    10    7    8 1   
    11    7   41 1   
    12    8   42 1   
    13    9   10 1   
    14    9   43 1   
    15   11   12 1   
    16   11   13 1   
    17   12   25 1   
    18   13   20 1   
    19   14   15 1   
    20   14   19 1   
    21   15   16 1   
    22   15   44 1   
    23   16   45 1   
    24   17   18 1   
    25   17   46 1   
    26   18   47 1   
    27   19   48 1   
    28   20   21 1   
    29   21   22 1   
    30   23   24 1   
    31   23   49 1   
    32   25   26 1   
    33   26   27 1   
    34   26   50 1   
    35   27   28 1   
    36   27   30 1   
    37   27   51 1   
    38   28   29 1   
    39   28   52 1   
    40   28   53 1   
    41   29   54 1   
    42   30   35 1   
    43   31   32 1   
    44   31   55 1   
    45   32   56 1   
    46   33   34 1   
    47   33   57 1   
    48   34   58 1   
    49   35   59 1   
@<TRIPOS>SUBSTRUCTURE
     1 KJR         1 TEMP              0 ****  ****    0 ROOT
