@<TRIPOS>MOLECULE
KJR
   61    65     1     0     0
SMALL
bcc


@<TRIPOS>ATOM
      1 C24         0.7740    2.1600   -1.8320 c3        1 KJR     -0.193100
      2 C23         1.9780    2.2190   -0.9600 c         1 KJR      0.575100
      3 O25         2.7350    3.1560   -0.7620 o         1 KJR     -0.426100
      4 N22         2.2880    0.9540   -0.1630 n4        1 KJR     -0.558200
      5 C20         3.4550    0.2340   -0.6830 ca        1 KJR     -0.041400
      6 C21         4.4810   -0.1290    0.2080 ca        1 KJR     -0.118000
      7 C19         3.5360   -0.0980   -2.0460 ca        1 KJR     -0.099000
      8 C18         4.6590   -0.7810   -2.5090 ca        1 KJR     -0.094000
      9 C17         5.6840   -1.1430   -1.6350 ca        1 KJR     -0.062000
     10 C16         5.5980   -0.8270   -0.2680 ca        1 KJR     -0.010800
     11 C15         6.6340   -1.2660    0.6430 cc        1 KJR     -0.180400
     12 C1          7.5460   -0.4380    1.3980 ca        1 KJR     -0.263400
     13 C14         6.9720   -2.5960    0.9120 cd        1 KJR      0.257900
     14 C26         6.4570   -3.8780    0.5030 ca        1 KJR     -0.127800
     15 C27         5.1430   -4.0040    0.0170 ca        1 KJR     -0.072000
     16 C28         4.6550   -5.2500   -0.3590 ca        1 KJR     -0.130000
     17 C29         5.4670   -6.3840   -0.2560 ca        1 KJR     -0.057000
     18 C30         6.7700   -6.2680    0.2300 ca        1 KJR     -0.130000
     19 C31         7.2660   -5.0240    0.6140 ca        1 KJR     -0.072000
     20 O13         8.0680   -2.6770    1.7950 os        1 KJR     -0.263400
     21 C2          8.4370   -1.3670    2.0920 ca        1 KJR      0.605600
     22 N3          9.4640   -1.0310    2.8880 nb        1 KJR     -0.584000
     23 C4          9.6210    0.3230    3.0080 ca        1 KJR      0.679900
     24 N5          8.8780    1.3000    2.4340 nb        1 KJR     -0.684000
     25 C6          7.8390    0.9160    1.6330 ca        1 KJR      0.505200
     26 N           7.0530    1.9830    0.9820 n4        1 KJR     -0.747700
     27 CA          6.5570    3.0700    1.9230 c3        1 KJR      0.159800
     28 C           5.1620    2.7290    2.4850 c3        1 KJR      0.115400
     29 O           4.2080    2.5310    1.4610 oh        1 KJR     -0.664800
     30 C7          6.5840    4.3930    1.2180 ca        1 KJR     -0.194300
     31 C8          5.9180    4.5940    0.0010 ca        1 KJR     -0.114000
     32 C9          5.9630    5.8380   -0.6220 ca        1 KJR     -0.109000
     33 C10         6.6700    6.8920   -0.0340 ca        1 KJR     -0.074000
     34 C11         7.3340    6.6950    1.1760 ca        1 KJR     -0.109000
     35 C12         7.3000    5.4470    1.8000 ca        1 KJR     -0.114000
     36 H1          0.7400    1.2250   -2.4450 hc        1 KJR      0.123700
     37 H2          0.7880    3.0470   -2.5230 hc        1 KJR      0.123700
     38 H3         -0.1550    2.2210   -1.2030 hc        1 KJR      0.123700
     39 H4          1.4760    0.3250   -0.1800 hn        1 KJR      0.473300
     40 H5          4.4120    0.1160    1.2830 ha        1 KJR      0.165000
     41 H6          2.7330    0.1670   -2.7540 ha        1 KJR      0.162000
     42 H7          4.7320   -1.0440   -3.5800 ha        1 KJR      0.188000
     43 H8          6.5620   -1.6950   -2.0160 ha        1 KJR      0.185000
     44 H9          4.4990   -3.1150   -0.0540 ha        1 KJR      0.142500
     45 H10         3.6250   -5.3470   -0.7340 ha        1 KJR      0.161500
     46 H11         5.0740   -7.3700   -0.5550 ha        1 KJR      0.166000
     47 H12         7.4090   -7.1620    0.3160 ha        1 KJR      0.161500
     48 H13         8.2940   -4.9380    1.0060 ha        1 KJR      0.142500
     49 H14        10.4670    0.6620    3.6550 h5        1 KJR      0.112100
     50 H15         6.2430    1.5510    0.5180 hn        1 KJR      0.466300
     51 H16         7.2640    3.1190    2.8100 hx        1 KJR      0.146700
     52 H17         5.1850    1.7600    3.0570 h1        1 KJR      0.096200
     53 H18         4.8590    3.5650    3.1710 h1        1 KJR      0.096200
     54 H19         3.9620    3.4050    1.1170 ho        1 KJR      0.446000
     55 H20         5.3490    3.7770   -0.4700 ha        1 KJR      0.136000
     56 H21         5.4420    5.9950   -1.5790 ha        1 KJR      0.165500
     57 H22         6.7020    7.8770   -0.5290 ha        1 KJR      0.171000
     58 H23         7.8930    7.5240    1.6420 ha        1 KJR      0.165500
     59 H24         7.8370    5.3010    2.7520 ha        1 KJR      0.136000
     60 H222        2.4880    1.2270    0.8150 hn        1 KJR      0.473300
     61 H25         7.6500    2.4330    0.2680 hn        1 KJR      0.466300
@<TRIPOS>BOND
     1    1    2 1   
     2    1   36 1   
     3    1   37 1   
     4    1   38 1   
     5    2    3 2   
     6    2    4 1   
     7    4    5 1   
     8    4   39 1   
     9    4   60 1   
    10    5    6 ar  
    11    5    7 ar  
    12    6   10 ar  
    13    6   40 1   
    14    7    8 ar  
    15    7   41 1   
    16    8    9 ar  
    17    8   42 1   
    18    9   10 ar  
    19    9   43 1   
    20   10   11 1   
    21   11   12 1   
    22   11   13 2   
    23   12   21 ar  
    24   12   25 ar  
    25   13   14 1   
    26   13   20 1   
    27   14   15 ar  
    28   14   19 ar  
    29   15   16 ar  
    30   15   44 1   
    31   16   17 ar  
    32   16   45 1   
    33   17   18 ar  
    34   17   46 1   
    35   18   19 ar  
    36   18   47 1   
    37   19   48 1   
    38   20   21 1   
    39   21   22 ar  
    40   22   23 ar  
    41   23   24 ar  
    42   23   49 1   
    43   24   25 ar  
    44   25   26 1   
    45   26   27 1   
    46   26   50 1   
    47   26   61 1   
    48   27   28 1   
    49   27   30 1   
    50   27   51 1   
    51   28   29 1   
    52   28   52 1   
    53   28   53 1   
    54   29   54 1   
    55   30   31 ar  
    56   30   35 ar  
    57   31   32 ar  
    58   31   55 1   
    59   32   33 ar  
    60   32   56 1   
    61   33   34 ar  
    62   33   57 1   
    63   34   35 ar  
    64   34   58 1   
    65   35   59 1   
@<TRIPOS>SUBSTRUCTURE
     1 KJR         1 TEMP              0 ****  ****    0 ROOT
