@<TRIPOS>MOLECULE
KJR
   59    63     1     0     0
SMALL
bcc


@<TRIPOS>ATOM
      1 C24        -0.1910    0.1250   -0.4210 c3        1 KJR     -0.179100
      2 C23         1.2850   -0.0440   -0.1350 c         1 KJR      0.665100
      3 O25         1.6780   -0.5060    0.9500 o         1 KJR     -0.581100
      4 N22         2.1470    0.3410   -1.1550 ns        1 KJR     -0.477100
      5 C20         3.5510    0.3180   -1.1460 ca        1 KJR      0.068600
      6 C21         4.3010   -0.3330   -0.1450 ca        1 KJR     -0.138000
      7 C19         4.2400    0.9640   -2.2020 ca        1 KJR     -0.182000
      8 C18         5.6290    0.9590   -2.2380 ca        1 KJR     -0.106000
      9 C17         6.3670    0.3210   -1.2440 ca        1 KJR     -0.144000
     10 C16         5.7000   -0.3300   -0.1990 ca        1 KJR     -0.022800
     11 C15         6.4620   -1.0020    0.8390 cc        1 KJR     -0.028400
     12 C1          7.2370   -0.3380    1.8660 ca        1 KJR     -0.379400
     13 C14         6.5850   -2.3640    1.0630 cd        1 KJR      0.097900
     14 C26         6.0880   -3.5490    0.4020 ca        1 KJR     -0.041800
     15 C27         5.5900   -3.4750   -0.9080 ca        1 KJR     -0.099000
     16 C28         5.1150   -4.6210   -1.5400 ca        1 KJR     -0.135500
     17 C29         5.1320   -5.8490   -0.8780 ca        1 KJR     -0.117000
     18 C30         5.6290   -5.9290    0.4230 ca        1 KJR     -0.135500
     19 C31         6.1060   -4.7880    1.0630 ca        1 KJR     -0.099000
     20 O13         7.4000   -2.6260    2.1970 os        1 KJR     -0.298400
     21 C2          7.7910   -1.3810    2.6830 ca        1 KJR      0.613600
     22 N3          8.5730   -1.1960    3.7760 nb        1 KJR     -0.707000
     23 C4          8.7810    0.1250    4.0270 ca        1 KJR      0.678900
     24 N5          8.3310    1.2160    3.3600 nb        1 KJR     -0.787000
     25 C6          7.5550    1.0060    2.2390 ca        1 KJR      0.732200
     26 N           7.1520    2.0570    1.4280 nu        1 KJR     -0.818900
     27 CA          7.2300    3.4360    1.8770 c3        1 KJR      0.261800
     28 C           6.1890    3.8130    2.9580 c3        1 KJR      0.101400
     29 O           4.9000    3.4100    2.5260 oh        1 KJR     -0.609800
     30 C7          7.1320    4.3790    0.7010 ca        1 KJR     -0.098300
     31 C8          5.9290    4.5450    0.0080 ca        1 KJR     -0.109500
     32 C9          5.8600    5.4250   -1.0710 ca        1 KJR     -0.136500
     33 C10         6.9900    6.1400   -1.4660 ca        1 KJR     -0.123000
     34 C11         8.1930    5.9730   -0.7800 ca        1 KJR     -0.136500
     35 C12         8.2670    5.0910    0.2980 ca        1 KJR     -0.109500
     36 H1         -0.4910   -0.4830   -1.3090 hc        1 KJR      0.069033
     37 H2         -0.4350    1.1980   -0.6110 hc        1 KJR      0.069033
     38 H3         -0.7670   -0.2260    0.4700 hc        1 KJR      0.069033
     39 H4          1.7330    0.7410   -1.9670 hn        1 KJR      0.314500
     40 H5          3.7980   -0.8470    0.6930 ha        1 KJR      0.183000
     41 H6          3.6850    1.4760   -3.0020 ha        1 KJR      0.130000
     42 H7          6.1520    1.4680   -3.0620 ha        1 KJR      0.138000
     43 H8          7.4670    0.3280   -1.2760 ha        1 KJR      0.149000
     44 H9          5.5750   -2.5060   -1.4320 ha        1 KJR      0.148500
     45 H10         4.7250   -4.5550   -2.5670 ha        1 KJR      0.134000
     46 H11         4.7560   -6.7520   -1.3810 ha        1 KJR      0.132000
     47 H12         5.6450   -6.8960    0.9480 ha        1 KJR      0.134000
     48 H13         6.5010   -4.8510    2.0900 ha        1 KJR      0.148500
     49 H14         9.4100    0.3440    4.9170 h5        1 KJR      0.054100
     50 H15         6.3770    1.8540    0.8280 hn        1 KJR      0.443800
     51 H16         8.2440    3.5870    2.3640 h1        1 KJR      0.090700
     52 H17         6.2040    4.9260    3.1050 h1        1 KJR      0.042200
     53 H18         6.4530    3.3050    3.9240 h1        1 KJR      0.042200
     54 H19         4.3250    3.4410    3.2990 ho        1 KJR      0.408000
     55 H20         5.0330    3.9880    0.3300 ha        1 KJR      0.145000
     56 H21         4.9100    5.5560   -1.6100 ha        1 KJR      0.131000
     57 H22         6.9340    6.8350   -2.3160 ha        1 KJR      0.130000
     58 H23         9.0870    6.5340   -1.0900 ha        1 KJR      0.131000
     59 H24         9.2210    4.9570    0.8300 ha        1 KJR      0.145000
@<TRIPOS>BOND
     1    1    2 1   
     2    1   36 1   
     3    1   37 1   
     4    1   38 1   
     5    2    3 2   
     6    2    4 1   
     7    4    5 1   
     8    4   39 1   
     9    5    6 ar  
    10    5    7 ar  
    11    6   10 ar  
    12    6   40 1   
    13    7    8 ar  
    14    7   41 1   
    15    8    9 ar  
    16    8   42 1   
    17    9   10 ar  
    18    9   43 1   
    19   10   11 1   
    20   11   12 1   
    21   11   13 2   
    22   12   21 ar  
    23   12   25 ar  
    24   13   14 1   
    25   13   20 1   
    26   14   15 ar  
    27   14   19 ar  
    28   15   16 ar  
    29   15   44 1   
    30   16   17 ar  
    31   16   45 1   
    32   17   18 ar  
    33   17   46 1   
    34   18   19 ar  
    35   18   47 1   
    36   19   48 1   
    37   20   21 1   
    38   21   22 ar  
    39   22   23 ar  
    40   23   24 ar  
    41   23   49 1   
    42   24   25 ar  
    43   25   26 1   
    44   26   27 1   
    45   26   50 1   
    46   27   28 1   
    47   27   30 1   
    48   27   51 1   
    49   28   29 1   
    50   28   52 1   
    51   28   53 1   
    52   29   54 1   
    53   30   31 ar  
    54   30   35 ar  
    55   31   32 ar  
    56   31   55 1   
    57   32   33 ar  
    58   32   56 1   
    59   33   34 ar  
    60   33   57 1   
    61   34   35 ar  
    62   34   58 1   
    63   35   59 1   
@<TRIPOS>SUBSTRUCTURE
     1 KJR         1 TEMP              0 ****  ****    0 ROOT
