@<TRIPOS>MOLECULE
KJU
   18    19     1     0     0
SMALL
bcc


@<TRIPOS>ATOM
      1 C1         -0.0220   -0.0040   -0.0230 ca        1 KJU     -0.128000
      2 C2          1.3680    0.0710   -0.0160 ca        1 KJU     -0.106000
      3 C3          2.0500    0.0790    1.2020 ca        1 KJU      0.065100
      4 C4          1.3500    0.0210    2.4370 ca        1 KJU      0.029600
      5 C5         -0.0550   -0.0450    2.4140 ca        1 KJU     -0.148000
      6 C6         -0.7200   -0.0610    1.1860 ca        1 KJU      0.026400
      7 CL7        -2.4180   -0.1500    1.1710 cl        1 KJU     -0.085400
      8 N8          2.0730    0.0370    3.6370 n         1 KJU     -0.467100
      9 C9          3.4350    0.3000    3.6280 c         1 KJU      0.676500
     10 O10         4.0810    0.2970    4.6890 o         1 KJU     -0.607500
     11 C11         4.0820    0.6300    2.2930 c3        1 KJU      0.060400
     12 O12         3.4360    0.0650    1.1540 os        1 KJU     -0.310900
     13 H1         -0.5650   -0.0170   -0.9810 ha        1 KJU      0.155000
     14 H2          1.9380    0.1120   -0.9560 ha        1 KJU      0.159000
     15 H5         -0.6260   -0.0900    3.3540 ha        1 KJU      0.155000
     16 HN8         1.5990   -0.1290    4.4950 hn        1 KJU      0.339500
     17 H11         5.1200    0.2000    2.2570 h1        1 KJU      0.092200
     18 H11A        4.1150    1.7470    2.1840 h1        1 KJU      0.092200
@<TRIPOS>BOND
     1    1    2 ar  
     2    1    6 ar  
     3    1   13 1   
     4    2    3 ar  
     5    2   14 1   
     6    3    4 ar  
     7    3   12 1   
     8    4    5 ar  
     9    4    8 1   
    10    5    6 ar  
    11    5   15 1   
    12    6    7 1   
    13    8    9 1   
    14    8   16 1   
    15    9   10 2   
    16    9   11 1   
    17   11   12 1   
    18   11   17 1   
    19   11   18 1   
@<TRIPOS>SUBSTRUCTURE
     1 KJU         1 TEMP              0 ****  ****    0 ROOT
