@<TRIPOS>MOLECULE
KJV
   76    80     1     0     0
SMALL
bcc


@<TRIPOS>ATOM
      1 C35         1.1020    0.7100    1.7400 c3        1 KJV      0.078600
      2 N34         1.8780   -0.5580    1.5980 n4        1 KJV     -0.677400
      3 C36         1.0550   -1.7160    2.0450 c3        1 KJV      0.078600
      4 C33         2.3520   -0.7230    0.1850 c3        1 KJV      0.103800
      5 C32         3.5030   -1.7160    0.0330 c3        1 KJV     -0.108400
      6 C31         3.9390   -1.7760   -1.4240 c3        1 KJV     -0.149400
      7 C29         5.0470   -2.7820   -1.5890 c         1 KJV      0.541100
      8 O30         5.6650   -3.3530   -0.7070 o         1 KJV     -0.373100
      9 N28         5.4090   -3.1460   -3.0210 n4        1 KJV     -0.542200
     10 C21         6.7900   -2.8000   -3.3880 ca        1 KJV     -0.061400
     11 C22         7.8080   -3.7580   -3.2470 ca        1 KJV     -0.080000
     12 C20         7.0700   -1.5220   -3.9080 ca        1 KJV     -0.107000
     13 C19         8.3770   -1.2210   -4.2820 ca        1 KJV     -0.094000
     14 C18         9.3980   -2.1650   -4.1460 ca        1 KJV     -0.092000
     15 C10         9.1230   -3.4390   -3.6320 ca        1 KJV      0.007200
     16 C7         10.1660   -4.4260   -3.4400 cc        1 KJV     -0.173400
     17 C1         10.9390   -5.1220   -4.4490 ca        1 KJV     -0.273400
     18 C8         10.5560   -4.9450   -2.2030 cd        1 KJV      0.237900
     19 C11        10.2540   -4.6250   -0.8290 ca        1 KJV     -0.124800
     20 C23        10.3910   -5.6090    0.1660 ca        1 KJV     -0.076500
     21 C24        10.1690   -5.2820    1.5020 ca        1 KJV     -0.132500
     22 C25         9.8270   -3.9770    1.8570 ca        1 KJV     -0.069000
     23 C26         9.6940   -2.9950    0.8710 ca        1 KJV     -0.132500
     24 C27         9.9050   -3.3130   -0.4670 ca        1 KJV     -0.076500
     25 O9         11.4910   -5.9850   -2.3520 os        1 KJV     -0.257400
     26 C2         11.7250   -6.1130   -3.7190 ca        1 KJV      0.605600
     27 N3         12.5550   -7.0230   -4.2560 nb        1 KJV     -0.583000
     28 C4         12.6280   -6.9360   -5.6180 ca        1 KJV      0.688900
     29 N5         11.9910   -6.0490   -6.4250 nb        1 KJV     -0.685000
     30 C6         11.1640   -5.1350   -5.8400 ca        1 KJV      0.527200
     31 N          10.5020   -4.1580   -6.7260 n4        1 KJV     -0.750700
     32 CA         11.4090   -3.5380   -7.7870 c3        1 KJV      0.196800
     33 C          12.4130   -2.5490   -7.1690 c3        1 KJV      0.116400
     34 O          11.7420   -1.6980   -6.2530 oh        1 KJV     -0.658800
     35 C12        10.5470   -2.9380   -8.8530 ca        1 KJV     -0.204300
     36 C13        10.3280   -3.6680  -10.0290 ca        1 KJV     -0.103000
     37 C14         9.5840   -3.1110  -11.0680 ca        1 KJV     -0.121500
     38 C15         9.0520   -1.8270  -10.9370 ca        1 KJV     -0.070000
     39 C16         9.2620   -1.1010   -9.7620 ca        1 KJV     -0.121500
     40 C17        10.0060   -1.6530   -8.7220 ca        1 KJV     -0.103000
     41 H1          0.7410    0.8010    2.8020 hx        1 KJV      0.116867
     42 H2          1.7620    1.5850    1.4950 hx        1 KJV      0.116867
     43 H3          0.2180    0.6910    1.0470 hx        1 KJV      0.116867
     44 H5          0.7690   -1.5700    3.1240 hx        1 KJV      0.116867
     45 H6          0.1210   -1.7810    1.4230 hx        1 KJV      0.116867
     46 H7          1.6490   -2.6620    1.9420 hx        1 KJV      0.116867
     47 H8          2.6850    0.2930   -0.1830 hx        1 KJV      0.111700
     48 H9          1.4680   -1.0520   -0.4350 hx        1 KJV      0.111700
     49 H10         3.1870   -2.7410    0.3690 hc        1 KJV      0.094200
     50 H11         4.3780   -1.4110    0.6700 hc        1 KJV      0.094200
     51 H12         3.0630   -2.0540   -2.0740 hc        1 KJV      0.112200
     52 H13         4.3170   -0.7690   -1.7610 hc        1 KJV      0.112200
     53 H14         4.7690   -2.6740   -3.6710 hn        1 KJV      0.470800
     54 H15         7.6040   -4.7580   -2.8250 ha        1 KJV      0.174000
     55 H16         6.2830   -0.7610   -4.0320 ha        1 KJV      0.158000
     56 H17         8.6080   -0.2170   -4.6820 ha        1 KJV      0.186000
     57 H18        10.4350   -1.8920   -4.4270 ha        1 KJV      0.196000
     58 H19        10.6900   -6.6350   -0.1110 ha        1 KJV      0.147000
     59 H20        10.2870   -6.0550    2.2810 ha        1 KJV      0.159000
     60 H21         9.6800   -3.7160    2.9180 ha        1 KJV      0.162000
     61 H22         9.4520   -1.9600    1.1570 ha        1 KJV      0.159000
     62 H23         9.8330   -2.5330   -1.2390 ha        1 KJV      0.147000
     63 H24        13.2960   -7.6750   -6.1250 h5        1 KJV      0.117100
     64 H25        10.1300   -3.3970   -6.1430 hn        1 KJV      0.460300
     65 H26        12.0200   -4.3790   -8.2480 hx        1 KJV      0.144700
     66 H27        13.2140   -3.1120   -6.6140 h1        1 KJV      0.086200
     67 H28        12.8750   -1.9640   -8.0100 h1        1 KJV      0.086200
     68 H29        12.2610   -0.8840   -6.1870 ho        1 KJV      0.452000
     69 H30        10.7630   -4.6740  -10.1520 ha        1 KJV      0.144000
     70 H31         9.4280   -3.6810  -11.9990 ha        1 KJV      0.164000
     71 H32         8.4760   -1.3810  -11.7660 ha        1 KJV      0.169000
     72 H33         8.8550   -0.0810   -9.6670 ha        1 KJV      0.164000
     73 H34        10.1970   -1.0660   -7.8090 ha        1 KJV      0.144000
     74 H341        2.7040   -0.4970    2.2120 hn        1 KJV      0.456800
     75 H282        5.2960   -4.1670   -3.1290 hn        1 KJV      0.470800
     76 H2A         9.7290   -4.6280   -7.2160 hn        1 KJV      0.460300
@<TRIPOS>BOND
     1    1    2 1   
     2    1   41 1   
     3    1   42 1   
     4    1   43 1   
     5    2    3 1   
     6    2    4 1   
     7    2   74 1   
     8    3   44 1   
     9    3   45 1   
    10    3   46 1   
    11    4    5 1   
    12    4   47 1   
    13    4   48 1   
    14    5    6 1   
    15    5   49 1   
    16    5   50 1   
    17    6    7 1   
    18    6   51 1   
    19    6   52 1   
    20    7    8 2   
    21    7    9 1   
    22    9   10 1   
    23    9   53 1   
    24    9   75 1   
    25   10   11 ar  
    26   10   12 ar  
    27   11   15 ar  
    28   11   54 1   
    29   12   13 ar  
    30   12   55 1   
    31   13   14 ar  
    32   13   56 1   
    33   14   15 ar  
    34   14   57 1   
    35   15   16 1   
    36   16   17 1   
    37   16   18 2   
    38   17   26 ar  
    39   17   30 ar  
    40   18   19 1   
    41   18   25 1   
    42   19   20 ar  
    43   19   24 ar  
    44   20   21 ar  
    45   20   58 1   
    46   21   22 ar  
    47   21   59 1   
    48   22   23 ar  
    49   22   60 1   
    50   23   24 ar  
    51   23   61 1   
    52   24   62 1   
    53   25   26 1   
    54   26   27 ar  
    55   27   28 ar  
    56   28   29 ar  
    57   28   63 1   
    58   29   30 ar  
    59   30   31 1   
    60   31   32 1   
    61   31   64 1   
    62   31   76 1   
    63   32   33 1   
    64   32   35 1   
    65   32   65 1   
    66   33   34 1   
    67   33   66 1   
    68   33   67 1   
    69   34   68 1   
    70   35   36 ar  
    71   35   40 ar  
    72   36   37 ar  
    73   36   69 1   
    74   37   38 ar  
    75   37   70 1   
    76   38   39 ar  
    77   38   71 1   
    78   39   40 ar  
    79   39   72 1   
    80   40   73 1   
@<TRIPOS>SUBSTRUCTURE
     1 KJV         1 TEMP              0 ****  ****    0 ROOT
