@<TRIPOS>MOLECULE
KJV
   73    77     1     0     0
SMALL
bcc


@<TRIPOS>ATOM
      1 C35         8.2780   -3.8650   -1.8300 c3        1 KJV      0.154600
      2 N34         7.4520   -3.4160   -0.7310 n3        1 KJV     -0.736600
      3 C36         8.2150   -3.1100    0.4580 c3        1 KJV      0.154600
      4 C33         6.5450   -2.3500   -1.1330 c3        1 KJV      0.171800
      5 C32         5.5440   -1.9440   -0.0530 c3        1 KJV     -0.077400
      6 C31         4.4770   -1.0560   -0.6590 c3        1 KJV     -0.152400
      7 C29         3.5480   -0.5170    0.4200 c         1 KJV      0.668100
      8 O30         3.8450   -0.5730    1.6260 o         1 KJV     -0.589100
      9 N28         2.3730    0.0620   -0.0430 n         1 KJV     -0.472100
     10 C21         1.3280    0.6100    0.7170 ca        1 KJV      0.070600
     11 C22         0.1810    1.0810    0.0290 ca        1 KJV     -0.176000
     12 C20         1.3660    0.7230    2.1230 ca        1 KJV     -0.152000
     13 C19         0.2910    1.2850    2.8050 ca        1 KJV     -0.109000
     14 C18        -0.8310    1.7510    2.1260 ca        1 KJV     -0.141000
     15 C10        -0.8850    1.6520    0.7290 ca        1 KJV     -0.020800
     16 C7         -2.0430    2.1360    0.0030 cc        1 KJV     -0.029400
     17 C1         -2.9950    1.3030   -0.7040 ca        1 KJV     -0.381400
     18 C8         -2.4690    3.4470   -0.1480 cd        1 KJV      0.095900
     19 C11        -1.9720    4.7330    0.2840 ca        1 KJV     -0.044800
     20 C23        -2.7970    5.8690    0.2150 ca        1 KJV     -0.101000
     21 C24        -2.3170    7.1080    0.6290 ca        1 KJV     -0.135500
     22 C25        -1.0140    7.2310    1.1130 ca        1 KJV     -0.116000
     23 C26        -0.1900    6.1080    1.1810 ca        1 KJV     -0.135500
     24 C27        -0.6620    4.8640    0.7690 ca        1 KJV     -0.101000
     25 O9         -3.6630    3.5130   -0.9160 os        1 KJV     -0.299400
     26 C2         -3.9780    2.1980   -1.2490 ca        1 KJV      0.612600
     27 N3         -5.0620    1.8310   -1.9760 nb        1 KJV     -0.707000
     28 C4         -5.1280    0.4820   -2.1360 ca        1 KJV      0.678900
     29 N5         -4.2930   -0.4860   -1.6830 nb        1 KJV     -0.785000
     30 C6         -3.1860   -0.0910   -0.9620 ca        1 KJV      0.730200
     31 N          -2.2200   -1.0030   -0.5590 nh        1 KJV     -0.817900
     32 CA         -2.4780   -2.4320   -0.5690 c3        1 KJV      0.261800
     33 C          -3.4720   -2.9120    0.5170 c3        1 KJV      0.101400
     34 O          -3.0770   -2.3850    1.7730 oh        1 KJV     -0.609800
     35 C12        -1.1830   -3.2040   -0.4670 ca        1 KJV     -0.102300
     36 C13        -0.7280   -3.9270   -1.5740 ca        1 KJV     -0.112500
     37 C14         0.4590   -4.6550   -1.4930 ca        1 KJV     -0.136000
     38 C15         1.2000   -4.6570   -0.3110 ca        1 KJV     -0.125000
     39 C16         0.7510   -3.9290    0.7920 ca        1 KJV     -0.136000
     40 C17        -0.4370   -3.2040    0.7150 ca        1 KJV     -0.112500
     41 H1          8.8870   -4.7420   -1.4890 h1        1 KJV      0.032533
     42 H2          7.6170   -4.1940   -2.6740 h1        1 KJV      0.032533
     43 H3          8.9780   -3.0720   -2.2130 h1        1 KJV      0.032533
     44 H5          8.8430   -2.1820    0.3560 h1        1 KJV      0.032533
     45 H6          7.5080   -2.9710    1.3170 h1        1 KJV      0.032533
     46 H7          8.8930   -3.9730    0.6910 h1        1 KJV      0.032533
     47 H8          7.1100   -1.4260   -1.4580 h1        1 KJV      0.026700
     48 H9          5.9720   -2.7260   -2.0300 h1        1 KJV      0.026700
     49 H10         5.0640   -2.8480    0.4040 hc        1 KJV      0.067700
     50 H11         6.0630   -1.3900    0.7740 hc        1 KJV      0.067700
     51 H12         4.9520   -0.1810   -1.1770 hc        1 KJV      0.066200
     52 H13         3.8940   -1.6350   -1.4230 hc        1 KJV      0.066200
     53 H14         2.2090    0.0250   -1.0250 hn        1 KJV      0.317500
     54 H15         0.1150    1.0050   -1.0680 ha        1 KJV      0.144000
     55 H16         2.2400    0.3670    2.6940 ha        1 KJV      0.176000
     56 H17         0.3330    1.3610    3.9020 ha        1 KJV      0.139000
     57 H18        -1.6720    2.1960    2.6780 ha        1 KJV      0.145000
     58 H19        -3.8240    5.7720   -0.1710 ha        1 KJV      0.150000
     59 H20        -2.9690    7.9920    0.5720 ha        1 KJV      0.136000
     60 H21        -0.6370    8.2120    1.4390 ha        1 KJV      0.133000
     61 H22         0.8380    6.2010    1.5610 ha        1 KJV      0.136000
     62 H23        -0.0080    3.9790    0.8260 ha        1 KJV      0.150000
     63 H24        -6.0000    0.1160   -2.7200 h5        1 KJV      0.055100
     64 H25        -1.6370   -0.6900    0.1940 hn        1 KJV      0.443800
     65 H26        -2.9640   -2.6900   -1.5620 h1        1 KJV      0.090700
     66 H27        -4.5070   -2.5570    0.2620 h1        1 KJV      0.041200
     67 H28        -3.4590   -4.0330    0.5490 h1        1 KJV      0.041200
     68 H29        -3.7470   -2.6610    2.4090 ho        1 KJV      0.408000
     69 H30        -1.3050   -3.9240   -2.5110 ha        1 KJV      0.145000
     70 H31         0.8090   -5.2280   -2.3630 ha        1 KJV      0.135500
     71 H32         2.1350   -5.2310   -0.2480 ha        1 KJV      0.134000
     72 H33         1.3340   -3.9270    1.7250 ha        1 KJV      0.135500
     73 H34        -0.8020   -2.6400    1.5900 ha        1 KJV      0.145000
@<TRIPOS>BOND
     1    1    2 1   
     2    1   41 1   
     3    1   42 1   
     4    1   43 1   
     5    2    3 1   
     6    2    4 1   
     7    3   44 1   
     8    3   45 1   
     9    3   46 1   
    10    4    5 1   
    11    4   47 1   
    12    4   48 1   
    13    5    6 1   
    14    5   49 1   
    15    5   50 1   
    16    6    7 1   
    17    6   51 1   
    18    6   52 1   
    19    7    8 2   
    20    7    9 1   
    21    9   10 1   
    22    9   53 1   
    23   10   11 ar  
    24   10   12 ar  
    25   11   15 ar  
    26   11   54 1   
    27   12   13 ar  
    28   12   55 1   
    29   13   14 ar  
    30   13   56 1   
    31   14   15 ar  
    32   14   57 1   
    33   15   16 1   
    34   16   17 1   
    35   16   18 2   
    36   17   26 ar  
    37   17   30 ar  
    38   18   19 1   
    39   18   25 1   
    40   19   20 ar  
    41   19   24 ar  
    42   20   21 ar  
    43   20   58 1   
    44   21   22 ar  
    45   21   59 1   
    46   22   23 ar  
    47   22   60 1   
    48   23   24 ar  
    49   23   61 1   
    50   24   62 1   
    51   25   26 1   
    52   26   27 ar  
    53   27   28 ar  
    54   28   29 ar  
    55   28   63 1   
    56   29   30 ar  
    57   30   31 1   
    58   31   32 1   
    59   31   64 1   
    60   32   33 1   
    61   32   35 1   
    62   32   65 1   
    63   33   34 1   
    64   33   66 1   
    65   33   67 1   
    66   34   68 1   
    67   35   36 ar  
    68   35   40 ar  
    69   36   37 ar  
    70   36   69 1   
    71   37   38 ar  
    72   37   70 1   
    73   38   39 ar  
    74   38   71 1   
    75   39   40 ar  
    76   39   72 1   
    77   40   73 1   
@<TRIPOS>SUBSTRUCTURE
     1 KJV         1 TEMP              0 ****  ****    0 ROOT
