@<TRIPOS>MOLECULE
KJV
   73    65     1     0     0
SMALL
bcc


@<TRIPOS>ATOM
      1 C35        -8.3600   -3.6960    3.6520 c3        1 KJV     -0.121000
      2 N34        -7.8580   -2.3700    3.9320 n3        1 KJV     -0.262000
      3 C36        -8.9490   -1.5170    4.3300 c3        1 KJV     -0.121000
      4 C33        -7.2320   -1.8310    2.7450 c3        1 KJV     -0.065000
      5 C32        -5.7780   -1.4310    3.0660 c3        1 KJV     -0.157000
      6 C31        -4.8710   -1.8070    1.8870 c3        1 KJV     -0.181000
      7 C29        -3.5100   -1.1110    2.0450 c2        1 KJV      0.311000
      8 O30        -3.2020   -0.6130    3.1120 o         1 KJV     -0.345000
      9 N28        -2.6000   -1.0520    0.9350 n         1 KJV     -0.331000
     10 C21        -1.3210   -0.4030    1.0830 c2        1 KJV      0.081000
     11 C22        -0.5380   -0.1470   -0.0380 c2        1 KJV     -0.169000
     12 C20        -0.8890    0.0060    2.3420 c1        1 KJV     -0.154000
     13 C19         0.3270    0.6690    2.4790 c1        1 KJV     -0.125875
     14 C18         1.1100    0.9250    1.3580 c1        1 KJV     -0.125875
     15 C10         0.6780    0.5160    0.0990 c1        1 KJV     -0.004000
     16 C7          1.5050    0.8580   -1.1410 c2        1 KJV     -0.063000
     17 C1          1.9740   -0.0000   -2.1360 c1        1 KJV     -0.240000
     18 C8          0.7140    1.8100   -1.7410 c1        1 KJV      0.046000
     19 C11         0.4020    3.1540   -2.3710 c1        1 KJV     -0.035000
     20 C23        -0.8600    3.3940   -2.9050 c1        1 KJV     -0.125875
     21 C24        -1.1180    4.5860   -3.5700 c1        1 KJV     -0.125875
     22 C25        -0.1150    5.5410   -3.7020 c1        1 KJV     -0.125875
     23 C26         1.1470    5.3020   -3.1680 c1        1 KJV     -0.125875
     24 C27         1.4060    4.1090   -2.5030 c1        1 KJV     -0.105000
     25 O9          0.6880    1.5530   -3.0870 os        1 KJV     -0.084000
     26 C2          1.4740    0.4250   -3.3270 c1        1 KJV      0.114000
     27 N3          1.8540   -0.1890   -4.4810 n1        1 KJV     -0.176000
     28 C4          2.7380   -1.2320   -4.4440 c1        1 KJV      0.016000
     29 N5          3.2430   -1.6620   -3.2430 n1        1 KJV     -0.243000
     30 C6          2.8700   -1.0570   -2.1000 c1        1 KJV      0.208000
     31 N           3.7930   -1.0770   -1.0190 n2        1 KJV     -0.277000
     32 CA          5.1330   -1.4840   -1.2420 c3        1 KJV      0.004000
     33 C           5.4780   -2.6160   -0.3020 c3        1 KJV     -0.019000
     34 O           6.8510   -2.9170   -0.4120 oh        1 KJV     -0.321000
     35 C12         6.0680   -0.3090   -0.9890 c2        1 KJV     -0.115000
     36 C13         6.4400    0.5200   -2.0440 c2        1 KJV     -0.102000
     37 C14         7.1890    1.6670   -1.7970 c1        1 KJV     -0.131000
     38 C15         7.5670    1.9850   -0.4960 c1        1 KJV     -0.125875
     39 C16         7.1960    1.1570    0.5580 c1        1 KJV     -0.125875
     40 C17         6.4470    0.0100    0.3120 c1        1 KJV     -0.126000
     41 H1         -8.9510   -3.6630    2.8660 h1        1 KJV      0.071833
     42 H2         -8.8660   -4.0270    4.4310 h1        1 KJV      0.071833
     43 H3         -7.6060   -4.2990    3.4700 h1        1 KJV      0.071833
     44 H5         -8.5980   -0.6370    4.5890 h1        1 KJV      0.071833
     45 H6         -9.4210   -1.9230    5.0950 h1        1 KJV      0.071833
     46 H7         -9.5730   -1.4130    3.5780 h1        1 KJV      0.071833
     47 H8         -7.7300   -1.0390    2.4430 h1        1 KJV      0.066000
     48 H9         -7.2360   -2.5120    2.0340 h1        1 KJV      0.066000
     49 H10        -5.4780   -1.9040    3.8730 hc        1 KJV      0.108000
     50 H11        -5.7310   -0.4610    3.2190 hc        1 KJV      0.108000
     51 H12        -4.7400   -2.7850    1.8710 hc        1 KJV      0.105000
     52 H13        -5.2910   -1.5190    1.0440 hc        1 KJV      0.105000
     53 H14        -2.8420   -1.4110    0.1240 hn        1 KJV      0.231000
     54 H15        -0.8430   -0.4350   -0.9260 ha        1 KJV      0.142000
     55 H16        -1.4390   -0.1740    3.1300 ha        1 KJV      0.178000
     56 H17         0.6330    0.9580    3.3680 ha        1 KJV      0.138875
     57 H18         1.9700    1.3940    1.4550 ha        1 KJV      0.138875
     58 H19        -1.5660    2.7230   -2.8130 ha        1 KJV      0.138875
     59 H20        -2.0060    4.7540   -3.9460 ha        1 KJV      0.138875
     60 H21        -0.2960    6.3790   -4.1700 ha        1 KJV      0.138875
     61 H22         1.8530    5.9740   -3.2610 ha        1 KJV      0.138875
     62 H23         2.2940    3.9410   -2.1260 ha        1 KJV      0.147000
     63 H24         3.0110   -1.6740   -5.2770 ha        1 KJV      0.195000
     64 H25         3.5430   -0.7580   -0.1990 hn        1 KJV      0.224000
     65 H26         5.2330   -1.7890   -2.1720 h1        1 KJV      0.148000
     66 H27         4.9490   -3.4100   -0.5370 h1        1 KJV      0.094500
     67 H28         5.2750   -2.3490    0.6200 h1        1 KJV      0.094500
     68 H29         6.9920   -3.7600   -0.1620 ho        1 KJV      0.207000
     69 H30         6.1740    0.2970   -2.9600 ha        1 KJV      0.144000
     70 H31         7.4510    2.2520   -2.5420 ha        1 KJV      0.135000
     71 H32         8.0950    2.7930   -0.3230 ha        1 KJV      0.138875
     72 H33         7.4620    1.3810    1.4740 ha        1 KJV      0.138875
     73 H34         6.1860   -0.5720    1.0540 ha        1 KJV      0.129000
@<TRIPOS>BOND
     1    1    2 1   
     2    1   41 1   
     3    1   42 1   
     4    1   43 1   
     5    2    3 1   
     6    2    4 1   
     7    3   44 1   
     8    3   45 1   
     9    3   46 1   
    10    4    5 1   
    11    4   47 1   
    12    4   48 1   
    13    5    6 1   
    14    5   49 1   
    15    5   50 1   
    16    6    7 1   
    17    6   51 1   
    18    6   52 1   
    19    7    8 1   
    20    7    9 1   
    21    9   10 1   
    22    9   53 1   
    23   10   11 1   
    24   10   12 1   
    25   11   15 1   
    26   11   54 1   
    27   12   55 1   
    28   13   14 1   
    29   13   56 1   
    30   14   57 1   
    31   15   16 1   
    32   16   17 1   
    33   16   18 1   
    34   17   30 1   
    35   18   25 1   
    36   19   24 1   
    37   20   21 1   
    38   20   58 1   
    39   21   59 1   
    40   22   23 1   
    41   22   60 1   
    42   23   61 1   
    43   24   62 1   
    44   25   26 1   
    45   26   27 1   
    46   28   29 1   
    47   28   63 1   
    48   31   32 1   
    49   31   64 1   
    50   32   33 1   
    51   32   35 1   
    52   32   65 1   
    53   33   34 1   
    54   33   66 1   
    55   33   67 1   
    56   34   68 1   
    57   35   36 1   
    58   35   40 1   
    59   36   37 1   
    60   36   69 1   
    61   37   70 1   
    62   38   39 1   
    63   38   71 1   
    64   39   72 1   
    65   40   73 1   
@<TRIPOS>SUBSTRUCTURE
     1 KJV         1 TEMP              0 ****  ****    0 ROOT
