@<TRIPOS>MOLECULE
KJV
   74    78     1     0     0
SMALL
bcc


@<TRIPOS>ATOM
      1 C35        -0.0750    0.2090   -2.3990 c3        1 KJV      0.081100
      2 N34         1.2350    0.2090   -1.6960 nx        1 KJV     -0.679400
      3 C36         1.0420    0.0430   -0.2310 c3        1 KJV      0.081100
      4 C33         2.1370   -0.8550   -2.2560 c3        1 KJV      0.104800
      5 C32         3.6000   -0.6310   -1.9030 c3        1 KJV     -0.102400
      6 C31         4.4590   -1.6870   -2.5710 c3        1 KJV     -0.161400
      7 C29         5.9180   -1.4670   -2.1660 c         1 KJV      0.666100
      8 O30         6.2150   -0.5060   -1.4290 o         1 KJV     -0.602100
      9 N28         6.8200   -2.3770   -2.6640 ns        1 KJV     -0.449100
     10 C21         8.2110   -2.4060   -2.4250 ca        1 KJV      0.041600
     11 C22         8.9110   -3.5890   -2.7550 ca        1 KJV     -0.157000
     12 C20         8.9230   -1.3120   -1.8950 ca        1 KJV     -0.140000
     13 C19        10.3000   -1.4110   -1.7080 ca        1 KJV     -0.110000
     14 C18        10.9900   -2.5740   -2.0340 ca        1 KJV     -0.122000
     15 C10        10.2930   -3.6730   -2.5590 ca        1 KJV     -0.008800
     16 C7         10.9880   -4.8980   -2.9000 cc        1 KJV     -0.052400
     17 C1         11.0800   -5.4650   -4.2310 ca        1 KJV     -0.374400
     18 C8         11.6790   -5.7510   -2.0520 cd        1 KJV      0.115900
     19 C11        11.9550   -5.7730   -0.6330 ca        1 KJV     -0.054800
     20 C23        12.9830   -6.5880   -0.1290 ca        1 KJV     -0.098500
     21 C24        13.2490   -6.6120    1.2380 ca        1 KJV     -0.134500
     22 C25        12.4960   -5.8300    2.1140 ca        1 KJV     -0.108000
     23 C26        11.4730   -5.0220    1.6190 ca        1 KJV     -0.134500
     24 C27        11.1990   -4.9920    0.2540 ca        1 KJV     -0.098500
     25 O9         12.2210   -6.8520   -2.7630 os        1 KJV     -0.292400
     26 C2         11.8510   -6.6710   -4.0940 ca        1 KJV      0.611600
     27 N3         12.1820   -7.5150   -5.1010 nb        1 KJV     -0.691000
     28 C4         11.7010   -7.0850   -6.2990 ca        1 KJV      0.679900
     29 N5         10.9780   -5.9730   -6.5890 nb        1 KJV     -0.776000
     30 C6         10.6400   -5.1370   -5.5500 ca        1 KJV      0.714200
     31 N           9.8110   -4.0300   -5.7470 nu        1 KJV     -0.814900
     32 CA          9.5840   -3.5110   -7.0860 c3        1 KJV      0.249800
     33 C          10.8070   -2.8020   -7.7160 c3        1 KJV      0.100400
     34 O          11.3300   -1.8690   -6.7840 oh        1 KJV     -0.616800
     35 C12         8.3870   -2.5880   -7.0980 ca        1 KJV     -0.090300
     36 C13         7.2090   -3.0020   -7.7290 ca        1 KJV     -0.110500
     37 C14         6.1050   -2.1510   -7.7780 ca        1 KJV     -0.140000
     38 C15         6.1690   -0.8890   -7.1890 ca        1 KJV     -0.139000
     39 C16         7.3370   -0.4780   -6.5480 ca        1 KJV     -0.140000
     40 C17         8.4440   -1.3250   -6.5000 ca        1 KJV     -0.110500
     41 H1          0.0850    0.4290   -3.4890 hx        1 KJV      0.107367
     42 H2         -0.7370    0.9980   -1.9510 hx        1 KJV      0.107367
     43 H3         -0.5600   -0.7970   -2.2860 hx        1 KJV      0.107367
     44 H5          0.4070    0.8840    0.1580 hx        1 KJV      0.107367
     45 H6          2.0430    0.0600    0.2810 hx        1 KJV      0.107367
     46 H7          0.5330   -0.9360   -0.0260 hx        1 KJV      0.107367
     47 H8          2.0130   -0.8510   -3.3780 hx        1 KJV      0.102700
     48 H9          1.7840   -1.8500   -1.8600 hx        1 KJV      0.102700
     49 H10         3.7620   -0.6820   -0.7920 hc        1 KJV      0.086200
     50 H11         3.9470    0.3840   -2.2400 hc        1 KJV      0.086200
     51 H12         4.3690   -1.6190   -3.6870 hc        1 KJV      0.077200
     52 H13         4.1310   -2.7120   -2.2540 hc        1 KJV      0.077200
     53 H14         6.4720   -3.1110   -3.2410 hn        1 KJV      0.325500
     54 H15         8.3830   -4.4600   -3.1760 ha        1 KJV      0.148000
     55 H16         8.4050   -0.3790   -1.6210 ha        1 KJV      0.167000
     56 H17        10.8480   -0.5480   -1.2970 ha        1 KJV      0.146000
     57 H18        12.0780   -2.6380   -1.8820 ha        1 KJV      0.154000
     58 H19        13.5740   -7.2100   -0.8210 ha        1 KJV      0.147500
     59 H20        14.0560   -7.2520    1.6250 ha        1 KJV      0.139000
     60 H21        12.7100   -5.8510    3.1930 ha        1 KJV      0.139000
     61 H22        10.8770   -4.4050    2.3080 ha        1 KJV      0.139000
     62 H23        10.3910   -4.3520   -0.1330 ha        1 KJV      0.147500
     63 H24        11.9430   -7.7340   -7.1690 h5        1 KJV      0.063100
     64 H25         9.9390   -3.3120   -5.0580 hn        1 KJV      0.430800
     65 H26         9.3540   -4.3890   -7.7670 h1        1 KJV      0.095700
     66 H27        11.5890   -3.5650   -7.9770 h1        1 KJV      0.046700
     67 H28        10.4810   -2.2680   -8.6480 h1        1 KJV      0.046700
     68 H29        12.1510   -1.5310   -7.1620 ho        1 KJV      0.414000
     69 H30         7.1540   -3.9970   -8.1980 ha        1 KJV      0.151000
     70 H31         5.1890   -2.4750   -8.2930 ha        1 KJV      0.132000
     71 H32         5.3050   -0.2120   -7.2470 ha        1 KJV      0.122000
     72 H33         7.3950    0.5210   -6.0910 ha        1 KJV      0.132000
     73 H34         9.3770   -0.9950   -6.0130 ha        1 KJV      0.151000
     74 H341        1.6890    1.1200   -1.8550 hn        1 KJV      0.454800
@<TRIPOS>BOND
     1    1    2 1   
     2    1   41 1   
     3    1   42 1   
     4    1   43 1   
     5    2    3 1   
     6    2    4 1   
     7    2   74 1   
     8    3   44 1   
     9    3   45 1   
    10    3   46 1   
    11    4    5 1   
    12    4   47 1   
    13    4   48 1   
    14    5    6 1   
    15    5   49 1   
    16    5   50 1   
    17    6    7 1   
    18    6   51 1   
    19    6   52 1   
    20    7    8 2   
    21    7    9 1   
    22    9   10 1   
    23    9   53 1   
    24   10   11 ar  
    25   10   12 ar  
    26   11   15 ar  
    27   11   54 1   
    28   12   13 ar  
    29   12   55 1   
    30   13   14 ar  
    31   13   56 1   
    32   14   15 ar  
    33   14   57 1   
    34   15   16 1   
    35   16   17 1   
    36   16   18 2   
    37   17   26 ar  
    38   17   30 ar  
    39   18   19 1   
    40   18   25 1   
    41   19   20 ar  
    42   19   24 ar  
    43   20   21 ar  
    44   20   58 1   
    45   21   22 ar  
    46   21   59 1   
    47   22   23 ar  
    48   22   60 1   
    49   23   24 ar  
    50   23   61 1   
    51   24   62 1   
    52   25   26 1   
    53   26   27 ar  
    54   27   28 ar  
    55   28   29 ar  
    56   28   63 1   
    57   29   30 ar  
    58   30   31 1   
    59   31   32 1   
    60   31   64 1   
    61   32   33 1   
    62   32   35 1   
    63   32   65 1   
    64   33   34 1   
    65   33   66 1   
    66   33   67 1   
    67   34   68 1   
    68   35   36 ar  
    69   35   40 ar  
    70   36   37 ar  
    71   36   69 1   
    72   37   38 ar  
    73   37   70 1   
    74   38   39 ar  
    75   38   71 1   
    76   39   40 ar  
    77   39   72 1   
    78   40   73 1   
@<TRIPOS>SUBSTRUCTURE
     1 KJV         1 TEMP              0 ****  ****    0 ROOT
