@<TRIPOS>MOLECULE
KJZ
   50    52     1     0     0
SMALL
bcc


@<TRIPOS>ATOM
      1 C          -3.1250    2.6590    1.5140 c         1 KJZ      0.896600
      2 N          -1.9780    2.1460   -0.7340 n         1 KJZ     -0.184800
      3 O          -2.3770    1.8240    2.0960 o         1 KJZ     -0.830300
      4 CA         -2.8400    3.0520    0.0370 c3        1 KJZ     -0.087000
      5 OAB         3.3880    1.3520   -3.0890 o         1 KJZ     -0.602100
      6 OAC        -0.4300    3.8220   -1.0770 o         1 KJZ     -0.615100
      7 CAF        -3.2180    0.2480   -0.2270 ce        1 KJZ      0.391800
      8 CAG         6.2780   -2.4670   -0.9730 ca        1 KJZ     -0.165000
      9 CAH         5.9860   -1.7590   -2.1380 ca        1 KJZ     -0.106000
     10 CAI        -3.7710   -3.4440    3.2680 ca        1 KJZ     -0.125000
     11 CAJ        -3.4880   -2.0590    3.3290 ca        1 KJZ     -0.146000
     12 CAK        -3.7860   -3.2400   -1.5790 ca        1 KJZ     -0.132000
     13 CAL         5.5610   -2.1980    0.1890 ca        1 KJZ     -0.098000
     14 CAM        -3.5250   -1.8510   -1.5280 ca        1 KJZ     -0.132000
     15 CAN         4.9900   -0.7890   -2.1550 ca        1 KJZ     -0.159000
     16 CAO        -3.9190   -4.0700    2.0550 ca        1 KJZ     -0.146000
     17 CAP        -3.9240   -3.9650   -0.4220 ca        1 KJZ     -0.134000
     18 CAQ        -3.3640   -1.3190    2.1780 ca        1 KJZ     -0.094000
     19 CAR         1.7240    2.3020   -1.6300 c3        1 KJZ     -0.151400
     20 CAS         0.4170    1.5890   -1.3600 c3        1 KJZ     -0.143400
     21 NAU        -2.1770    0.8160   -0.7680 n2        1 KJZ     -0.477300
     22 NAV         3.2390    0.4730   -0.9510 n         1 KJZ     -0.472100
     23 CAX         2.8450    1.3370   -1.9700 c         1 KJZ      0.672100
     24 CAY        -0.6690    2.5990   -1.0300 c         1 KJZ      0.683100
     25 CAZ         4.5610   -1.2260    0.1910 ca        1 KJZ     -0.046600
     26 CBA        -3.4110   -1.2080   -0.3150 ca        1 KJZ     -0.079900
     27 CBB         4.2480   -0.4930   -0.9880 ca        1 KJZ      0.097600
     28 CBC        -3.7940   -3.3340    0.8450 ca        1 KJZ     -0.038000
     29 CBD        -3.5250   -1.9420    0.9070 ca        1 KJZ     -0.031000
     30 OXT        -4.1240    3.2180    2.0390 o         1 KJZ     -0.830300
     31 HA         -3.8220    3.1210   -0.5080 h1        1 KJZ      0.063200
     32 HAA        -2.3700    4.0720    0.0490 h1        1 KJZ      0.063200
     33 HAF        -3.9980    0.7680    0.3740 h4        1 KJZ      0.039800
     34 HAG         7.0650   -3.2330   -0.9690 ha        1 KJZ      0.129000
     35 HAH         6.5460   -1.9680   -3.0610 ha        1 KJZ      0.130000
     36 HAI        -3.8690   -4.0110    4.2050 ha        1 KJZ      0.116000
     37 HAJ        -3.3650   -1.5780    4.3100 ha        1 KJZ      0.136000
     38 HAK        -3.8770   -3.7270   -2.5610 ha        1 KJZ      0.118000
     39 HAL         5.7820   -2.7530    1.1140 ha        1 KJZ      0.141000
     40 HAM        -3.4170   -1.2890   -2.4670 ha        1 KJZ      0.135000
     41 HAN         4.7840   -0.2500   -3.0950 ha        1 KJZ      0.178000
     42 HAO        -4.1330   -5.1460    1.9960 ha        1 KJZ      0.116000
     43 HAP        -4.1320   -5.0440   -0.4530 ha        1 KJZ      0.118000
     44 HAQ        -3.1240   -0.2330    2.2270 ha        1 KJZ      0.214000
     45 HAR         1.6010    3.0030   -2.4990 hc        1 KJZ      0.089700
     46 HARA        2.0110    2.9260   -0.7410 hc        1 KJZ      0.089700
     47 HAS         0.1110    0.9920   -2.2590 hc        1 KJZ      0.081700
     48 HASA        0.5180    0.8810   -0.4940 hc        1 KJZ      0.081700
     49 HNAV        2.7270    0.5350   -0.0940 hn        1 KJZ      0.336500
     50 CLAE        3.7190   -0.9420    1.6460 cl        1 KJZ     -0.093400
@<TRIPOS>BOND
     1    1    3 1   
     2    1    4 1   
     3    1   30 1   
     4    2    4 1   
     5    2   21 1   
     6    2   24 1   
     7    4   31 1   
     8    4   32 1   
     9    5   23 2   
    10    6   24 2   
    11    7   21 2   
    12    7   26 1   
    13    7   33 1   
    14    8    9 ar  
    15    8   13 ar  
    16    8   34 1   
    17    9   15 ar  
    18    9   35 1   
    19   10   11 ar  
    20   10   16 ar  
    21   10   36 1   
    22   11   18 ar  
    23   11   37 1   
    24   12   14 ar  
    25   12   17 ar  
    26   12   38 1   
    27   13   25 ar  
    28   13   39 1   
    29   14   26 ar  
    30   14   40 1   
    31   15   27 ar  
    32   15   41 1   
    33   16   28 ar  
    34   16   42 1   
    35   17   28 ar  
    36   17   43 1   
    37   18   29 ar  
    38   18   44 1   
    39   19   20 1   
    40   19   23 1   
    41   19   45 1   
    42   19   46 1   
    43   20   24 1   
    44   20   47 1   
    45   20   48 1   
    46   22   23 1   
    47   22   27 1   
    48   22   49 1   
    49   25   27 ar  
    50   25   50 1   
    51   26   29 ar  
    52   28   29 ar  
@<TRIPOS>SUBSTRUCTURE
     1 KJZ         1 TEMP              0 ****  ****    0 ROOT
