@<TRIPOS>MOLECULE
KJZ
   52    51     1     0     0
SMALL
bcc


@<TRIPOS>ATOM
      1 C          -0.0010    0.5240    0.3870 c2        1 KJZ      0.280000
      2 N           0.2400   -0.4270    2.6610 n         1 KJZ     -0.264000
      3 O           0.5930   -0.2510   -0.5530 oh        1 KJZ     -0.266000
      4 CA         -0.6870   -0.1320    1.5730 c3        1 KJZ     -0.110000
      5 OAB         4.2990   -4.2230    4.4800 o         1 KJZ     -0.208000
      6 OAC         0.5600   -2.5010    1.7520 o         1 KJZ     -0.342000
      7 CAF         0.3990    1.7540    3.4700 c2        1 KJZ     -0.137000
      8 CAG         5.2320    0.0120    8.2190 c1        1 KJZ     -0.238000
      9 CAH         1.3230   -0.8190    7.2940 c1        1 KJZ     -0.343000
     10 CAI         2.6870    2.5850    8.3400 c2        1 KJZ     -0.140000
     11 CAJ         3.6640    0.7470    4.5410 c2        1 KJZ     -0.154000
     12 CAK         3.1610    5.4950    4.3710 c2        1 KJZ     -0.556000
     13 CAL         4.9140   -1.0500    7.7670 c1        1 KJZ     -0.106000
     14 CAM         3.5490    6.7080    3.9540 c1        1 KJZ      0.509000
     15 CAN         2.2000   -1.6130    7.0740 c1        1 KJZ     -0.040000
     16 CAO         2.6870    3.1510    7.1850 c1        1 KJZ      0.082000
     17 CAP         3.1230    4.9420    5.6610 c2        1 KJZ      0.244000
     18 CAQ         3.3170    1.9890    4.2100 c2        1 KJZ     -0.181000
     19 CAR         2.0520   -3.5700    3.8300 c3        1 KJZ     -0.180000
     20 CAS         1.7420   -2.0890    3.8330 c3        1 KJZ     -0.170000
     21 NAU         0.7160    0.4890    3.5100 n2        1 KJZ     -0.015000
     22 NAV         2.8520   -3.8070    6.2620 n4        1 KJZ      0.049000
     23 CAX         3.1610   -3.8920    4.7940 c2        1 KJZ      0.242000
     24 CAY         0.8300   -1.7280    2.6860 c2        1 KJZ      0.344000
     25 CAZ         4.6000   -2.3470    7.2420 c3        1 KJZ      0.186000
     26 CBA         0.9350    2.6580    4.4910 c2        1 KJZ     -0.061000
     27 CBB         3.2120   -2.5080    6.7900 c2        1 KJZ     -0.503000
     28 CBC         2.6710    3.6390    5.9280 c2        1 KJZ     -0.105000
     29 CBD         2.2300    2.7410    4.8360 c2        1 KJZ     -0.061000
     30 OXT         0.0760    1.7380    0.2000 o         1 KJZ     -0.305000
     31 HA         -1.1730   -1.0960    1.2420 h1        1 KJZ      0.145500
     32 HAA        -1.4990    0.5590    1.9420 h1        1 KJZ      0.145500
     33 HAF        -0.2640    2.2390    2.7190 h4        1 KJZ      0.166000
     34 HAG         0.5390   -0.1460    7.5130 ha        1 KJZ      0.213000
     35 HAH         5.5700    0.9250    8.6340 ha        1 KJZ      0.214000
     36 HAI         1.8430    2.6490    9.0550 ha        1 KJZ      0.225000
     37 HAJ         3.5440    1.9700    8.6980 ha        1 KJZ      0.225000
     38 HAK         2.8200    4.8280    3.5250 ha        1 KJZ      0.255000
     39 HAL         5.3390   -2.6190    6.4320 h1        1 KJZ      0.122000
     40 HAM         0.1660    3.2920    4.9680 ha        1 KJZ      0.144000
     41 HAN         4.4960    0.2300    4.0400 ha        1 KJZ      0.138500
     42 HAO         3.1500    0.1610    5.3220 ha        1 KJZ      0.138500
     43 HAP         3.4650    5.5700    6.5110 ha        1 KJZ      0.165000
     44 HAQ         3.8490    2.5420    3.4140 ha        1 KJZ      0.131000
     45 HAR         1.2770   -1.7910    4.8160 hc        1 KJZ      0.148500
     46 HARA        1.1320   -4.1640    4.0820 hc        1 KJZ      0.145000
     47 HAS         2.3850   -3.8940    2.8020 hc        1 KJZ      0.145000
     48 HASA        2.6920   -1.4920    3.7240 hc        1 KJZ      0.148500
     49 HNAV        1.8540   -3.9740    6.4120 hn        1 KJZ      0.238000
     50 H           0.5110   -1.1900   -0.3140 ho        1 KJZ      0.250000
     51 HAV2        3.4040   -4.5240    6.7600 hn        1 KJZ      0.238000
     52 CLAE        4.9830   -3.5750    8.5260 cl        1 KJZ     -0.192000
@<TRIPOS>BOND
     1    1    3 1   
     2    1    4 1   
     3    1   30 1   
     4    2    4 1   
     5    2   21 1   
     6    2   24 1   
     7    3   50 1   
     8    4   31 1   
     9    4   32 1   
    10    5   23 1   
    11    6   24 1   
    12    7   21 1   
    13    7   26 1   
    14    7   33 1   
    15    8   13 1   
    16    8   35 1   
    17    9   15 1   
    18    9   34 1   
    19   10   16 1   
    20   10   36 1   
    21   10   37 1   
    22   11   18 1   
    23   11   41 1   
    24   11   42 1   
    25   12   14 1   
    26   12   17 1   
    27   12   38 1   
    28   13   25 1   
    29   15   27 1   
    30   16   28 1   
    31   17   28 1   
    32   17   43 1   
    33   18   29 1   
    34   18   44 1   
    35   19   20 1   
    36   19   23 1   
    37   19   46 1   
    38   19   47 1   
    39   20   24 1   
    40   20   45 1   
    41   20   48 1   
    42   22   23 1   
    43   22   27 1   
    44   22   49 1   
    45   22   51 1   
    46   25   27 1   
    47   25   39 1   
    48   25   52 1   
    49   26   29 1   
    50   26   40 1   
    51   28   29 1   
@<TRIPOS>SUBSTRUCTURE
     1 KJZ         1 TEMP              0 ****  ****    0 ROOT
