@<TRIPOS>MOLECULE
KJZ
   50    42     1     0     0
SMALL
bcc


@<TRIPOS>ATOM
      1 C          -2.3320   -0.1180   -3.4490 c1        1 KJZ      0.793000
      2 N          -2.0150   -0.6340   -1.1050 n         1 KJZ     -0.265500
      3 O          -1.0830    0.0590   -3.5600 o         1 KJZ     -0.805000
      4 CA         -2.9120   -0.7890   -2.1780 c2        1 KJZ      0.105400
      5 OAB        -1.2640    3.5540    2.3120 o         1 KJZ     -0.624100
      6 OAC        -1.0950    1.3580   -1.8470 o         1 KJZ     -0.586100
      7 CLAE       -1.4680    5.7340    4.1800 cl        1 KJZ     -0.120900
      8 CAF        -1.3470   -2.8040   -0.5030 c1        1 KJZ      0.246300
      9 CAG         2.0030    5.6310    5.9020 c1        1 KJZ     -0.071900
     10 CAH         2.7470    4.6350    5.2770 c1        1 KJZ     -0.071900
     11 CAI         3.1370   -4.2430   -2.8200 c1        1 KJZ     -0.071900
     12 CAJ         2.9290   -3.1750   -1.9330 c1        1 KJZ     -0.071900
     13 CAK        -1.7160   -4.7670   -3.3230 c1        1 KJZ     -0.071900
     14 CAL         0.7080    5.8910    5.4830 c1        1 KJZ     -0.071900
     15 CAM        -1.9280   -3.7120   -2.4470 c1        1 KJZ     -0.056500
     16 CAN         2.1900    3.9040    4.2350 c1        1 KJZ     -0.071900
     17 CAO         2.0310   -4.8890   -3.4180 c1        1 KJZ     -0.071900
     18 CAP        -0.3950   -5.1500   -3.6690 c1        1 KJZ     -0.071900
     19 CAQ         1.6240   -2.7490   -1.6390 c1        1 KJZ     -0.071900
     20 CAR        -0.1460    2.2160    0.6570 c3        1 KJZ     -0.149400
     21 CAS        -1.2470    1.1770    0.6160 c3        1 KJZ     -0.150400
     22 NAU        -1.9110   -1.6260   -0.1700 n1        1 KJZ     -0.399300
     23 NAV         0.9390    3.2600    2.7140 n         1 KJZ     -0.459700
     24 CAX        -0.2250    3.0060    1.9930 c         1 KJZ      0.662100
     25 CAY        -1.3990    0.6250   -0.8760 c         1 KJZ      0.707100
     26 CAZ         0.1610    5.1660    4.4520 c1        1 KJZ      0.028900
     27 CBA        -0.8320   -3.0210   -1.9000 cg        1 KJZ     -0.035000
     28 CBB         0.9080    4.1660    3.8240 c1        1 KJZ      0.080200
     29 CBC         0.7090   -4.4580   -3.1210 c1        1 KJZ     -0.036000
     30 CBD         0.5020   -3.4060   -2.2470 cg        1 KJZ     -0.018000
     31 OXT        -3.1090    0.2690   -4.3670 o         1 KJZ     -0.805000
     32 HA         -3.0490   -1.7390   -2.3470 h4        1 KJZ     -0.021700
     33 HAA        -3.8100   -0.3500   -1.9400 h4        1 KJZ     -0.021700
     34 HAF        -1.2750   -3.5030    0.1490 ha        1 KJZ      0.086500
     35 HAG         2.4050    6.1680    6.6290 ha        1 KJZ      0.078100
     36 HAH         3.6340    4.4540    5.5620 ha        1 KJZ      0.078100
     37 HAI         4.0800   -4.4780   -3.1120 ha        1 KJZ      0.078100
     38 HAJ         3.7150   -2.7170   -1.5070 ha        1 KJZ      0.078100
     39 HAK        -2.4490   -5.2270   -3.6930 ha        1 KJZ      0.078100
     40 HAL         0.1950    6.5750    5.9100 ha        1 KJZ      0.078100
     41 HAM        -2.8600   -3.4430   -2.2020 ha        1 KJZ      0.089500
     42 HAN         2.7060    3.1750    3.8080 ha        1 KJZ      0.078100
     43 HAO         2.1780   -5.6590   -4.0550 ha        1 KJZ      0.078100
     44 HAP        -0.2480   -5.8950   -4.2900 ha        1 KJZ      0.078100
     45 HAQ         1.4780   -1.9910   -1.0110 ha        1 KJZ      0.078100
     46 HAR         0.7290    1.7700    0.5920 hc        1 KJZ      0.071700
     47 HARA       -0.2520    2.8310   -0.0940 hc        1 KJZ      0.071700
     48 HAS        -2.0830    1.5820    0.8990 hc        1 KJZ      0.090200
     49 HASA       -1.0280    0.4590    1.1990 hc        1 KJZ      0.090200
     50 HNAV        1.7700    2.8790    2.4300 hn        1 KJZ      0.368500
@<TRIPOS>BOND
     1    1    3 2   
     2    1   31 2   
     3    2    4 2   
     4    2   22 1   
     5    2   25 1   
     6    4   32 1   
     7    4   33 1   
     8    5   24 2   
     9    6   25 2   
    10    7   26 1   
    11    8   22 3   
    12    8   34 1   
    13    9   14 3   
    14    9   35 1   
    15   10   16 3   
    16   10   36 1   
    17   11   17 3   
    18   11   37 1   
    19   12   19 3   
    20   12   38 1   
    21   13   18 3   
    22   13   39 1   
    23   14   40 1   
    24   15   27 3   
    25   15   41 1   
    26   16   42 1   
    27   17   43 1   
    28   18   44 1   
    29   19   45 1   
    30   20   21 1   
    31   20   24 1   
    32   20   46 1   
    33   20   47 1   
    34   21   25 1   
    35   21   48 1   
    36   21   49 1   
    37   23   24 1   
    38   23   28 1   
    39   23   50 1   
    40   26   28 3   
    41   27   30 1   
    42   29   30 3   
@<TRIPOS>SUBSTRUCTURE
     1 KJZ         1 TEMP              0 ****  ****    0 ROOT
