@<TRIPOS>MOLECULE
KJZ
   51    50     1     0     0
SMALL
bcc


@<TRIPOS>ATOM
      1 C           0.2990   -0.2970    0.7020 c2        1 KJZ      0.336000
      2 N          -2.1820    0.1210    0.9690 n4        1 KJZ     -0.004000
      3 O           1.4430   -0.2960    1.1870 o         1 KJZ     -0.509000
      4 CA         -0.8420    0.2480    1.6480 c3        1 KJZ     -0.261000
      5 OAB        -7.0040    1.3170   -0.1270 o         1 KJZ     -0.396000
      6 OAC        -2.9150    1.8720    2.3690 o         1 KJZ     -0.210000
      7 CAF        -2.2670   -2.2340    0.8470 c2        1 KJZ      0.021000
      8 CAG       -11.5770    4.9500   -1.5690 c1        1 KJZ     -0.100000
      9 CAH       -10.8300    2.7110   -0.8490 c1        1 KJZ     -0.043000
     10 CAI        -6.1030   -4.5790    3.0620 c3        1 KJZ     -0.252000
     11 CAJ        -5.9960   -1.8070    0.2560 c1        1 KJZ     -0.148000
     12 CAK        -3.8110   -5.8610   -1.2010 c2        1 KJZ     -0.514000
     13 CAL       -10.3950    5.0080   -1.3620 c1        1 KJZ     -0.192000
     14 CAM        -3.5710   -6.7310   -2.1660 c1        1 KJZ      0.297000
     15 CAN        -9.4870    2.6620   -0.4610 c2        1 KJZ     -0.174000
     16 CAO        -5.6920   -5.4610    1.9980 c1        1 KJZ     -0.083000
     17 CAP        -4.6160   -6.0380   -0.0260 c2        1 KJZ      0.119000
     18 CAQ        -5.2160   -2.6830    0.5050 c1        1 KJZ     -0.167000
     19 CAR        -5.1790    2.5760    0.8310 c3        1 KJZ     -0.183000
     20 CAS        -4.3030    1.4140    0.4110 c3        1 KJZ     -0.187000
     21 NAU        -2.8620   -1.1040    1.1200 n2        1 KJZ     -0.172000
     22 NAV        -7.2780    3.6020    0.0420 n         1 KJZ     -0.296000
     23 CAX        -6.5600    2.4380    0.2030 c2        1 KJZ      0.310000
     24 CAY        -3.1470    1.2370    1.3510 c2        1 KJZ      0.295000
     25 CAZ        -8.9910    5.0160   -1.0610 c3        1 KJZ      0.103000
     26 CBA        -2.9680   -3.5080    0.9420 c2        1 KJZ     -0.186000
     27 CBB        -8.5840    3.6810   -0.4760 c2        1 KJZ     -0.093000
     28 CBC        -4.8630   -5.0740    0.9080 c2        1 KJZ     -0.178000
     29 CBD        -4.2970   -3.7130    0.7880 c2        1 KJZ      0.118000
     30 OXT        -0.0820   -0.6790   -0.4420 o         1 KJZ     -0.509000
     31 HA         -0.6460    1.3340    1.8510 hx        1 KJZ      0.136500
     32 HAA        -0.8370   -0.3100    2.6180 hx        1 KJZ      0.136500
     33 HAF        -1.1950   -2.3130    0.5140 h4        1 KJZ      0.209000
     34 HAG       -11.1820    2.4050   -1.8380 ha        1 KJZ      0.105000
     35 HAH       -12.6230    4.9220   -1.7540 ha        1 KJZ      0.242000
     36 HAI        -6.6890   -1.0260    0.0340 ha        1 KJZ      0.250000
     37 HAJ        -7.2240   -4.6190    3.1290 hc        1 KJZ      0.105000
     38 HAK        -3.3230   -4.8620   -1.3170 ha        1 KJZ      0.214000
     39 HAL        -8.3800    5.2470   -1.9780 h1        1 KJZ      0.140000
     40 HAM        -2.2980   -4.3640    1.1420 ha        1 KJZ      0.162000
     41 HAN        -9.2190    1.6710   -0.0210 ha        1 KJZ      0.210000
     42 HAO        -5.7020   -5.0010    4.0240 hc        1 KJZ      0.105000
     43 HAP        -5.0750   -7.0370    0.1230 ha        1 KJZ      0.164000
     44 HAQ        -5.7870   -3.5070    2.9800 hc        1 KJZ      0.105000
     45 HAR        -4.9160    0.4610    0.4080 hc        1 KJZ      0.157500
     46 HARA       -4.6900    3.5440    0.5440 hc        1 KJZ      0.126000
     47 HAS        -5.3110    2.5810    1.9480 hc        1 KJZ      0.126000
     48 HASA       -3.9260    1.5710   -0.6350 hc        1 KJZ      0.157500
     49 HNAV       -6.8980    4.4510    0.4010 hn        1 KJZ      0.244000
     50 H          -1.9490    0.2340   -0.0520 hn        1 KJZ      0.268000
     51 CLAE       -8.6330    6.3510    0.0610 cl        1 KJZ     -0.106000
@<TRIPOS>BOND
     1    1    3 1   
     2    1    4 1   
     3    1   30 1   
     4    2    4 1   
     5    2   21 1   
     6    2   24 1   
     7    2   50 1   
     8    4   31 1   
     9    4   32 1   
    10    5   23 1   
    11    6   24 1   
    12    7   21 1   
    13    7   26 1   
    14    7   33 1   
    15    8   13 1   
    16    8   35 1   
    17    9   15 1   
    18    9   34 1   
    19   10   16 1   
    20   10   37 1   
    21   10   42 1   
    22   10   44 1   
    23   11   18 1   
    24   11   36 1   
    25   12   14 1   
    26   12   17 1   
    27   12   38 1   
    28   13   25 1   
    29   15   27 1   
    30   15   41 1   
    31   16   28 1   
    32   17   28 1   
    33   17   43 1   
    34   18   29 1   
    35   19   20 1   
    36   19   23 1   
    37   19   46 1   
    38   19   47 1   
    39   20   24 1   
    40   20   45 1   
    41   20   48 1   
    42   22   23 1   
    43   22   27 1   
    44   22   49 1   
    45   25   27 1   
    46   25   39 1   
    47   25   51 1   
    48   26   29 1   
    49   26   40 1   
    50   28   29 1   
@<TRIPOS>SUBSTRUCTURE
     1 KJZ         1 TEMP              0 ****  ****    0 ROOT
