@<TRIPOS>MOLECULE
KK1
   52    53     1     0     0
SMALL
bcc


@<TRIPOS>ATOM
      1 C01         0.0260   -0.1200   -0.0240 c3        1 KK1     -0.093100
      2 C02         1.5310   -0.0720    0.0270 c3        1 KK1     -0.080400
      3 C03         2.0360    0.0110    1.4520 c3        1 KK1     -0.079400
      4 C04         3.5480    0.0600    1.4990 c3        1 KK1     -0.079400
      5 C05         4.0510    0.1430    2.9240 c3        1 KK1     -0.079400
      6 C06         5.5630    0.1910    2.9690 c3        1 KK1     -0.077400
      7 C07         6.0620    0.2740    4.3960 c3        1 KK1     -0.094400
      8 C08         7.5900    0.3200    4.4100 c3        1 KK1      0.197800
      9 N09         8.1420    0.4400    5.7390 nu        1 KK1     -0.847900
     10 C10         9.4830    0.0980    5.9430 ca        1 KK1      0.705200
     11 C11        10.4270    0.1750    4.8750 ca        1 KK1     -0.462600
     12 C12        11.7790   -0.0690    5.1800 cp        1 KK1      0.558800
     13 N13        12.2050   -0.3800    6.4260 nb        1 KK1     -0.777000
     14 C14        11.2210   -0.4740    7.4020 ca        1 KK1      0.893900
     15 N15        11.6180   -0.9150    8.6730 nv        1 KK1     -0.925500
     16 N16         9.8710   -0.2370    7.2140 nb        1 KK1     -0.816000
     17 C17        12.7750    0.0260    4.0950 cp        1 KK1     -0.188500
     18 C18        14.0290    0.6150    4.3220 ca        1 KK1     -0.065500
     19 C19        14.9560    0.7170    3.2940 ca        1 KK1     -0.189000
     20 C20        14.6320    0.2140    2.0190 ca        1 KK1      0.135100
     21 O21        15.6200    0.3650    1.0670 os        1 KK1     -0.325900
     22 C22        15.3320   -0.1520   -0.2270 c3        1 KK1      0.112700
     23 C23        13.3890   -0.3850    1.7840 ca        1 KK1     -0.189000
     24 C24        12.4680   -0.4750    2.8260 ca        1 KK1     -0.065500
     25 H1         -0.3590   -1.0120    0.5270 hc        1 KK1      0.033033
     26 H2         -0.4140    0.7940    0.4410 hc        1 KK1      0.033033
     27 H3         -0.3250   -0.1810   -1.0820 hc        1 KK1      0.033033
     28 H4          1.9000    0.8160   -0.5520 hc        1 KK1      0.038700
     29 H5          1.9550   -0.9870   -0.4660 hc        1 KK1      0.038700
     30 H6          1.6150    0.9260    1.9470 hc        1 KK1      0.040200
     31 H7          1.6700   -0.8760    2.0330 hc        1 KK1      0.040200
     32 H8          3.9140    0.9470    0.9180 hc        1 KK1      0.040200
     33 H9          3.9690   -0.8550    1.0040 hc        1 KK1      0.040200
     34 H10         3.6850   -0.7450    3.5050 hc        1 KK1      0.042200
     35 H11         3.6300    1.0580    3.4180 hc        1 KK1      0.042200
     36 H12         5.9830   -0.7250    2.4740 hc        1 KK1      0.043700
     37 H13         5.9290    1.0790    2.3890 hc        1 KK1      0.043700
     38 H14         5.6440    1.1910    4.8880 hc        1 KK1      0.050200
     39 H15         5.6970   -0.6150    4.9750 hc        1 KK1      0.050200
     40 H16         7.9840   -0.6020    3.8900 h1        1 KK1      0.043700
     41 H17         7.9340    1.2160    3.8140 h1        1 KK1      0.043700
     42 H18         7.5130    0.2210    6.4830 hn        1 KK1      0.424800
     43 H19        10.1250    0.4490    3.8590 ha        1 KK1      0.153000
     44 H20        10.9950   -0.7180    9.4210 hn        1 KK1      0.422300
     45 H21        12.5870   -0.8300    8.8810 hn        1 KK1      0.422300
     46 H22        14.2830    0.9990    5.3220 ha        1 KK1      0.143500
     47 H23        15.9390    1.1790    3.4580 ha        1 KK1      0.144500
     48 H24        15.1530   -1.2540   -0.1810 h1        1 KK1      0.044700
     49 H25        16.2610    0.0730   -0.8090 h1        1 KK1      0.044700
     50 H26        14.4500    0.3700   -0.6720 h1        1 KK1      0.044700
     51 H27        13.1300   -0.7870    0.7950 ha        1 KK1      0.144500
     52 H28        11.4930   -0.9530    2.6460 ha        1 KK1      0.143500
@<TRIPOS>BOND
     1    1    2 1   
     2    1   25 1   
     3    1   26 1   
     4    1   27 1   
     5    2    3 1   
     6    2   28 1   
     7    2   29 1   
     8    3    4 1   
     9    3   30 1   
    10    3   31 1   
    11    4    5 1   
    12    4   32 1   
    13    4   33 1   
    14    5    6 1   
    15    5   34 1   
    16    5   35 1   
    17    6    7 1   
    18    6   36 1   
    19    6   37 1   
    20    7    8 1   
    21    7   38 1   
    22    7   39 1   
    23    8    9 1   
    24    8   40 1   
    25    8   41 1   
    26    9   10 1   
    27    9   42 1   
    28   10   11 ar  
    29   10   16 ar  
    30   11   12 ar  
    31   11   43 1   
    32   12   13 ar  
    33   12   17 1   
    34   13   14 ar  
    35   14   15 1   
    36   14   16 ar  
    37   15   44 1   
    38   15   45 1   
    39   17   18 ar  
    40   17   24 ar  
    41   18   19 ar  
    42   18   46 1   
    43   19   20 ar  
    44   19   47 1   
    45   20   21 1   
    46   20   23 ar  
    47   21   22 1   
    48   22   48 1   
    49   22   49 1   
    50   22   50 1   
    51   23   24 ar  
    52   23   51 1   
    53   24   52 1   
@<TRIPOS>SUBSTRUCTURE
     1 KK1         1 TEMP              0 ****  ****    0 ROOT
