@<TRIPOS>MOLECULE
KK1
   54    55     1     0     0
SMALL
bcc


@<TRIPOS>ATOM
      1 C01        -0.5680    0.2580    0.5190 c3        1 KK1     -0.096100
      2 C02         0.7200    0.9090    0.9530 c3        1 KK1     -0.078400
      3 C03         1.6450   -0.0880    1.6190 c3        1 KK1     -0.080400
      4 C04         2.9370    0.5710    2.0540 c3        1 KK1     -0.079400
      5 C05         3.8600   -0.4290    2.7180 c3        1 KK1     -0.080400
      6 C06         5.1510    0.2350    3.1520 c3        1 KK1     -0.077400
      7 C07         6.0690   -0.7760    3.8170 c3        1 KK1     -0.114400
      8 C08         7.3530   -0.0740    4.2380 c3        1 KK1      0.111800
      9 N09         8.3140   -1.0250    4.9030 n4        1 KK1     -0.756700
     10 C10         9.5960   -0.3690    5.2470 ca        1 KK1      0.542200
     11 C11        10.7160   -0.5500    4.4310 ca        1 KK1     -0.318600
     12 C12        11.9470    0.1030    4.8090 cp        1 KK1      0.637800
     13 N13        11.9820    0.8590    5.9540 nb        1 KK1     -0.691000
     14 C14        10.8250    0.9520    6.6670 ca        1 KK1      0.775900
     15 N15        10.8980    1.7810    7.9110 n4        1 KK1     -0.821300
     16 N16         9.6080    0.3930    6.3910 nb        1 KK1     -0.726000
     17 C17        13.1330   -0.0370    4.0100 cp        1 KK1     -0.298500
     18 C18        14.4120    0.2850    4.5420 ca        1 KK1     -0.006500
     19 C19        15.5550    0.1440    3.7870 ca        1 KK1     -0.202500
     20 C20        15.4620   -0.3170    2.4480 ca        1 KK1      0.253100
     21 O21        16.6400   -0.4210    1.7910 os        1 KK1     -0.276900
     22 C22        16.6150   -0.8810    0.4320 c3        1 KK1      0.099700
     23 C23        14.1970   -0.6260    1.8970 ca        1 KK1     -0.202500
     24 C24        13.0620   -0.4870    2.6680 ca        1 KK1     -0.006500
     25 H1         -1.1070   -0.1760    1.3950 hc        1 KK1      0.041033
     26 H2         -0.3690   -0.5630   -0.2120 hc        1 KK1      0.041033
     27 H3         -1.2350    1.0100    0.0310 hc        1 KK1      0.041033
     28 H4          0.4970    1.7470    1.6660 hc        1 KK1      0.041700
     29 H5          1.2330    1.3610    0.0630 hc        1 KK1      0.041700
     30 H6          1.1330   -0.5390    2.5090 hc        1 KK1      0.045200
     31 H7          1.8690   -0.9250    0.9050 hc        1 KK1      0.045200
     32 H8          3.4470    1.0220    1.1620 hc        1 KK1      0.045700
     33 H9          2.7100    1.4080    2.7660 hc        1 KK1      0.045700
     34 H10         4.0840   -1.2650    2.0040 hc        1 KK1      0.051700
     35 H11         3.3460   -0.8790    3.6090 hc        1 KK1      0.051700
     36 H12         5.6610    0.6830    2.2590 hc        1 KK1      0.057200
     37 H13         4.9220    1.0690    3.8670 hc        1 KK1      0.057200
     38 H14         5.5480   -1.2200    4.7070 hc        1 KK1      0.074200
     39 H15         6.2890   -1.6070    3.0940 hc        1 KK1      0.074200
     40 H16         7.1240    0.7510    4.9730 hx        1 KK1      0.113200
     41 H17         7.8720    0.3670    3.3400 hx        1 KK1      0.113200
     42 H18         7.8710   -1.4040    5.7550 hn        1 KK1      0.475300
     43 H19        10.6970   -1.1880    3.5330 ha        1 KK1      0.200000
     44 H20        11.5320    1.3200    8.5810 hn        1 KK1      0.494467
     45 H21        11.2750    2.7120    7.6760 hn        1 KK1      0.494467
     46 H22        14.5090    0.6420    5.5810 ha        1 KK1      0.145000
     47 H23        16.5500    0.3820    4.2000 ha        1 KK1      0.182000
     48 H24        16.0310   -0.1730   -0.2040 h1        1 KK1      0.075033
     49 H25        17.7010   -0.8710    0.1520 h1        1 KK1      0.075033
     50 H26        16.1980   -1.9150    0.3820 h1        1 KK1      0.075033
     51 H27        14.1170   -0.9690    0.8530 ha        1 KK1      0.182000
     52 H28        12.0880   -0.7080    2.2030 ha        1 KK1      0.145000
     53 H092        8.5120   -1.8100    4.2670 hn        1 KK1      0.475300
     54 H153        9.9650    1.8830    8.3350 hn        1 KK1      0.494467
@<TRIPOS>BOND
     1    1    2 1   
     2    1   25 1   
     3    1   26 1   
     4    1   27 1   
     5    2    3 1   
     6    2   28 1   
     7    2   29 1   
     8    3    4 1   
     9    3   30 1   
    10    3   31 1   
    11    4    5 1   
    12    4   32 1   
    13    4   33 1   
    14    5    6 1   
    15    5   34 1   
    16    5   35 1   
    17    6    7 1   
    18    6   36 1   
    19    6   37 1   
    20    7    8 1   
    21    7   38 1   
    22    7   39 1   
    23    8    9 1   
    24    8   40 1   
    25    8   41 1   
    26    9   10 1   
    27    9   42 1   
    28    9   53 1   
    29   10   11 ar  
    30   10   16 ar  
    31   11   12 ar  
    32   11   43 1   
    33   12   13 ar  
    34   12   17 1   
    35   13   14 ar  
    36   14   15 1   
    37   14   16 ar  
    38   15   44 1   
    39   15   45 1   
    40   15   54 1   
    41   17   18 ar  
    42   17   24 ar  
    43   18   19 ar  
    44   18   46 1   
    45   19   20 ar  
    46   19   47 1   
    47   20   21 1   
    48   20   23 ar  
    49   21   22 1   
    50   22   48 1   
    51   22   49 1   
    52   22   50 1   
    53   23   24 ar  
    54   23   51 1   
    55   24   52 1   
@<TRIPOS>SUBSTRUCTURE
     1 KK1         1 TEMP              0 ****  ****    0 ROOT
