@<TRIPOS>MOLECULE
KK1
   52    53     1     0     0
SMALL
bcc


@<TRIPOS>ATOM
      1 C01         0.0230   -0.1310   -0.0170 c3        1 KK1     -0.093100
      2 C02         1.5280   -0.0790    0.0330 c3        1 KK1     -0.080400
      3 C03         2.0340   -0.0010    1.4580 c3        1 KK1     -0.079400
      4 C04         3.5460    0.0520    1.5030 c3        1 KK1     -0.079400
      5 C05         4.0500    0.1310    2.9280 c3        1 KK1     -0.079400
      6 C06         5.5630    0.1830    2.9720 c3        1 KK1     -0.077400
      7 C07         6.0630    0.2630    4.3990 c3        1 KK1     -0.094400
      8 C08         7.5900    0.3140    4.4110 c3        1 KK1      0.197800
      9 N09         8.1430    0.4310    5.7400 nh        1 KK1     -0.847900
     10 C10         9.4850    0.0930    5.9420 ca        1 KK1      0.705200
     11 C11        10.4280    0.1760    4.8740 ca        1 KK1     -0.462600
     12 C12        11.7810   -0.0660    5.1760 cp        1 KK1      0.558800
     13 N13        12.2090   -0.3800    6.4210 nb        1 KK1     -0.777000
     14 C14        11.2260   -0.4790    7.3980 ca        1 KK1      0.893900
     15 N15        11.6260   -0.9230    8.6670 nh        1 KK1     -0.925500
     16 N16         9.8760   -0.2460    7.2120 nb        1 KK1     -0.816000
     17 C17        12.7760    0.0350    4.0910 cp        1 KK1     -0.188500
     18 C18        14.0280    0.6260    4.3190 ca        1 KK1     -0.065500
     19 C19        14.9540    0.7340    3.2900 ca        1 KK1     -0.189000
     20 C20        14.6300    0.2340    2.0140 ca        1 KK1      0.135100
     21 O21        15.6180    0.3910    1.0620 os        1 KK1     -0.325900
     22 C22        15.3300   -0.1230   -0.2330 c3        1 KK1      0.112700
     23 C23        13.3890   -0.3680    1.7780 ca        1 KK1     -0.189000
     24 C24        12.4690   -0.4630    2.8210 ca        1 KK1     -0.065500
     25 H1         -0.4190    0.7810    0.4530 hc        1 KK1      0.033033
     26 H2         -0.3280   -0.1880   -1.0750 hc        1 KK1      0.033033
     27 H3         -0.3590   -1.0260    0.5300 hc        1 KK1      0.033033
     28 H4          1.8940    0.8130   -0.5420 hc        1 KK1      0.038700
     29 H5          1.9540   -0.9900   -0.4650 hc        1 KK1      0.038700
     30 H6          1.6110    0.9110    1.9570 hc        1 KK1      0.040200
     31 H7          1.6710   -0.8920    2.0340 hc        1 KK1      0.040200
     32 H8          3.9090    0.9440    0.9260 hc        1 KK1      0.040200
     33 H9          3.9700   -0.8590    1.0040 hc        1 KK1      0.040200
     34 H10         3.6880   -0.7610    3.5050 hc        1 KK1      0.042200
     35 H11         3.6270    1.0420    3.4270 hc        1 KK1      0.042200
     36 H12         5.9850   -0.7290    2.4730 hc        1 KK1      0.043700
     37 H13         5.9250    1.0750    2.3950 hc        1 KK1      0.043700
     38 H14         5.7010   -0.6290    4.9750 hc        1 KK1      0.050200
     39 H15         5.6420    1.1770    4.8950 hc        1 KK1      0.050200
     40 H16         7.9870   -0.6050    3.8880 h1        1 KK1      0.043700
     41 H17         7.9310    1.2120    3.8180 h1        1 KK1      0.043700
     42 H18         7.5160    0.2090    6.4840 hn        1 KK1      0.424800
     43 H19        10.1250    0.4520    3.8590 ha        1 KK1      0.153000
     44 H20        12.5940   -0.8360    8.8750 hn        1 KK1      0.422300
     45 H21        11.0020   -0.7300    9.4160 hn        1 KK1      0.422300
     46 H22        14.2820    1.0080    5.3200 ha        1 KK1      0.143500
     47 H23        15.9360    1.1990    3.4550 ha        1 KK1      0.144500
     48 H24        16.2570    0.1060   -0.8160 h1        1 KK1      0.044700
     49 H25        15.1540   -1.2260   -0.1900 h1        1 KK1      0.044700
     50 H26        14.4470    0.3980   -0.6770 h1        1 KK1      0.044700
     51 H27        13.1310   -0.7680    0.7880 ha        1 KK1      0.144500
     52 H28        11.4950   -0.9440    2.6400 ha        1 KK1      0.143500
@<TRIPOS>BOND
     1    1    2 1   
     2    1   25 1   
     3    1   26 1   
     4    1   27 1   
     5    2    3 1   
     6    2   28 1   
     7    2   29 1   
     8    3    4 1   
     9    3   30 1   
    10    3   31 1   
    11    4    5 1   
    12    4   32 1   
    13    4   33 1   
    14    5    6 1   
    15    5   34 1   
    16    5   35 1   
    17    6    7 1   
    18    6   36 1   
    19    6   37 1   
    20    7    8 1   
    21    7   38 1   
    22    7   39 1   
    23    8    9 1   
    24    8   40 1   
    25    8   41 1   
    26    9   10 1   
    27    9   42 1   
    28   10   11 ar  
    29   10   16 ar  
    30   11   12 ar  
    31   11   43 1   
    32   12   13 ar  
    33   12   17 1   
    34   13   14 ar  
    35   14   15 1   
    36   14   16 ar  
    37   15   44 1   
    38   15   45 1   
    39   17   18 ar  
    40   17   24 ar  
    41   18   19 ar  
    42   18   46 1   
    43   19   20 ar  
    44   19   47 1   
    45   20   21 1   
    46   20   23 ar  
    47   21   22 1   
    48   22   48 1   
    49   22   49 1   
    50   22   50 1   
    51   23   24 ar  
    52   23   51 1   
    53   24   52 1   
@<TRIPOS>SUBSTRUCTURE
     1 KK1         1 TEMP              0 ****  ****    0 ROOT
