@<TRIPOS>MOLECULE
KK2
   39    41     1     0     0
SMALL
bcc


@<TRIPOS>ATOM
      1 C1          0.0290   -0.3570    0.3450 c3        1 KK2      0.164800
      2 C2          1.5600   -0.3600    0.4340 c3        1 KK2      0.115400
      3 O1          2.0070   -0.0090    1.7350 os        1 KK2     -0.384600
      4 C3          1.5850    1.2980    2.0870 c3        1 KK2      0.115400
      5 C4          0.0550    1.4260    2.0910 c3        1 KK2      0.164800
      6 N2         -0.5990    0.8110    0.9460 nh        1 KK2     -0.724300
      7 C6         -1.9500    1.0280    0.7670 ca        1 KK2      0.731200
      8 C5         -2.6640    2.0330    1.5190 ca        1 KK2     -0.379600
      9 N1         -2.6310    0.2960   -0.1960 nb        1 KK2     -0.774000
     10 C7         -3.9390    0.6360   -0.3690 ca        1 KK2      0.749900
     11 N4         -4.6580   -0.1480   -1.4270 n4        1 KK2     -0.821300
     12 N3         -4.6880    1.5720    0.2710 nb        1 KK2     -0.717000
     13 C8         -4.0120    2.2760    1.2350 cp        1 KK2      0.561800
     14 C9         -4.7410    3.3140    1.9840 cp        1 KK2     -0.165500
     15 C10        -6.0460    3.0850    2.4390 ca        1 KK2     -0.096500
     16 C11        -6.7130    4.0730    3.1630 ca        1 KK2     -0.081000
     17 C12        -6.0790    5.2890    3.4230 ca        1 KK2     -0.133300
     18 C13        -6.8050    6.3660    4.2300 c3        1 KK2      0.686200
     19 F1         -8.1710    6.3430    4.0960 f         1 KK2     -0.224633
     20 F2         -6.5890    6.2770    5.5830 f         1 KK2     -0.224633
     21 F3         -6.4450    7.6490    3.9050 f         1 KK2     -0.224633
     22 C14        -4.7820    5.5270    2.9630 ca        1 KK2     -0.081000
     23 C15        -4.1110    4.5400    2.2450 ca        1 KK2     -0.096500
     24 H1         -0.3670   -1.2840    0.8530 h1        1 KK2      0.067950
     25 H2         -0.2440   -0.4040   -0.7470 h1        1 KK2      0.067950
     26 H3          1.9430   -1.4030    0.2730 h1        1 KK2      0.076450
     27 H4          2.0030    0.3370   -0.3260 h1        1 KK2      0.076450
     28 H5          1.9750    1.4540    3.1280 h1        1 KK2      0.076450
     29 H6          2.0390    2.0490    1.3870 h1        1 KK2      0.076450
     30 H7         -0.3480    0.9640    3.0390 h1        1 KK2      0.067950
     31 H8         -0.1810    2.5290    2.0960 h1        1 KK2      0.067950
     32 H9         -2.1750    2.6020    2.3230 ha        1 KK2      0.187000
     33 H10        -4.1860   -0.0070   -2.3270 hn        1 KK2      0.478133
     34 H11        -4.6350   -1.1440   -1.1810 hn        1 KK2      0.478133
     35 H12        -6.5520    2.1290    2.2350 ha        1 KK2      0.149000
     36 H13        -7.7400    3.8990    3.5240 ha        1 KK2      0.170000
     37 H14        -4.2950    6.4970    3.1640 ha        1 KK2      0.170000
     38 H15        -3.0930    4.7330    1.8740 ha        1 KK2      0.149000
     39 H43        -5.6340    0.1700   -1.4940 hn        1 KK2      0.478133
@<TRIPOS>BOND
     1    1    2 1   
     2    1    6 1   
     3    1   24 1   
     4    1   25 1   
     5    2    3 1   
     6    2   26 1   
     7    2   27 1   
     8    3    4 1   
     9    4    5 1   
    10    4   28 1   
    11    4   29 1   
    12    5    6 1   
    13    5   30 1   
    14    5   31 1   
    15    6    7 1   
    16    7    8 ar  
    17    7    9 ar  
    18    8   13 ar  
    19    8   32 1   
    20    9   10 ar  
    21   10   11 1   
    22   10   12 ar  
    23   11   33 1   
    24   11   34 1   
    25   11   39 1   
    26   12   13 ar  
    27   13   14 1   
    28   14   15 ar  
    29   14   23 ar  
    30   15   16 ar  
    31   15   35 1   
    32   16   17 ar  
    33   16   36 1   
    34   17   18 1   
    35   17   22 ar  
    36   18   19 1   
    37   18   20 1   
    38   18   21 1   
    39   22   23 ar  
    40   22   37 1   
    41   23   38 1   
@<TRIPOS>SUBSTRUCTURE
     1 KK2         1 TEMP              0 ****  ****    0 ROOT
