@<TRIPOS>MOLECULE
KK2
   38    40     1     0     0
SMALL
bcc


@<TRIPOS>ATOM
      1 C1          0.1330   -0.0120    0.0560 c3        1 KK2      0.153300
      2 C2          1.6590    0.0870    0.1820 c3        1 KK2      0.121400
      3 O1          2.0850    0.0030    1.5370 os        1 KK2     -0.410600
      4 C3          1.4760    0.9980    2.3490 c3        1 KK2      0.121400
      5 C4         -0.0560    0.9210    2.2880 c3        1 KK2      0.153300
      6 N2         -0.5480    0.9490    0.9150 nh        1 KK2     -0.734300
      7 C6         -1.9580    1.0580    0.7810 ca        1 KK2      0.695200
      8 C5         -2.6420    2.0980    1.4850 ca        1 KK2     -0.432600
      9 N1         -2.6280    0.2350   -0.0770 nb        1 KK2     -0.800000
     10 C7         -3.9880    0.4570   -0.2260 ca        1 KK2      0.894900
     11 N4         -4.6960   -0.4470   -1.0260 nv        1 KK2     -0.927500
     12 N3         -4.7150    1.4580    0.4030 nb        1 KK2     -0.764000
     13 C8         -4.0190    2.2510    1.2480 cp        1 KK2      0.533800
     14 C9         -4.7390    3.3340    1.9520 cp        1 KK2     -0.121500
     15 C10        -6.0030    3.1040    2.5100 ca        1 KK2     -0.106000
     16 C11        -6.6620    4.1280    3.1880 ca        1 KK2     -0.089500
     17 C12        -6.0620    5.3830    3.3010 ca        1 KK2     -0.159300
     18 C13        -6.7740    6.4980    4.0580 c3        1 KK2      0.687200
     19 F1         -8.1460    6.4240    4.0300 f         1 KK2     -0.236633
     20 F2         -6.4710    6.5490    5.3980 f         1 KK2     -0.236633
     21 F3         -6.4960    7.7650    3.6050 f         1 KK2     -0.236633
     22 C14        -4.8080    5.6230    2.7370 ca        1 KK2     -0.089500
     23 C15        -4.1470    4.5990    2.0620 ca        1 KK2     -0.106000
     24 H1         -0.1800   -1.0680    0.2970 h1        1 KK2      0.057700
     25 H2         -0.1460    0.2040   -1.0130 h1        1 KK2      0.057700
     26 H3          2.1390   -0.7940   -0.3180 h1        1 KK2      0.057950
     27 H4          2.0350    1.0420   -0.2710 h1        1 KK2      0.057950
     28 H5          1.8260    0.7670    3.3890 h1        1 KK2      0.057950
     29 H6          1.8350    2.0130    2.0350 h1        1 KK2      0.057950
     30 H7         -0.3880   -0.0230    2.8110 h1        1 KK2      0.057700
     31 H8         -0.4730    1.8000    2.8510 h1        1 KK2      0.057700
     32 H9         -2.1200    2.7730    2.1720 ha        1 KK2      0.157000
     33 H10        -5.5930   -0.1550   -1.3370 hn        1 KK2      0.428300
     34 H11        -4.1630   -0.9910   -1.6640 hn        1 KK2      0.428300
     35 H12        -6.4800    2.1160    2.4130 ha        1 KK2      0.154500
     36 H13        -7.6570    3.9520    3.6280 ha        1 KK2      0.153500
     37 H14        -4.3490    6.6210    2.8200 ha        1 KK2      0.153500
     38 H15        -3.1620    4.7880    1.6090 ha        1 KK2      0.154500
@<TRIPOS>BOND
     1    1    2 1   
     2    1    6 1   
     3    1   24 1   
     4    1   25 1   
     5    2    3 1   
     6    2   26 1   
     7    2   27 1   
     8    3    4 1   
     9    4    5 1   
    10    4   28 1   
    11    4   29 1   
    12    5    6 1   
    13    5   30 1   
    14    5   31 1   
    15    6    7 1   
    16    7    8 ar  
    17    7    9 ar  
    18    8   13 ar  
    19    8   32 1   
    20    9   10 ar  
    21   10   11 1   
    22   10   12 ar  
    23   11   33 1   
    24   11   34 1   
    25   12   13 ar  
    26   13   14 1   
    27   14   15 ar  
    28   14   23 ar  
    29   15   16 ar  
    30   15   35 1   
    31   16   17 ar  
    32   16   36 1   
    33   17   18 1   
    34   17   22 ar  
    35   18   19 1   
    36   18   20 1   
    37   18   21 1   
    38   22   23 ar  
    39   22   37 1   
    40   23   38 1   
@<TRIPOS>SUBSTRUCTURE
     1 KK2         1 TEMP              0 ****  ****    0 ROOT
