@<TRIPOS>MOLECULE
KK2
   38    40     1     0     0
SMALL
bcc


@<TRIPOS>ATOM
      1 C1          0.1330   -0.0160    0.0630 c3        1 KK2      0.153300
      2 C2          1.6590    0.0800    0.1950 c3        1 KK2      0.121400
      3 O1          2.0800   -0.0080    1.5510 os        1 KK2     -0.410600
      4 C3          1.4700    0.9880    2.3620 c3        1 KK2      0.121400
      5 C4         -0.0610    0.9140    2.2960 c3        1 KK2      0.153300
      6 N2         -0.5480    0.9450    0.9210 nh        1 KK2     -0.734300
      7 C6         -1.9570    1.0580    0.7820 ca        1 KK2      0.695200
      8 C5         -2.6410    2.0970    1.4850 ca        1 KK2     -0.432600
      9 N1         -2.6260    0.2380   -0.0800 nb        1 KK2     -0.800000
     10 C7         -3.9850    0.4620   -0.2330 ca        1 KK2      0.894900
     11 N4         -4.6920   -0.4390   -1.0370 nh        1 KK2     -0.927500
     12 N3         -4.7130    1.4640    0.3950 nb        1 KK2     -0.764000
     13 C8         -4.0180    2.2540    1.2440 cp        1 KK2      0.533800
     14 C9         -4.7380    3.3370    1.9460 cp        1 KK2     -0.121500
     15 C10        -6.0040    3.1100    2.4990 ca        1 KK2     -0.106000
     16 C11        -6.6640    4.1340    3.1760 ca        1 KK2     -0.089500
     17 C12        -6.0610    5.3880    3.2940 ca        1 KK2     -0.159300
     18 C13        -6.7740    6.5020    4.0500 c3        1 KK2      0.687200
     19 F1         -8.1450    6.4330    4.0150 f         1 KK2     -0.236633
     20 F2         -6.4760    6.5500    5.3910 f         1 KK2     -0.236633
     21 F3         -6.4900    7.7700    3.6010 f         1 KK2     -0.236633
     22 C14        -4.8040    5.6260    2.7340 ca        1 KK2     -0.089500
     23 C15        -4.1430    4.6010    2.0610 ca        1 KK2     -0.106000
     24 H1         -0.1830   -1.0720    0.3020 h1        1 KK2      0.057700
     25 H2         -0.1410    0.2020   -1.0070 h1        1 KK2      0.057700
     26 H3          2.0390    1.0340   -0.2560 h1        1 KK2      0.057950
     27 H4          2.1390   -0.8020   -0.3050 h1        1 KK2      0.057950
     28 H5          1.8330    2.0030    2.0520 h1        1 KK2      0.057950
     29 H6          1.8160    0.7540    3.4040 h1        1 KK2      0.057950
     30 H7         -0.3970   -0.0300    2.8160 h1        1 KK2      0.057700
     31 H8         -0.4780    1.7930    2.8590 h1        1 KK2      0.057700
     32 H9         -2.1210    2.7710    2.1750 ha        1 KK2      0.157000
     33 H10        -4.1580   -0.9830   -1.6740 hn        1 KK2      0.428300
     34 H11        -5.5880   -0.1440   -1.3510 hn        1 KK2      0.428300
     35 H12        -6.4830    2.1230    2.3990 ha        1 KK2      0.154500
     36 H13        -7.6610    3.9600    3.6120 ha        1 KK2      0.153500
     37 H14        -4.3430    6.6230    2.8210 ha        1 KK2      0.153500
     38 H15        -3.1560    4.7890    1.6120 ha        1 KK2      0.154500
@<TRIPOS>BOND
     1    1    2 1   
     2    1    6 1   
     3    1   24 1   
     4    1   25 1   
     5    2    3 1   
     6    2   26 1   
     7    2   27 1   
     8    3    4 1   
     9    4    5 1   
    10    4   28 1   
    11    4   29 1   
    12    5    6 1   
    13    5   30 1   
    14    5   31 1   
    15    6    7 1   
    16    7    8 ar  
    17    7    9 ar  
    18    8   13 ar  
    19    8   32 1   
    20    9   10 ar  
    21   10   11 1   
    22   10   12 ar  
    23   11   33 1   
    24   11   34 1   
    25   12   13 ar  
    26   13   14 1   
    27   14   15 ar  
    28   14   23 ar  
    29   15   16 ar  
    30   15   35 1   
    31   16   17 ar  
    32   16   36 1   
    33   17   18 1   
    34   17   22 ar  
    35   18   19 1   
    36   18   20 1   
    37   18   21 1   
    38   22   23 ar  
    39   22   37 1   
    40   23   38 1   
@<TRIPOS>SUBSTRUCTURE
     1 KK2         1 TEMP              0 ****  ****    0 ROOT
