@<TRIPOS>MOLECULE
KK3
   43    45     1     0     0
SMALL
bcc


@<TRIPOS>ATOM
      1 C1          0.0720   -0.0060    0.0040 c3        1 KK3      0.191300
      2 C3          1.5910   -0.0900    0.1440 c3        1 KK3     -0.078400
      3 C7          2.0560   -0.0090    1.5880 c3        1 KK3     -0.066700
      4 C8          1.9280    1.3940    2.1420 c3        1 KK3     -0.093100
      5 C9          1.2960   -1.0190    2.4310 c3        1 KK3     -0.078400
      6 C10        -0.2170   -0.9110    2.2500 c3        1 KK3      0.191300
      7 N2         -0.6230   -0.9670    0.8520 nh        1 KK3     -0.736300
      8 C4         -2.0150   -1.1360    0.6360 ca        1 KK3      0.697200
      9 C5         -2.6850   -2.2280    1.2720 ca        1 KK3     -0.431600
     10 N3         -2.6840   -0.3100   -0.2200 nb        1 KK3     -0.803000
     11 C2         -4.0150   -0.6070   -0.4680 ca        1 KK3      0.893900
     12 N4         -4.6660    0.1540   -1.4460 nh        1 KK3     -0.928500
     13 N1         -4.7410   -1.6230    0.1370 nb        1 KK3     -0.766000
     14 C6         -4.0480   -2.4170    0.9860 cp        1 KK3      0.530800
     15 C11        -4.7590   -3.5330    1.6450 cp        1 KK3     -0.118500
     16 C12        -6.0440   -3.3500    2.1690 ca        1 KK3     -0.107000
     17 C13        -6.6960   -4.4070    2.8040 ca        1 KK3     -0.089000
     18 C14        -6.0640   -5.6470    2.9100 ca        1 KK3     -0.161300
     19 C15        -6.7820   -6.8060    3.5890 c3        1 KK3      0.687200
     20 F1         -7.6680   -6.4340    4.5720 f         1 KK3     -0.237300
     21 F2         -7.5340   -7.5800    2.7380 f         1 KK3     -0.237300
     22 F3         -5.9510   -7.7070    4.2110 f         1 KK3     -0.237300
     23 C16        -4.7860   -5.8400    2.3810 ca        1 KK3     -0.089000
     24 C17        -4.1340   -4.7830    1.7490 ca        1 KK3     -0.107000
     25 H1         -0.2560    1.0490    0.2370 h1        1 KK3      0.046700
     26 H2         -0.1960   -0.2250   -1.0680 h1        1 KK3      0.046700
     27 H3          1.9540   -1.0540   -0.3010 hc        1 KK3      0.050700
     28 H4          2.0370    0.7510   -0.4490 hc        1 KK3      0.050700
     29 H5          3.1490   -0.2890    1.6170 hc        1 KK3      0.049700
     30 H6          0.8640    1.7330    2.1270 hc        1 KK3      0.035700
     31 H7          2.2970    1.4300    3.1950 hc        1 KK3      0.035700
     32 H8          2.5320    2.1070    1.5300 hc        1 KK3      0.035700
     33 H9          1.6330   -2.0530    2.1530 hc        1 KK3      0.050700
     34 H10         1.5250   -0.8630    3.5170 hc        1 KK3      0.050700
     35 H11        -0.5680    0.0530    2.7240 h1        1 KK3      0.046700
     36 H12        -0.7020   -1.7610    2.8070 h1        1 KK3      0.046700
     37 H13        -2.1600   -2.9110    1.9490 ha        1 KK3      0.158000
     38 H14        -4.2470    1.0210   -1.6900 hn        1 KK3      0.427300
     39 H15        -5.6590    0.1270   -1.4440 hn        1 KK3      0.427300
     40 H16        -6.5460   -2.3750    2.0780 ha        1 KK3      0.153500
     41 H17        -7.7040   -4.2650    3.2240 ha        1 KK3      0.153000
     42 H18        -4.2980   -6.8230    2.4670 ha        1 KK3      0.153000
     43 H19        -3.1300   -4.9350    1.3240 ha        1 KK3      0.153500
@<TRIPOS>BOND
     1    1    2 1   
     2    1    7 1   
     3    1   25 1   
     4    1   26 1   
     5    2    3 1   
     6    2   27 1   
     7    2   28 1   
     8    3    4 1   
     9    3    5 1   
    10    3   29 1   
    11    4   30 1   
    12    4   31 1   
    13    4   32 1   
    14    5    6 1   
    15    5   33 1   
    16    5   34 1   
    17    6    7 1   
    18    6   35 1   
    19    6   36 1   
    20    7    8 1   
    21    8    9 ar  
    22    8   10 ar  
    23    9   14 ar  
    24    9   37 1   
    25   10   11 ar  
    26   11   12 1   
    27   11   13 ar  
    28   12   38 1   
    29   12   39 1   
    30   13   14 ar  
    31   14   15 1   
    32   15   16 ar  
    33   15   24 ar  
    34   16   17 ar  
    35   16   40 1   
    36   17   18 ar  
    37   17   41 1   
    38   18   19 1   
    39   18   23 ar  
    40   19   20 1   
    41   19   21 1   
    42   19   22 1   
    43   23   24 ar  
    44   23   42 1   
    45   24   43 1   
@<TRIPOS>SUBSTRUCTURE
     1 KK3         1 TEMP              0 ****  ****    0 ROOT
