@<TRIPOS>MOLECULE
KK3
   43    45     1     0     0
SMALL
bcc


@<TRIPOS>ATOM
      1 C1          0.1020   -0.0220    0.0300 c3        1 KK3      0.191300
      2 C3          1.6180   -0.1070    0.1960 c3        1 KK3     -0.078400
      3 C7          2.0580   -0.0160    1.6470 c3        1 KK3     -0.066700
      4 C8          1.9230    1.3920    2.1870 c3        1 KK3     -0.093100
      5 C9          1.2820   -1.0190    2.4850 c3        1 KK3     -0.078400
      6 C10        -0.2270   -0.9090    2.2770 c3        1 KK3      0.191300
      7 N2         -0.6100   -0.9750    0.8720 nh        1 KK3     -0.736300
      8 C4         -1.9980   -1.1430    0.6350 ca        1 KK3      0.697200
      9 C5         -2.6810   -2.2290    1.2670 ca        1 KK3     -0.431600
     10 N3         -2.6510   -0.3220   -0.2390 nb        1 KK3     -0.803000
     11 C2         -3.9780   -0.6180   -0.5070 ca        1 KK3      0.893900
     12 N4         -4.6110    0.1360   -1.5020 nv        1 KK3     -0.928500
     13 N1         -4.7160   -1.6290    0.0930 nb        1 KK3     -0.766000
     14 C6         -4.0390   -2.4180    0.9600 cp        1 KK3      0.530800
     15 C11        -4.7630   -3.5270    1.6150 cp        1 KK3     -0.118500
     16 C12        -6.0570   -3.3380    2.1170 ca        1 KK3     -0.107000
     17 C13        -6.7210   -4.3880    2.7490 ca        1 KK3     -0.089000
     18 C14        -6.0940   -5.6290    2.8740 ca        1 KK3     -0.161300
     19 C15        -6.8260   -6.7820    3.5500 c3        1 KK3      0.687200
     20 F1         -7.7230   -6.4010    4.5180 f         1 KK3     -0.237300
     21 F2         -7.5690   -7.5580    2.6920 f         1 KK3     -0.237300
     22 F3         -6.0070   -7.6830    4.1880 f         1 KK3     -0.237300
     23 C16        -4.8080   -5.8280    2.3670 ca        1 KK3     -0.089000
     24 C17        -4.1440   -4.7780    1.7390 ca        1 KK3     -0.107000
     25 H1         -0.2290    1.0350    0.2480 h1        1 KK3      0.046700
     26 H2         -0.1480   -0.2490   -1.0450 h1        1 KK3      0.046700
     27 H3          1.9870   -1.0750   -0.2350 hc        1 KK3      0.050700
     28 H4          2.0750    0.7280   -0.3960 hc        1 KK3      0.050700
     29 H5          3.1500   -0.2970    1.6970 hc        1 KK3      0.049700
     30 H6          2.5380    2.0990    1.5800 hc        1 KK3      0.035700
     31 H7          2.2730    1.4360    3.2470 hc        1 KK3      0.035700
     32 H8          0.8600    1.7320    2.1530 hc        1 KK3      0.035700
     33 H9          1.6220   -2.0540    2.2210 hc        1 KK3      0.050700
     34 H10         1.4930   -0.8540    3.5730 hc        1 KK3      0.050700
     35 H11        -0.5850    0.0590    2.7370 h1        1 KK3      0.046700
     36 H12        -0.7230   -1.7540    2.8310 h1        1 KK3      0.046700
     37 H13        -2.1690   -2.9080    1.9580 ha        1 KK3      0.158000
     38 H14        -4.1860    1.0000   -1.7460 hn        1 KK3      0.427300
     39 H15        -5.6040    0.1110   -1.5160 hn        1 KK3      0.427300
     40 H16        -6.5550   -2.3620    2.0100 ha        1 KK3      0.153500
     41 H17        -7.7360   -4.2420    3.1510 ha        1 KK3      0.153000
     42 H18        -4.3230   -6.8120    2.4680 ha        1 KK3      0.153000
     43 H19        -3.1330   -4.9350    1.3310 ha        1 KK3      0.153500
@<TRIPOS>BOND
     1    1    2 1   
     2    1    7 1   
     3    1   25 1   
     4    1   26 1   
     5    2    3 1   
     6    2   27 1   
     7    2   28 1   
     8    3    4 1   
     9    3    5 1   
    10    3   29 1   
    11    4   30 1   
    12    4   31 1   
    13    4   32 1   
    14    5    6 1   
    15    5   33 1   
    16    5   34 1   
    17    6    7 1   
    18    6   35 1   
    19    6   36 1   
    20    7    8 1   
    21    8    9 ar  
    22    8   10 ar  
    23    9   14 ar  
    24    9   37 1   
    25   10   11 ar  
    26   11   12 1   
    27   11   13 ar  
    28   12   38 1   
    29   12   39 1   
    30   13   14 ar  
    31   14   15 1   
    32   15   16 ar  
    33   15   24 ar  
    34   16   17 ar  
    35   16   40 1   
    36   17   18 ar  
    37   17   41 1   
    38   18   19 1   
    39   18   23 ar  
    40   19   20 1   
    41   19   21 1   
    42   19   22 1   
    43   23   24 ar  
    44   23   42 1   
    45   24   43 1   
@<TRIPOS>SUBSTRUCTURE
     1 KK3         1 TEMP              0 ****  ****    0 ROOT
