@<TRIPOS>MOLECULE
KK3
   44    46     1     0     0
SMALL
bcc


@<TRIPOS>ATOM
      1 C1         -0.0660    0.4060    0.2150 c3        1 KK3      0.204800
      2 C3          1.4570    0.4540    0.2540 c3        1 KK3     -0.085900
      3 C7          2.0280    0.0420    1.5970 c3        1 KK3     -0.070700
      4 C8          1.7220    1.0480    2.6840 c3        1 KK3     -0.096100
      5 C9          1.5120   -1.3430    1.9340 c3        1 KK3     -0.085900
      6 C10        -0.0100   -1.4410    1.9160 c3        1 KK3      0.204800
      7 N2         -0.6640   -0.7920    0.7900 nh        1 KK3     -0.721300
      8 C4         -1.9940   -1.0660    0.5580 ca        1 KK3      0.732200
      9 C5         -2.7000   -2.0960    1.2860 ca        1 KK3     -0.383600
     10 N3         -2.6720   -0.3600   -0.4280 nb        1 KK3     -0.779000
     11 C2         -3.9570   -0.7510   -0.6480 ca        1 KK3      0.750900
     12 N4         -4.6660    0.0050   -1.7330 n4        1 KK3     -0.821300
     13 N1         -4.6940   -1.7160   -0.0370 nb        1 KK3     -0.722000
     14 C6         -4.0250   -2.3930    0.9530 cp        1 KK3      0.559800
     15 C11        -4.7410   -3.4570    1.6770 cp        1 KK3     -0.162500
     16 C12        -6.0690   -3.2780    2.0850 ca        1 KK3     -0.097000
     17 C13        -6.7240   -4.2920    2.7830 ca        1 KK3     -0.081000
     18 C14        -6.0550   -5.4840    3.0650 ca        1 KK3     -0.135300
     19 C15        -6.7820   -6.6030    3.8110 c3        1 KK3      0.686200
     20 F1         -7.7460   -6.1630    4.6830 f         1 KK3     -0.225300
     21 F2         -7.4380   -7.4810    2.9840 f         1 KK3     -0.225300
     22 F3         -5.9600   -7.3950    4.5740 f         1 KK3     -0.225300
     23 C16        -4.7330   -5.6720    2.6550 ca        1 KK3     -0.081000
     24 C17        -4.0750   -4.6580    1.9620 ca        1 KK3     -0.097000
     25 H1         -0.4760    1.3030    0.7670 h1        1 KK3      0.058700
     26 H2         -0.3740    0.4860   -0.8670 h1        1 KK3      0.058700
     27 H3          1.7650    1.5060    0.0110 hc        1 KK3      0.066450
     28 H4          1.8750   -0.2180   -0.5420 hc        1 KK3      0.066450
     29 H5          3.1510   -0.0210    1.4940 hc        1 KK3      0.073700
     30 H6          2.1300    2.0510    2.4090 hc        1 KK3      0.042367
     31 H7          0.6200    1.1460    2.8420 hc        1 KK3      0.042367
     32 H8          2.1880    0.7290    3.6480 hc        1 KK3      0.042367
     33 H9          1.8530   -1.6420    2.9610 hc        1 KK3      0.066450
     34 H10         1.9410   -2.0790    1.2030 hc        1 KK3      0.066450
     35 H11        -0.2640   -2.5410    1.8910 h1        1 KK3      0.058700
     36 H12        -0.4200   -0.9990    2.8720 h1        1 KK3      0.058700
     37 H13        -2.2240   -2.6430    2.1130 ha        1 KK3      0.187000
     38 H14        -4.6850    1.0020   -1.4910 hn        1 KK3      0.477133
     39 H15        -4.1580   -0.1230   -2.6160 hn        1 KK3      0.477133
     40 H16        -6.6020   -2.3410    1.8640 ha        1 KK3      0.149500
     41 H17        -7.7670   -4.1530    3.1160 ha        1 KK3      0.169000
     42 H18        -4.2150   -6.6180    2.8830 ha        1 KK3      0.169000
     43 H19        -3.0360   -4.8110    1.6310 ha        1 KK3      0.149500
     44 H43        -5.6270   -0.3470   -1.8320 hn        1 KK3      0.477133
@<TRIPOS>BOND
     1    1    2 1   
     2    1    7 1   
     3    1   25 1   
     4    1   26 1   
     5    2    3 1   
     6    2   27 1   
     7    2   28 1   
     8    3    4 1   
     9    3    5 1   
    10    3   29 1   
    11    4   30 1   
    12    4   31 1   
    13    4   32 1   
    14    5    6 1   
    15    5   33 1   
    16    5   34 1   
    17    6    7 1   
    18    6   35 1   
    19    6   36 1   
    20    7    8 1   
    21    8    9 ar  
    22    8   10 ar  
    23    9   14 ar  
    24    9   37 1   
    25   10   11 ar  
    26   11   12 1   
    27   11   13 ar  
    28   12   38 1   
    29   12   39 1   
    30   12   44 1   
    31   13   14 ar  
    32   14   15 1   
    33   15   16 ar  
    34   15   24 ar  
    35   16   17 ar  
    36   16   40 1   
    37   17   18 ar  
    38   17   41 1   
    39   18   19 1   
    40   18   23 ar  
    41   19   20 1   
    42   19   21 1   
    43   19   22 1   
    44   23   24 ar  
    45   23   42 1   
    46   24   43 1   
@<TRIPOS>SUBSTRUCTURE
     1 KK3         1 TEMP              0 ****  ****    0 ROOT
