@<TRIPOS>MOLECULE
KKA
   34    33     1     0     0
SMALL
bcc


@<TRIPOS>ATOM
      1 C           4.1250   -0.8460   -0.5330 c3        1 KKA      0.025500
      2 N           3.8680   -2.2330   -0.1660 n3        1 KKA     -0.891800
      3 O          -0.8450    0.9900   -1.3890 o         1 KKA     -0.673100
      4 S          -3.9830   -2.4490   -1.8890 sh        1 KKA     -0.465900
      5 C1          3.1740    0.1520    0.1310 c3        1 KKA     -0.066400
      6 N1         -1.5810    0.6550    0.7580 n         1 KKA     -0.532900
      7 C2          1.7300   -0.0480   -0.2800 c3        1 KKA     -0.071400
      8 C3          0.8400    1.0130    0.3370 c3        1 KKA     -0.147400
      9 C4         -0.5930    0.8910   -0.1630 c         1 KKA      0.644100
     10 C5         -2.9910    0.7380    0.4550 c3        1 KKA     -0.032300
     11 C6         -3.6080   -0.5990    0.0110 c3        1 KKA     -0.069400
     12 C7         -3.0170   -1.0690   -1.2900 c3        1 KKA      0.046700
     13 C8         -3.8360    1.2540    1.6770 c         1 KKA      0.911600
     14 C9          5.5940   -0.3760   -0.2720 c         1 KKA      0.885600
     15 H           3.9700   -0.7850   -1.6500 h1        1 KKA      0.043700
     16 HN          4.7240   -2.7460   -0.3120 hn        1 KKA      0.327800
     17 HNA         3.6780   -2.2770    0.8200 hn        1 KKA      0.327800
     18 HS         -3.1980   -2.8290   -2.8790 hs        1 KKA      0.187800
     19 H1          3.2610    0.0780    1.2470 hc        1 KKA      0.042700
     20 H1A         3.5180    1.1790   -0.1640 hc        1 KKA      0.042700
     21 HN1        -1.3680    0.7030    1.7320 hn        1 KKA      0.327500
     22 H2          1.6410   -0.0000   -1.3970 hc        1 KKA      0.048200
     23 H2A         1.3760   -1.0630    0.0380 hc        1 KKA      0.048200
     24 H3          0.9000    0.9510    1.4540 hc        1 KKA      0.050700
     25 H3A         1.2020    2.0310    0.0340 hc        1 KKA      0.050700
     26 H5         -3.1340    1.4780   -0.3880 h1        1 KKA      0.055700
     27 H6         -3.4600   -1.3730    0.8070 hc        1 KKA      0.059200
     28 H6A        -4.7120   -0.4230   -0.0980 hc        1 KKA      0.059200
     29 H7         -1.9550   -1.3850   -1.1540 h1        1 KKA      0.072200
     30 H7A        -3.0290   -0.2480   -2.0470 h1        1 KKA      0.072200
     31 O3          5.9070    0.8020   -0.6020 o         1 KKA     -0.852800
     32 O4          6.4100   -1.2040    0.2320 o         1 KKA     -0.852800
     33 O1         -5.0220    1.6010    1.4250 o         1 KKA     -0.837300
     34 O2         -3.3000    1.2990    2.8190 o         1 KKA     -0.837300
@<TRIPOS>BOND
     1    1    2 1   
     2    1    5 1   
     3    1   14 1   
     4    1   15 1   
     5    2   16 1   
     6    2   17 1   
     7    3    9 2   
     8    4   12 1   
     9    4   18 1   
    10    5    7 1   
    11    5   19 1   
    12    5   20 1   
    13    6    9 1   
    14    6   10 1   
    15    6   21 1   
    16    7    8 1   
    17    7   22 1   
    18    7   23 1   
    19    8    9 1   
    20    8   24 1   
    21    8   25 1   
    22   10   11 1   
    23   10   13 1   
    24   10   26 1   
    25   11   12 1   
    26   11   27 1   
    27   11   28 1   
    28   12   29 1   
    29   12   30 1   
    30   13   33 1   
    31   13   34 1   
    32   14   31 1   
    33   14   32 1   
@<TRIPOS>SUBSTRUCTURE
     1 KKA         1 TEMP              0 ****  ****    0 ROOT
