@<TRIPOS>MOLECULE
KKA
   36    32     1     0     0
SMALL
bcc


@<TRIPOS>ATOM
      1 C          -0.8890   -0.9030   -2.7830 c2        1 KKA     -0.223000
      2 N          -1.0470    0.1620    2.9380 n9        1 KKA     -1.029400
      3 O          -1.4780   -2.3490    1.0220 o         1 KKA     -0.730100
      4 S          -2.8050   -1.5830    5.4320 sh        1 KKA     -0.364900
      5 C1         -1.8360    1.2920   -2.1550 c3        1 KKA     -0.064900
      6 N1         -2.8190   -2.3500   -0.8100 nt        1 KKA     -0.642000
      7 C2         -1.3310   -0.0670   -1.8380 c2        1 KKA     -0.124400
      8 C3         -1.3080   -0.4080   -0.3890 c3        1 KKA     -0.129200
      9 C4         -1.8670   -1.7700   -0.0310 c         1 KKA      0.685100
     10 C5         -3.8700   -4.2930    2.9720 ce        1 KKA     -0.241200
     11 C6         -2.9480   -3.6010    3.6500 c2        1 KKA     -0.113200
     12 C7         -3.0550   -3.3010    5.0900 c3        1 KKA      0.021900
     13 C8         -3.7880   -4.5690    1.5310 c         1 KKA      0.636300
     14 C9          0.6220   -2.8320    2.2460 c1        1 KKA      0.915000
     15 H          -0.8810   -0.6330   -3.8470 ha        1 KKA      0.120000
     16 HN         -0.1120    0.4150    3.1840 hn        1 KKA      0.339467
     17 HNA        -1.0040   -0.5660    2.2520 hn        1 KKA      0.339467
     18 HS         -3.8290   -1.0660    4.7730 hs        1 KKA      0.214800
     19 H1         -0.5020   -1.9040   -2.5520 ha        1 KKA      0.120000
     20 H1A        -1.2400    2.0610   -1.6030 hc        1 KKA      0.047367
     21 HN1        -3.1000   -1.9240   -1.6580 hn        1 KKA      0.331000
     22 H2         -0.2470   -0.3720   -0.0110 hc        1 KKA      0.097700
     23 H2A        -1.7660    1.5090   -3.2490 hc        1 KKA      0.047367
     24 H3         -2.9060    1.3890   -1.8430 hc        1 KKA      0.047367
     25 H3A        -1.8930    0.3490    0.2050 hc        1 KKA      0.097700
     26 H5         -1.8520   -4.4630    1.4720 ho        1 KKA      0.461000
     27 H6         -4.7870   -4.6830    3.4460 ha        1 KKA      0.158000
     28 H6A        -2.0420   -3.2010    3.1490 ha        1 KKA      0.162000
     29 H7         -2.2300   -3.8200    5.6470 h1        1 KKA      0.090200
     30 H7A        -4.0280   -3.6490    5.5150 h1        1 KKA      0.090200
     31 O3          0.1730   -3.9190    2.4360 o         1 KKA     -0.458500
     32 O4          1.0910   -1.7500    2.0860 o         1 KKA     -0.458500
     33 O1         -4.7480   -4.6810    0.7610 o         1 KKA     -0.518000
     34 O2         -2.5890   -4.7540    0.9080 oh        1 KKA     -0.597100
     35 HN3        -1.5100   -0.1930    3.7530 hn        1 KKA      0.339467
     36 H12        -3.1800   -3.2490   -0.5790 hn        1 KKA      0.331000
@<TRIPOS>BOND
     1    1    7 2   
     2    1   15 1   
     3    1   19 1   
     4    2   16 1   
     5    2   17 1   
     6    2   35 1   
     7    3    9 2   
     8    4   12 1   
     9    4   18 1   
    10    5    7 1   
    11    5   20 1   
    12    5   23 1   
    13    5   24 1   
    14    6    9 1   
    15    6   21 1   
    16    6   36 1   
    17    7    8 1   
    18    8    9 1   
    19    8   22 1   
    20    8   25 1   
    21   10   11 2   
    22   10   13 1   
    23   10   27 1   
    24   11   12 1   
    25   11   28 1   
    26   12   29 1   
    27   12   30 1   
    28   13   33 2   
    29   13   34 1   
    30   14   31 2   
    31   14   32 2   
    32   26   34 1   
@<TRIPOS>SUBSTRUCTURE
     1 KKA         1 TEMP              0 ****  ****    0 ROOT
