@<TRIPOS>MOLECULE
KKA
   36    33     1     0     0
SMALL
bcc


@<TRIPOS>ATOM
      1 C          -0.0570   -1.2600    0.7690 c3        1 KKA     -0.211000
      2 N           1.1600   -0.5640    1.2840 n4        1 KKA     -0.057000
      3 O          -0.8330    1.2160    2.3810 o         1 KKA     -0.369000
      4 S          -3.1860   -5.8750    3.0630 sh        1 KKA      0.075000
      5 C1         -0.5740   -0.6800   -0.5350 c3        1 KKA     -0.171000
      6 N1         -3.7240   -1.6560    2.5270 n3        1 KKA     -0.348000
      7 C2         -1.0890    0.7380   -0.4200 c3        1 KKA     -0.164000
      8 C3         -2.2940    0.8760    0.4850 c3        1 KKA     -0.240000
      9 C4         -1.9800    1.1470    1.9220 c2        1 KKA      0.226000
     10 C5         -3.0420   -2.8060    1.9810 c3        1 KKA     -0.131000
     11 C6         -3.8210   -4.0350    1.7860 c1        1 KKA     -0.171000
     12 C7         -3.1500   -5.2520    1.3700 c3        1 KKA     -0.280000
     13 C8         -6.0720   -4.0410    1.7410 c1        1 KKA      0.482000
     14 C9          0.2420   -2.8160    0.5920 c2        1 KKA      0.353000
     15 H          -1.4000   -1.3690   -0.8720 hc        1 KKA      0.120000
     16 HN          1.8180   -1.3070    1.5970 hn        1 KKA      0.246333
     17 HNA         1.6010   -0.0250    0.5410 hn        1 KKA      0.246333
     18 HS         -4.4220   -6.3660    3.0840 hs        1 KKA      0.065000
     19 H1         -0.8540   -1.1730    1.5650 hx        1 KKA      0.138000
     20 H1A         0.2250   -0.7230   -1.3220 hc        1 KKA      0.120000
     21 HN1        -2.8680    1.2860    2.5800 h4        1 KKA      0.116000
     22 H2         -2.9410    1.7200    0.1210 hc        1 KKA      0.128500
     23 H2A        -0.2740    1.4210   -0.0600 hc        1 KKA      0.085500
     24 H3         -1.3750    1.0850   -1.4500 hc        1 KKA      0.085500
     25 H3A        -2.9190   -0.0600    0.4450 hc        1 KKA      0.128500
     26 H5         -2.6500   -2.5320    0.9430 h1        1 KKA      0.138500
     27 H6         -2.1180   -3.0020    2.6040 h1        1 KKA      0.138500
     28 H6A        -4.5600   -1.4690    2.0020 hn        1 KKA      0.150000
     29 H7         -2.0920   -5.1630    1.0120 h1        1 KKA      0.160000
     30 H7A        -3.7400   -5.8720    0.6600 h1        1 KKA      0.160000
     31 O3         -0.7320   -3.5000    0.2130 o         1 KKA     -0.513000
     32 O4          1.4050   -3.1850    0.8900 o         1 KKA     -0.513000
     33 O1         -6.2590   -5.2130    1.9170 o         1 KKA     -0.296000
     34 O2         -6.2580   -2.8700    1.5550 o         1 KKA     -0.296000
     35 HN3         0.9190    0.0590    2.0570 hn        1 KKA      0.246333
     36 H12        -3.9940   -1.8340    3.4760 hn        1 KKA      0.150000
@<TRIPOS>BOND
     1    1    2 1   
     2    1    5 1   
     3    1   14 1   
     4    1   19 1   
     5    2   16 1   
     6    2   17 1   
     7    2   35 1   
     8    3    9 1   
     9    4   12 1   
    10    4   18 1   
    11    5    7 1   
    12    5   15 1   
    13    5   20 1   
    14    6   10 1   
    15    6   28 1   
    16    6   36 1   
    17    7    8 1   
    18    7   23 1   
    19    7   24 1   
    20    8    9 1   
    21    8   22 1   
    22    8   25 1   
    23    9   21 1   
    24   10   11 1   
    25   10   26 1   
    26   10   27 1   
    27   11   12 1   
    28   12   29 1   
    29   12   30 1   
    30   13   33 1   
    31   13   34 1   
    32   14   31 1   
    33   14   32 1   
@<TRIPOS>SUBSTRUCTURE
     1 KKA         1 TEMP              0 ****  ****    0 ROOT
