@<TRIPOS>MOLECULE
KKJ
   47    46     1     0     0
SMALL
bcc


@<TRIPOS>ATOM
      1 O1         -0.1080    0.1340   -0.1300 oh        1 KKJ     -0.634800
      2 C2          1.3170    0.0430   -0.0550 c3        1 KKJ      0.154100
      3 C3          1.8450    0.0710    1.3800 c3        1 KKJ     -0.222700
      4 C4          3.3940    0.1960    1.3130 c         1 KKJ      0.912600
      5 O5          4.0730   -0.8330    1.5890 o         1 KKJ     -0.841300
      6 O6          3.8910    1.3080    0.9760 o         1 KKJ     -0.841300
      7 C7          1.6950   -1.2730   -0.7320 c3        1 KKJ     -0.080400
      8 C8          1.5700   -1.1780   -2.2370 c3        1 KKJ     -0.075400
      9 C9          1.9000   -2.5000   -2.8980 c3        1 KKJ     -0.078400
     10 C10         1.7930   -2.4050   -4.4050 c3        1 KKJ     -0.078400
     11 C11         2.1180   -3.7270   -5.0670 c3        1 KKJ     -0.081400
     12 C12         2.0150   -3.6380   -6.5680 c3        1 KKJ     -0.090100
     13 C13         1.2650    1.2180    2.1840 c3        1 KKJ     -0.053400
     14 C14         1.8150    1.2310    3.5950 c3        1 KKJ     -0.078400
     15 C15         1.2590    2.3910    4.3930 c3        1 KKJ     -0.075400
     16 C16         1.8100    2.4020    5.8030 c3        1 KKJ     -0.079400
     17 C17         1.2630    3.5650    6.6040 c3        1 KKJ     -0.080400
     18 C18         1.8080    3.5790    8.0080 c3        1 KKJ     -0.090100
     19 HO1        -0.3490    0.9700    0.2820 ho        1 KKJ      0.387000
     20 H2          1.7630    0.9120   -0.6190 h1        1 KKJ      0.045700
     21 H3          1.5890   -0.8990    1.8830 hc        1 KKJ      0.047700
     22 H7          2.7520   -1.5190   -0.4390 hc        1 KKJ      0.064200
     23 H7A         1.0280   -2.0870   -0.3470 hc        1 KKJ      0.064200
     24 H8          2.2630   -0.3840   -2.6210 hc        1 KKJ      0.037200
     25 H8A         0.5250   -0.8690   -2.5030 hc        1 KKJ      0.037200
     26 H9          1.2020   -3.2930   -2.5210 hc        1 KKJ      0.038200
     27 H9A         2.9390   -2.8110   -2.6120 hc        1 KKJ      0.038200
     28 H10         2.4940   -1.6140   -4.7810 hc        1 KKJ      0.035200
     29 H10A        0.7550   -2.0880   -4.6890 hc        1 KKJ      0.035200
     30 H11         3.1560   -4.0420   -4.7790 hc        1 KKJ      0.036200
     31 H11A        1.4180   -4.5170   -4.6870 hc        1 KKJ      0.036200
     32 H12         0.9810   -3.3480   -6.8750 hc        1 KKJ      0.025700
     33 H12A        2.7240   -2.8720   -6.9660 hc        1 KKJ      0.025700
     34 H12B        2.2580   -4.6220   -7.0360 hc        1 KKJ      0.025700
     35 H13         1.5260    2.1830    1.6740 hc        1 KKJ      0.021200
     36 H13A        0.1450    1.1390    2.2320 hc        1 KKJ      0.021200
     37 H14         1.5640    0.2660    4.1080 hc        1 KKJ      0.055200
     38 H14A        2.9350    1.3020    3.5420 hc        1 KKJ      0.055200
     39 H15         0.1390    2.3260    4.4290 hc        1 KKJ      0.028200
     40 H15A        1.5180    3.3550    3.8810 hc        1 KKJ      0.028200
     41 H16         1.5500    1.4390    6.3150 hc        1 KKJ      0.040200
     42 H16A        2.9290    2.4650    5.7650 hc        1 KKJ      0.040200
     43 H17         1.5250    4.5270    6.0890 hc        1 KKJ      0.032700
     44 H17A        0.1430    3.5030    6.6350 hc        1 KKJ      0.032700
     45 H18         1.5360    2.6380    8.5450 hc        1 KKJ      0.025700
     46 H18A        1.3950    4.4440    8.5810 hc        1 KKJ      0.025700
     47 H18B        2.9220    3.6630    7.9960 hc        1 KKJ      0.025700
@<TRIPOS>BOND
     1    1    2 1   
     2    1   19 1   
     3    2    3 1   
     4    2    7 1   
     5    2   20 1   
     6    3    4 1   
     7    3   13 1   
     8    3   21 1   
     9    4    5 1   
    10    4    6 1   
    11    7    8 1   
    12    7   22 1   
    13    7   23 1   
    14    8    9 1   
    15    8   24 1   
    16    8   25 1   
    17    9   10 1   
    18    9   26 1   
    19    9   27 1   
    20   10   11 1   
    21   10   28 1   
    22   10   29 1   
    23   11   12 1   
    24   11   30 1   
    25   11   31 1   
    26   12   32 1   
    27   12   33 1   
    28   12   34 1   
    29   13   14 1   
    30   13   35 1   
    31   13   36 1   
    32   14   15 1   
    33   14   37 1   
    34   14   38 1   
    35   15   16 1   
    36   15   39 1   
    37   15   40 1   
    38   16   17 1   
    39   16   41 1   
    40   16   42 1   
    41   17   18 1   
    42   17   43 1   
    43   17   44 1   
    44   18   45 1   
    45   18   46 1   
    46   18   47 1   
@<TRIPOS>SUBSTRUCTURE
     1 KKJ         1 TEMP              0 ****  ****    0 ROOT
