@<TRIPOS>MOLECULE
KKJ
   47    46     1     0     0
SMALL
bcc


@<TRIPOS>ATOM
      1 O1         -1.3260    0.4960   -0.8170 oh        1 KKJ     -0.622800
      2 C2          0.0620    0.2590   -0.8420 c3        1 KKJ      0.154100
      3 C3          0.6020    0.2770    0.5700 c3        1 KKJ     -0.180700
      4 C4          2.0940    0.5290    0.5360 c         1 KKJ      0.910600
      5 O5          2.8870   -0.3260    1.0110 o         1 KKJ     -0.845300
      6 O6          2.5420    1.5910    0.0300 o         1 KKJ     -0.845300
      7 C7          0.3320   -1.0900   -1.4680 c3        1 KKJ     -0.115400
      8 C8         -0.0380   -1.0490   -2.9350 c3        1 KKJ     -0.076400
      9 C9          0.3240   -2.3670   -3.5830 c3        1 KKJ     -0.078400
     10 C10        -0.1520   -2.3700   -5.0190 c3        1 KKJ     -0.078400
     11 C11         0.1890   -3.6970   -5.6610 c3        1 KKJ     -0.081400
     12 C12        -0.2380   -3.6800   -7.1120 c3        1 KKJ     -0.090100
     13 C13        -0.0770    1.3770    1.3560 c3        1 KKJ     -0.051400
     14 C14         0.2100    1.1950    2.8300 c3        1 KKJ     -0.087400
     15 C15        -0.4320    2.3200    3.6120 c3        1 KKJ     -0.074400
     16 C16        -0.2080    2.0980    5.0910 c3        1 KKJ     -0.079400
     17 C17        -0.9210    3.1760    5.8770 c3        1 KKJ     -0.080400
     18 C18        -0.6760    2.9700    7.3550 c3        1 KKJ     -0.089100
     19 HO1        -1.5480    1.0270   -1.4950 ho        1 KKJ      0.373000
     20 H2          0.5020    0.9560   -1.3680 h1        1 KKJ      0.049700
     21 H3          0.4270   -0.5830    0.9960 hc        1 KKJ      0.046700
     22 H7         -0.2040   -1.7720   -1.0160 hc        1 KKJ      0.065200
     23 H7A         1.2810   -1.3080   -1.3770 hc        1 KKJ      0.065200
     24 H8         -0.9990   -0.8950   -3.0240 hc        1 KKJ      0.028200
     25 H8A         0.4510   -0.3240   -3.3740 hc        1 KKJ      0.028200
     26 H9          1.2950   -2.4850   -3.5620 hc        1 KKJ      0.042200
     27 H9A        -0.1040   -3.0990   -3.0960 hc        1 KKJ      0.042200
     28 H10        -1.1210   -2.2370   -5.0410 hc        1 KKJ      0.034200
     29 H10A        0.2870   -1.6480   -5.5100 hc        1 KKJ      0.034200
     30 H11         1.1540   -3.8470   -5.6070 hc        1 KKJ      0.037700
     31 H11A       -0.2790   -4.4160   -5.1910 hc        1 KKJ      0.037700
     32 H12        -1.2040   -3.5220   -7.1660 hc        1 KKJ      0.026367
     33 H12A        0.2370   -2.9650   -7.5840 hc        1 KKJ      0.026367
     34 H12B       -0.0250   -4.5430   -7.5250 hc        1 KKJ      0.026367
     35 H13         0.2630    2.2460    1.0620 hc        1 KKJ      0.029700
     36 H13A       -1.0430    1.3370    1.2050 hc        1 KKJ      0.029700
     37 H14         1.1770    1.2060    2.9770 hc        1 KKJ      0.055700
     38 H14A       -0.1560    0.3390    3.1300 hc        1 KKJ      0.055700
     39 H15        -1.3920    2.3400    3.4260 hc        1 KKJ      0.028700
     40 H15A       -0.0310    3.1720    3.3460 hc        1 KKJ      0.028700
     41 H16         0.7500    2.1320    5.2850 hc        1 KKJ      0.039200
     42 H16A       -0.5610    1.2220    5.3460 hc        1 KKJ      0.039200
     43 H17        -1.8820    3.1310    5.6960 hc        1 KKJ      0.032700
     44 H17A       -0.5810    4.0530    5.6090 hc        1 KKJ      0.032700
     45 H18         0.2840    3.0440    7.5410 hc        1 KKJ      0.025033
     46 H18A       -0.9900    2.0790    7.6170 hc        1 KKJ      0.025033
     47 H18B       -1.1610    3.6510    7.8660 hc        1 KKJ      0.025033
@<TRIPOS>BOND
     1    1    2 1   
     2    1   19 1   
     3    2    3 1   
     4    2    7 1   
     5    2   20 1   
     6    3    4 1   
     7    3   13 1   
     8    3   21 1   
     9    4    5 1   
    10    4    6 1   
    11    7    8 1   
    12    7   22 1   
    13    7   23 1   
    14    8    9 1   
    15    8   24 1   
    16    8   25 1   
    17    9   10 1   
    18    9   26 1   
    19    9   27 1   
    20   10   11 1   
    21   10   28 1   
    22   10   29 1   
    23   11   12 1   
    24   11   30 1   
    25   11   31 1   
    26   12   32 1   
    27   12   33 1   
    28   12   34 1   
    29   13   14 1   
    30   13   35 1   
    31   13   36 1   
    32   14   15 1   
    33   14   37 1   
    34   14   38 1   
    35   15   16 1   
    36   15   39 1   
    37   15   40 1   
    38   16   17 1   
    39   16   41 1   
    40   16   42 1   
    41   17   18 1   
    42   17   43 1   
    43   17   44 1   
    44   18   45 1   
    45   18   46 1   
    46   18   47 1   
@<TRIPOS>SUBSTRUCTURE
     1 KKJ         1 TEMP              0 ****  ****    0 ROOT
