@<TRIPOS>MOLECULE
KKJ
   47    46     1     0     0
SMALL
bcc


@<TRIPOS>ATOM
      1 O1         -0.1130    0.1240   -0.1230 oh        1 KKJ     -0.634800
      2 C2          1.3140    0.0400   -0.0530 c3        1 KKJ      0.154100
      3 C3          1.8460    0.0710    1.3800 c3        1 KKJ     -0.222700
      4 C4          3.3950    0.2050    1.3070 c         1 KKJ      0.912600
      5 O5          4.0810   -0.8200    1.5790 o         1 KKJ     -0.841300
      6 O6          3.8830    1.3210    0.9700 o         1 KKJ     -0.841300
      7 C7          1.6960   -1.2730   -0.7330 c3        1 KKJ     -0.080400
      8 C8          1.5660   -1.1780   -2.2370 c3        1 KKJ     -0.075400
      9 C9          1.9000   -2.4970   -2.9000 c3        1 KKJ     -0.078400
     10 C10         1.7890   -2.4020   -4.4060 c3        1 KKJ     -0.078400
     11 C11         2.1190   -3.7210   -5.0710 c3        1 KKJ     -0.081400
     12 C12         2.0110   -3.6320   -6.5710 c3        1 KKJ     -0.090100
     13 C13         1.2620    1.2140    2.1870 c3        1 KKJ     -0.053400
     14 C14         1.8180    1.2300    3.5950 c3        1 KKJ     -0.078400
     15 C15         1.2570    2.3850    4.3960 c3        1 KKJ     -0.075400
     16 C16         1.8150    2.4000    5.8040 c3        1 KKJ     -0.079400
     17 C17         1.2630    3.5590    6.6070 c3        1 KKJ     -0.080400
     18 C18         1.8150    3.5760    8.0090 c3        1 KKJ     -0.090100
     19 HO1        -0.3570    0.9580    0.2900 ho        1 KKJ      0.387000
     20 H2          1.7520    0.9120   -0.6180 h1        1 KKJ      0.045700
     21 H3          1.5980   -0.9010    1.8830 hc        1 KKJ      0.047700
     22 H7          2.7560   -1.5140   -0.4430 hc        1 KKJ      0.064200
     23 H7A         1.0350   -2.0910   -0.3460 hc        1 KKJ      0.064200
     24 H8          0.5190   -0.8740   -2.5000 hc        1 KKJ      0.037200
     25 H8A         2.2530   -0.3800   -2.6230 hc        1 KKJ      0.037200
     26 H9          2.9420   -2.8030   -2.6170 hc        1 KKJ      0.038200
     27 H9A         1.2070   -3.2940   -2.5210 hc        1 KKJ      0.038200
     28 H10         0.7490   -2.0900   -4.6870 hc        1 KKJ      0.035200
     29 H10A        2.4850   -1.6070   -4.7840 hc        1 KKJ      0.035200
     30 H11         3.1590   -4.0320   -4.7850 hc        1 KKJ      0.036200
     31 H11A        1.4230   -4.5150   -4.6900 hc        1 KKJ      0.036200
     32 H12         2.7160   -2.8630   -6.9700 hc        1 KKJ      0.025700
     33 H12A        0.9750   -3.3460   -6.8750 hc        1 KKJ      0.025700
     34 H12B        2.2580   -4.6140   -7.0400 hc        1 KKJ      0.025700
     35 H13         0.1440    1.1270    2.2390 hc        1 KKJ      0.021200
     36 H13A        1.5150    2.1810    1.6760 hc        1 KKJ      0.021200
     37 H14         1.5770    0.2630    4.1090 hc        1 KKJ      0.055200
     38 H14A        2.9380    1.3080    3.5370 hc        1 KKJ      0.055200
     39 H15         1.5070    3.3510    3.8840 hc        1 KKJ      0.028200
     40 H15A        0.1380    2.3120    4.4370 hc        1 KKJ      0.028200
     41 H16         2.9340    2.4710    5.7600 hc        1 KKJ      0.040200
     42 H16A        1.5650    1.4350    6.3170 hc        1 KKJ      0.040200
     43 H17         0.1440    3.4890    6.6440 hc        1 KKJ      0.032700
     44 H17A        1.5160    4.5230    6.0920 hc        1 KKJ      0.032700
     45 H18         2.9290    3.6690    7.9920 hc        1 KKJ      0.025700
     46 H18A        1.3980    4.4380    8.5840 hc        1 KKJ      0.025700
     47 H18B        1.5530    2.6330    8.5470 hc        1 KKJ      0.025700
@<TRIPOS>BOND
     1    1    2 1   
     2    1   19 1   
     3    2    3 1   
     4    2    7 1   
     5    2   20 1   
     6    3    4 1   
     7    3   13 1   
     8    3   21 1   
     9    4    5 1   
    10    4    6 1   
    11    7    8 1   
    12    7   22 1   
    13    7   23 1   
    14    8    9 1   
    15    8   24 1   
    16    8   25 1   
    17    9   10 1   
    18    9   26 1   
    19    9   27 1   
    20   10   11 1   
    21   10   28 1   
    22   10   29 1   
    23   11   12 1   
    24   11   30 1   
    25   11   31 1   
    26   12   32 1   
    27   12   33 1   
    28   12   34 1   
    29   13   14 1   
    30   13   35 1   
    31   13   36 1   
    32   14   15 1   
    33   14   37 1   
    34   14   38 1   
    35   15   16 1   
    36   15   39 1   
    37   15   40 1   
    38   16   17 1   
    39   16   41 1   
    40   16   42 1   
    41   17   18 1   
    42   17   43 1   
    43   17   44 1   
    44   18   45 1   
    45   18   46 1   
    46   18   47 1   
@<TRIPOS>SUBSTRUCTURE
     1 KKJ         1 TEMP              0 ****  ****    0 ROOT
