@<TRIPOS>MOLECULE
KKJ
   47    46     1     0     0
SMALL
bcc


@<TRIPOS>ATOM
      1 O1          0.7140    1.9720   -0.0870 oh        1 KKJ     -0.629800
      2 C2          0.7130    0.5980    0.2970 c3        1 KKJ      0.152100
      3 C3         -0.5640   -0.1160   -0.1420 c3        1 KKJ     -0.218700
      4 C4         -0.5740   -1.5820    0.3710 c         1 KKJ      0.916600
      5 O5         -1.0660   -2.4580   -0.3960 o         1 KKJ     -0.842300
      6 O6         -0.1040   -1.8250    1.5180 o         1 KKJ     -0.842300
      7 C7          1.9430   -0.1080   -0.2680 c3        1 KKJ     -0.106400
      8 C8          3.2230    0.5080    0.2510 c3        1 KKJ     -0.074400
      9 C9          4.4400   -0.1390   -0.3770 c3        1 KKJ     -0.078400
     10 C10         5.7220    0.4640    0.1550 c3        1 KKJ     -0.078400
     11 C11         6.9390   -0.1790   -0.4750 c3        1 KKJ     -0.081400
     12 C12         8.2190    0.4170    0.0530 c3        1 KKJ     -0.090100
     13 C13        -1.7920    0.6060    0.3820 c3        1 KKJ     -0.054400
     14 C14        -3.0460    0.1210   -0.3150 c3        1 KKJ     -0.087400
     15 C15        -4.2930    0.6580    0.3530 c3        1 KKJ     -0.074400
     16 C16        -5.5440    0.1960   -0.3640 c3        1 KKJ     -0.079400
     17 C17        -6.7950    0.7160    0.3110 c3        1 KKJ     -0.080400
     18 C18        -8.0420    0.2610   -0.4020 c3        1 KKJ     -0.090100
     19 HO1         0.4890    1.9980   -1.0230 ho        1 KKJ      0.381000
     20 H2          0.7640    0.6220    1.4220 h1        1 KKJ      0.087700
     21 H3         -0.5980   -0.1410   -1.2640 hc        1 KKJ      0.033700
     22 H7          1.8820   -1.1890    0.0310 hc        1 KKJ      0.055700
     23 H7A         1.9230   -0.0550   -1.3870 hc        1 KKJ      0.055700
     24 H8          3.2210    1.6090    0.0330 hc        1 KKJ      0.039200
     25 H8A         3.2670    0.3900    1.3650 hc        1 KKJ      0.039200
     26 H9          4.4260   -1.2410   -0.1670 hc        1 KKJ      0.036700
     27 H9A         4.4000   -0.0150   -1.4910 hc        1 KKJ      0.036700
     28 H10         5.7320    1.5670   -0.0490 hc        1 KKJ      0.035200
     29 H10A        5.7630    0.3340    1.2690 hc        1 KKJ      0.035200
     30 H11         6.9250   -1.2830   -0.2700 hc        1 KKJ      0.036200
     31 H11A        6.8950   -0.0510   -1.5880 hc        1 KKJ      0.036200
     32 H12         8.2610    1.5120   -0.1620 hc        1 KKJ      0.025700
     33 H12A        8.2920    0.2760    1.1590 hc        1 KKJ      0.025700
     34 H12B        9.1030   -0.0710   -0.4240 hc        1 KKJ      0.025700
     35 H13        -1.8750    0.4210    1.4850 hc        1 KKJ      0.030200
     36 H13A       -1.6780    1.7130    0.2330 hc        1 KKJ      0.030200
     37 H14        -3.0290    0.4440   -1.3900 hc        1 KKJ      0.054700
     38 H14A       -3.0500   -1.0040   -0.3070 hc        1 KKJ      0.054700
     39 H15        -4.3240    0.3110    1.4200 hc        1 KKJ      0.029700
     40 H15A       -4.2630    1.7790    0.3710 hc        1 KKJ      0.029700
     41 H16        -5.5190    0.5480   -1.4290 hc        1 KKJ      0.038700
     42 H16A       -5.5670   -0.9250   -0.3880 hc        1 KKJ      0.038700
     43 H17        -6.8190    0.3600    1.3750 hc        1 KKJ      0.033200
     44 H17A       -6.7660    1.8370    0.3400 hc        1 KKJ      0.033200
     45 H18        -8.0490    0.6270   -1.4570 hc        1 KKJ      0.025367
     46 H18A       -8.0990   -0.8540   -0.4200 hc        1 KKJ      0.025367
     47 H18B       -8.9530    0.6530    0.1130 hc        1 KKJ      0.025367
@<TRIPOS>BOND
     1    1    2 1   
     2    1   19 1   
     3    2    3 1   
     4    2    7 1   
     5    2   20 1   
     6    3    4 1   
     7    3   13 1   
     8    3   21 1   
     9    4    5 1   
    10    4    6 1   
    11    7    8 1   
    12    7   22 1   
    13    7   23 1   
    14    8    9 1   
    15    8   24 1   
    16    8   25 1   
    17    9   10 1   
    18    9   26 1   
    19    9   27 1   
    20   10   11 1   
    21   10   28 1   
    22   10   29 1   
    23   11   12 1   
    24   11   30 1   
    25   11   31 1   
    26   12   32 1   
    27   12   33 1   
    28   12   34 1   
    29   13   14 1   
    30   13   35 1   
    31   13   36 1   
    32   14   15 1   
    33   14   37 1   
    34   14   38 1   
    35   15   16 1   
    36   15   39 1   
    37   15   40 1   
    38   16   17 1   
    39   16   41 1   
    40   16   42 1   
    41   17   18 1   
    42   17   43 1   
    43   17   44 1   
    44   18   45 1   
    45   18   46 1   
    46   18   47 1   
@<TRIPOS>SUBSTRUCTURE
     1 KKJ         1 TEMP              0 ****  ****    0 ROOT
