@<TRIPOS>MOLECULE
KKK
   64    68     1     0     0
SMALL
bcc


@<TRIPOS>ATOM
      1 C1         -0.1020    0.1880    0.3720 cc        1 KKK      0.384400
      2 N1          1.2910    0.3340    0.2400 na        1 KKK     -0.205900
      3 O1          1.3940    2.2080   -2.0710 os        1 KKK     -0.420600
      4 Cl1         6.0800    0.1750   -6.3650 cl        1 KKK     -0.074400
      5 C2          0.6640    0.6810    2.3650 cd        1 KKK      0.281200
      6 N2         -0.4960    0.3910    1.6460 nd        1 KKK     -0.672000
      7 O2          3.2310    2.2720   -0.7000 os        1 KKK     -0.426600
      8 Cl2         3.9020    3.8390   -3.2280 cl        1 KKK     -0.075400
      9 C3          1.7810    0.6530    1.5120 cc        1 KKK     -0.248600
     10 N3         -6.3840    4.8800   -0.4550 nh        1 KKK     -0.629000
     11 O3         -0.8870    4.3610   -1.4640 os        1 KKK     -0.331900
     12 C4          2.0610    0.1540   -0.9480 c3        1 KKK      0.020300
     13 N4         -9.0420    5.4150    0.5790 n         1 KKK     -0.465800
     14 O4         -9.9480    7.1280    1.7970 o         1 KKK     -0.607100
     15 C5          2.5370    1.4650   -1.6520 c3        1 KKK      0.384900
     16 C6          1.2760    3.4370   -1.3300 c3        1 KKK      0.117100
     17 C7          2.4440    3.4140   -0.3420 c3        1 KKK      0.110400
     18 C8          3.4300    1.1690   -2.8420 ca        1 KKK     -0.083300
     19 C9          4.0690    2.1830   -3.5770 ca        1 KKK      0.070400
     20 C10         4.8930    1.8760   -4.6690 ca        1 KKK     -0.130000
     21 C11         5.0820    0.5470   -5.0450 ca        1 KKK      0.036400
     22 C12         4.4460   -0.4750   -4.3370 ca        1 KKK     -0.130000
     23 C13         3.6330   -0.1570   -3.2530 ca        1 KKK     -0.103000
     24 C14        -0.0940    3.4840   -0.6560 c3        1 KKK      0.116400
     25 C15        -2.2270    4.4360   -1.1250 ca        1 KKK      0.101100
     26 C16        -3.0150    5.1980   -2.0050 ca        1 KKK     -0.156500
     27 C17        -4.3690    5.3540   -1.7560 ca        1 KKK     -0.130000
     28 C18        -4.9760    4.7580   -0.6230 ca        1 KKK      0.094600
     29 C19        -4.1640    4.0030    0.2450 ca        1 KKK     -0.130000
     30 C20        -2.8020    3.8370   -0.0020 ca        1 KKK     -0.156500
     31 C21        -6.9850    3.9910    0.5250 c3        1 KKK      0.158300
     32 C22        -8.5310    4.0680    0.5060 c3        1 KKK      0.082500
     33 C23        -8.4110    6.3310   -0.3470 c3        1 KKK      0.082500
     34 C24        -6.8680    6.2500   -0.3450 c3        1 KKK      0.158300
     35 C25        -9.7350    5.9030    1.6840 c         1 KKK      0.655100
     36 C26       -10.2900    4.9380    2.7010 c3        1 KKK     -0.170100
     37 H1         -0.7500   -0.0670   -0.4730 h5        1 KKK      0.066100
     38 H2          0.6340    0.8830    3.4350 h4        1 KKK      0.043100
     39 H3          2.8390    0.8360    1.6910 h4        1 KKK      0.187000
     40 H4          2.9860   -0.4330   -0.6810 h1        1 KKK      0.079700
     41 H4A         1.4300   -0.4140   -1.6890 h1        1 KKK      0.079700
     42 H6          1.3670    4.2680   -2.0830 h1        1 KKK      0.100700
     43 H7          3.1120    4.3060   -0.4410 h1        1 KKK      0.070700
     44 H7A         2.1180    3.2770    0.7210 h1        1 KKK      0.070700
     45 H10         5.3880    2.6870   -5.2290 ha        1 KKK      0.166000
     46 H12         4.5840   -1.5270   -4.6310 ha        1 KKK      0.154000
     47 H13         3.1490   -0.9980   -2.7320 ha        1 KKK      0.141000
     48 H14        -0.5570    2.4620   -0.6210 h1        1 KKK      0.060700
     49 H14A       -0.0170    3.9110    0.3780 h1        1 KKK      0.060700
     50 H16        -2.5470    5.6600   -2.8870 ha        1 KKK      0.148000
     51 H17        -4.9750    5.9400   -2.4650 ha        1 KKK      0.137500
     52 H19        -4.5860    3.5220    1.1410 ha        1 KKK      0.137500
     53 H20        -2.2030    3.2350    0.6960 ha        1 KKK      0.148000
     54 H21        -6.6280    4.2140    1.5730 h1        1 KKK      0.045450
     55 H21A       -6.6900    2.9350    0.2700 h1        1 KKK      0.045450
     56 H22        -8.9030    3.6140   -0.4580 h1        1 KKK      0.065450
     57 H22A       -8.9120    3.4420    1.3580 h1        1 KKK      0.065450
     58 H23        -8.7900    6.0830   -1.3800 h1        1 KKK      0.065450
     59 H23A       -8.7050    7.3890   -0.0990 h1        1 KKK      0.065450
     60 H24        -6.4780    6.7500    0.5880 h1        1 KKK      0.045450
     61 H24A       -6.4960    6.8330   -1.2320 h1        1 KKK      0.045450
     62 H26       -10.9100    4.1500    2.2100 hc        1 KKK      0.066033
     63 H26A      -10.9320    5.5100    3.4160 hc        1 KKK      0.066033
     64 H26B       -9.4600    4.4550    3.2720 hc        1 KKK      0.066033
@<TRIPOS>BOND
     1    1    2 1   
     2    1    6 2   
     3    1   37 1   
     4    2    9 1   
     5    2   12 1   
     6    3   15 1   
     7    3   16 1   
     8    4   21 1   
     9    5    6 1   
    10    5    9 2   
    11    5   38 1   
    12    7   15 1   
    13    7   17 1   
    14    8   19 1   
    15    9   39 1   
    16   10   28 1   
    17   10   31 1   
    18   10   34 1   
    19   11   24 1   
    20   11   25 1   
    21   12   15 1   
    22   12   40 1   
    23   12   41 1   
    24   13   32 1   
    25   13   33 1   
    26   13   35 1   
    27   14   35 2   
    28   15   18 1   
    29   16   17 1   
    30   16   24 1   
    31   16   42 1   
    32   17   43 1   
    33   17   44 1   
    34   18   19 ar  
    35   18   23 ar  
    36   19   20 ar  
    37   20   21 ar  
    38   20   45 1   
    39   21   22 ar  
    40   22   23 ar  
    41   22   46 1   
    42   23   47 1   
    43   24   48 1   
    44   24   49 1   
    45   25   26 ar  
    46   25   30 ar  
    47   26   27 ar  
    48   26   50 1   
    49   27   28 ar  
    50   27   51 1   
    51   28   29 ar  
    52   29   30 ar  
    53   29   52 1   
    54   30   53 1   
    55   31   32 1   
    56   31   54 1   
    57   31   55 1   
    58   32   56 1   
    59   32   57 1   
    60   33   34 1   
    61   33   58 1   
    62   33   59 1   
    63   34   60 1   
    64   34   61 1   
    65   35   36 1   
    66   36   62 1   
    67   36   63 1   
    68   36   64 1   
@<TRIPOS>SUBSTRUCTURE
     1 KKK         1 TEMP              0 ****  ****    0 ROOT
