@<TRIPOS>MOLECULE
KKK
   64    68     1     0     0
SMALL
bcc


@<TRIPOS>ATOM
      1 C1         -1.1070   -3.0440    0.9630 cc        1 KKK      0.384400
      2 N1         -2.3610   -2.9580    0.3340 na        1 KKK     -0.205900
      3 O1         -2.6000   -0.0020    0.0680 os        1 KKK     -0.420600
      4 CL1        -8.7570    1.8900    1.8140 cl        1 KKK     -0.074400
      5 C2         -1.0410   -4.4120   -0.7470 cd        1 KKK      0.281200
      6 N2         -0.2990   -3.9170    0.3270 nd        1 KKK     -0.672000
      7 O2         -3.8230   -1.2050   -1.4540 os        1 KKK     -0.426600
      8 CL2        -4.7310    1.7010   -1.6170 cl        1 KKK     -0.075400
      9 C3         -2.3200   -3.8290   -0.7610 cc        1 KKK     -0.248600
     10 N3          5.7310    0.8660    0.4850 nh        1 KKK     -0.629000
     11 O3          0.2920    0.9540   -0.8970 os        1 KKK     -0.330900
     12 C4         -3.4750   -2.1680    0.7530 c3        1 KKK      0.020300
     13 N4          8.6100    0.5500    0.6600 n         1 KKK     -0.465800
     14 O4         10.3060    0.6420   -0.8740 o         1 KKK     -0.607100
     15 C5         -3.7280   -0.8650   -0.0700 c3        1 KKK      0.384900
     16 C6         -1.8990    0.1370   -1.1810 c3        1 KKK      0.117100
     17 C7         -2.6600   -0.7580   -2.1610 c3        1 KKK      0.110400
     18 C8         -4.9870   -0.1510    0.3840 ca        1 KKK     -0.083300
     19 C9         -5.4860    0.9900   -0.2690 ca        1 KKK      0.070400
     20 C10        -6.6560    1.6240    0.1720 ca        1 KKK     -0.130000
     21 C11        -7.3400    1.1260    1.2800 ca        1 KKK      0.036400
     22 C12        -6.8550    0.0000    1.9520 ca        1 KKK     -0.130000
     23 C13        -5.6940   -0.6210    1.5020 ca        1 KKK     -0.103000
     24 C14        -0.4410   -0.2720   -0.9850 c3        1 KKK      0.116400
     25 C15         1.6310    0.8270   -0.5690 ca        1 KKK      0.101100
     26 C16         2.3050    2.0450   -0.3680 ca        1 KKK     -0.156500
     27 C17         3.6530    2.0400   -0.0480 ca        1 KKK     -0.130000
     28 C18         4.3690    0.8230    0.0770 ca        1 KKK      0.094600
     29 C19         3.6710   -0.3820   -0.1350 ca        1 KKK     -0.130000
     30 C20         2.3130   -0.3840   -0.4500 ca        1 KKK     -0.156500
     31 C21         6.3080   -0.3980    0.9060 c3        1 KKK      0.158300
     32 C22         7.7260   -0.2200    1.5010 c3        1 KKK      0.082500
     33 C23         8.0310    1.7860    0.1790 c3        1 KKK      0.082500
     34 C24         6.6090    1.6190   -0.4030 c3        1 KKK      0.158300
     35 C25         9.7160   -0.0020    0.0180 c         1 KKK      0.655100
     36 C26        10.2400   -1.3450    0.4600 c3        1 KKK     -0.170100
     37 H1         -0.8550   -2.4660    1.8590 h5        1 KKK      0.066100
     38 H2         -0.6260   -5.1500   -1.4330 h4        1 KKK      0.043100
     39 H3         -3.1670   -3.9450   -1.4350 h4        1 KKK      0.187000
     40 H4         -4.4050   -2.8000    0.6660 h1        1 KKK      0.079700
     41 H4A        -3.3010   -1.8610    1.8230 h1        1 KKK      0.079700
     42 H6         -1.9620    1.2260   -1.4580 h1        1 KKK      0.100700
     43 H7         -2.0820   -1.6680   -2.4650 h1        1 KKK      0.070700
     44 H7A        -3.0280   -0.2030   -3.0600 h1        1 KKK      0.070700
     45 H10        -7.0320    2.5150   -0.3570 ha        1 KKK      0.166000
     46 H12        -7.3850   -0.3960    2.8320 ha        1 KKK      0.154000
     47 H13        -5.3490   -1.4990    2.0680 ha        1 KKK      0.141000
     48 H14        -0.0670   -0.8590   -1.8650 h1        1 KKK      0.060700
     49 H14A       -0.3180   -0.8670   -0.0410 h1        1 KKK      0.060700
     50 H16         1.7520    2.9910   -0.4620 ha        1 KKK      0.148000
     51 H17         4.1620    3.0020    0.1220 ha        1 KKK      0.137500
     52 H19         4.1820   -1.3540   -0.0520 ha        1 KKK      0.137500
     53 H20         1.8030   -1.3470   -0.6010 ha        1 KKK      0.148000
     54 H21         5.6510   -0.8350    1.7090 h1        1 KKK      0.045450
     55 H21A        6.3670   -1.1400    0.0570 h1        1 KKK      0.045450
     56 H22         8.1430   -1.2450    1.6980 h1        1 KKK      0.065450
     57 H22A        7.6390    0.3200    2.4880 h1        1 KKK      0.065450
     58 H23         7.9900    2.5030    1.0480 h1        1 KKK      0.065450
     59 H23A        8.6860    2.2290   -0.6240 h1        1 KKK      0.065450
     60 H24         6.6850    1.1300   -1.4170 h1        1 KKK      0.045450
     61 H24A        6.1770    2.6470   -0.5460 h1        1 KKK      0.045450
     62 H26         9.5170   -2.1520    0.1880 hc        1 KKK      0.066033
     63 H26A       11.2070   -1.5370   -0.0680 hc        1 KKK      0.066033
     64 H26B       10.4210   -1.3630    1.5610 hc        1 KKK      0.066033
@<TRIPOS>BOND
     1    1    2 1   
     2    1    6 2   
     3    1   37 1   
     4    2    9 1   
     5    2   12 1   
     6    3   15 1   
     7    3   16 1   
     8    4   21 1   
     9    5    6 1   
    10    5    9 2   
    11    5   38 1   
    12    7   15 1   
    13    7   17 1   
    14    8   19 1   
    15    9   39 1   
    16   10   28 1   
    17   10   31 1   
    18   10   34 1   
    19   11   24 1   
    20   11   25 1   
    21   12   15 1   
    22   12   40 1   
    23   12   41 1   
    24   13   32 1   
    25   13   33 1   
    26   13   35 1   
    27   14   35 2   
    28   15   18 1   
    29   16   17 1   
    30   16   24 1   
    31   16   42 1   
    32   17   43 1   
    33   17   44 1   
    34   18   19 ar  
    35   18   23 ar  
    36   19   20 ar  
    37   20   21 ar  
    38   20   45 1   
    39   21   22 ar  
    40   22   23 ar  
    41   22   46 1   
    42   23   47 1   
    43   24   48 1   
    44   24   49 1   
    45   25   26 ar  
    46   25   30 ar  
    47   26   27 ar  
    48   26   50 1   
    49   27   28 ar  
    50   27   51 1   
    51   28   29 ar  
    52   29   30 ar  
    53   29   52 1   
    54   30   53 1   
    55   31   32 1   
    56   31   54 1   
    57   31   55 1   
    58   32   56 1   
    59   32   57 1   
    60   33   34 1   
    61   33   58 1   
    62   33   59 1   
    63   34   60 1   
    64   34   61 1   
    65   35   36 1   
    66   36   62 1   
    67   36   63 1   
    68   36   64 1   
@<TRIPOS>SUBSTRUCTURE
     1 KKK         1 TEMP              0 ****  ****    0 ROOT
