@<TRIPOS>MOLECULE
KKK
   64    68     1     0     0
SMALL
bcc


@<TRIPOS>ATOM
      1 C1         -0.0930    0.1950    0.3780 cc        1 KKK      0.384400
      2 N1          1.2990    0.3450    0.2460 na        1 KKK     -0.205900
      3 O1          1.3970    2.2130   -2.0700 os        1 KKK     -0.420600
      4 CL1         6.0900    0.1820   -6.3580 cl        1 KKK     -0.074400
      5 C2          0.6710    0.6960    2.3700 cd        1 KKK      0.281200
      6 N2         -0.4880    0.4000    1.6510 nd        1 KKK     -0.672000
      7 O2          3.2330    2.2870   -0.7000 os        1 KKK     -0.426600
      8 CL2         3.8980    3.8490   -3.2320 cl        1 KKK     -0.075400
      9 C3          1.7880    0.6690    1.5180 cc        1 KKK     -0.248600
     10 N3         -6.3890    4.8690   -0.4580 nh        1 KKK     -0.629000
     11 O3         -0.8920    4.3600   -1.4690 os        1 KKK     -0.331900
     12 C4          2.0700    0.1640   -0.9420 c3        1 KKK      0.020300
     13 N4         -9.0470    5.4000    0.5770 n         1 KKK     -0.465800
     14 O4         -9.9570    7.1140    1.7910 o         1 KKK     -0.607100
     15 C5          2.5420    1.4740   -1.6490 c3        1 KKK      0.384900
     16 C6          1.2740    3.4430   -1.3330 c3        1 KKK      0.117100
     17 C7          2.4420    3.4270   -0.3450 c3        1 KKK      0.110400
     18 C8          3.4360    1.1780   -2.8380 ca        1 KKK     -0.083300
     19 C9          4.0720    2.1920   -3.5760 ca        1 KKK      0.070400
     20 C10         4.8970    1.8850   -4.6670 ca        1 KKK     -0.130000
     21 C11         5.0900    0.5550   -5.0390 ca        1 KKK      0.036400
     22 C12         4.4580   -0.4670   -4.3270 ca        1 KKK     -0.130000
     23 C13         3.6430   -0.1490   -3.2450 ca        1 KKK     -0.103000
     24 C14        -0.0960    3.4880   -0.6590 c3        1 KKK      0.116400
     25 C15        -2.2310    4.4320   -1.1290 ca        1 KKK      0.101100
     26 C16        -3.0220    5.1910   -2.0110 ca        1 KKK     -0.156500
     27 C17        -4.3760    5.3440   -1.7620 ca        1 KKK     -0.130000
     28 C18        -4.9820    4.7490   -0.6270 ca        1 KKK      0.094600
     29 C19        -4.1670    3.9980    0.2420 ca        1 KKK     -0.130000
     30 C20        -2.8050    3.8340   -0.0060 ca        1 KKK     -0.156500
     31 C21        -6.9880    3.9810    0.5240 c3        1 KKK      0.158300
     32 C22        -8.5340    4.0540    0.5060 c3        1 KKK      0.082500
     33 C23        -8.4190    6.3160   -0.3520 c3        1 KKK      0.082500
     34 C24        -6.8760    6.2380   -0.3510 c3        1 KKK      0.158300
     35 C25        -9.7410    5.8900    1.6810 c         1 KKK      0.655100
     36 C26       -10.2940    4.9250    2.7000 c3        1 KKK     -0.170100
     37 H1         -0.7400   -0.0640   -0.4660 h5        1 KKK      0.066100
     38 H2          0.6400    0.9000    3.4390 h4        1 KKK      0.043100
     39 H3          2.8460    0.8560    1.6970 h4        1 KKK      0.187000
     40 H4          2.9970   -0.4190   -0.6730 h1        1 KKK      0.079700
     41 H4A         1.4410   -0.4080   -1.6810 h1        1 KKK      0.079700
     42 H6          1.3630    4.2720   -2.0880 h1        1 KKK      0.100700
     43 H7          3.1080    4.3210   -0.4460 h1        1 KKK      0.070700
     44 H7A         2.1160    3.2920    0.7190 h1        1 KKK      0.070700
     45 H10         5.3890    2.6960   -5.2300 ha        1 KKK      0.166000
     46 H12         4.5990   -1.5190   -4.6190 ha        1 KKK      0.154000
     47 H13         3.1620   -0.9890   -2.7210 ha        1 KKK      0.141000
     48 H14        -0.5550    2.4640   -0.6220 h1        1 KKK      0.060700
     49 H14A       -0.0210    3.9180    0.3740 h1        1 KKK      0.060700
     50 H16        -2.5560    5.6530   -2.8940 ha        1 KKK      0.148000
     51 H17        -4.9830    5.9280   -2.4710 ha        1 KKK      0.137500
     52 H19        -4.5880    3.5180    1.1390 ha        1 KKK      0.137500
     53 H20        -2.2040    3.2350    0.6930 ha        1 KKK      0.148000
     54 H21        -6.6910    2.9250    0.2710 h1        1 KKK      0.045450
     55 H21A       -6.6310    4.2070    1.5710 h1        1 KKK      0.045450
     56 H22        -8.9130    3.4290    1.3600 h1        1 KKK      0.065450
     57 H22A       -8.9060    3.5970   -0.4560 h1        1 KKK      0.065450
     58 H23        -8.7980    6.0660   -1.3840 h1        1 KKK      0.065450
     59 H23A       -8.7150    7.3740   -0.1050 h1        1 KKK      0.065450
     60 H24        -6.5050    6.8200   -1.2400 h1        1 KKK      0.045450
     61 H24A       -6.4860    6.7410    0.5810 h1        1 KKK      0.045450
     62 H26        -9.4630    4.4460    3.2710 hc        1 KKK      0.066033
     63 H26A      -10.9380    5.4970    3.4130 hc        1 KKK      0.066033
     64 H26B      -10.9130    4.1350    2.2100 hc        1 KKK      0.066033
@<TRIPOS>BOND
     1    1    2 1   
     2    1    6 2   
     3    1   37 1   
     4    2    9 1   
     5    2   12 1   
     6    3   15 1   
     7    3   16 1   
     8    4   21 1   
     9    5    6 1   
    10    5    9 2   
    11    5   38 1   
    12    7   15 1   
    13    7   17 1   
    14    8   19 1   
    15    9   39 1   
    16   10   28 1   
    17   10   31 1   
    18   10   34 1   
    19   11   24 1   
    20   11   25 1   
    21   12   15 1   
    22   12   40 1   
    23   12   41 1   
    24   13   32 1   
    25   13   33 1   
    26   13   35 1   
    27   14   35 2   
    28   15   18 1   
    29   16   17 1   
    30   16   24 1   
    31   16   42 1   
    32   17   43 1   
    33   17   44 1   
    34   18   19 ar  
    35   18   23 ar  
    36   19   20 ar  
    37   20   21 ar  
    38   20   45 1   
    39   21   22 ar  
    40   22   23 ar  
    41   22   46 1   
    42   23   47 1   
    43   24   48 1   
    44   24   49 1   
    45   25   26 ar  
    46   25   30 ar  
    47   26   27 ar  
    48   26   50 1   
    49   27   28 ar  
    50   27   51 1   
    51   28   29 ar  
    52   29   30 ar  
    53   29   52 1   
    54   30   53 1   
    55   31   32 1   
    56   31   54 1   
    57   31   55 1   
    58   32   56 1   
    59   32   57 1   
    60   33   34 1   
    61   33   58 1   
    62   33   59 1   
    63   34   60 1   
    64   34   61 1   
    65   35   36 1   
    66   36   62 1   
    67   36   63 1   
    68   36   64 1   
@<TRIPOS>SUBSTRUCTURE
     1 KKK         1 TEMP              0 ****  ****    0 ROOT
