@<TRIPOS>MOLECULE
KKK
   64    68     1     0     0
SMALL
bcc


@<TRIPOS>ATOM
      1 C1         -0.1100    0.1730    0.3550 cc        1 KKK      0.384400
      2 N1          1.2830    0.3200    0.2300 na        1 KKK     -0.205900
      3 O1          1.3960    2.2050   -2.0720 os        1 KKK     -0.420600
      4 CL1         6.0990    0.1900   -6.3570 cl        1 KKK     -0.074400
      5 C2          0.6470    0.6570    2.3540 cd        1 KKK      0.281200
      6 N2         -0.5100    0.3700    1.6280 nd        1 KKK     -0.672000
      7 O2          3.2280    2.2620   -0.6940 os        1 KKK     -0.426600
      8 CL2         3.9070    3.8400   -3.2120 cl        1 KKK     -0.075400
      9 C3          1.7680    0.6330    1.5060 cc        1 KKK     -0.248600
     10 N3         -6.3830    4.8920   -0.4550 nh        1 KKK     -0.629000
     11 O3         -0.8870    4.3560   -1.4620 os        1 KKK     -0.330900
     12 C4          2.0580    0.1450   -0.9560 c3        1 KKK      0.020300
     13 N4         -9.0390    5.4300    0.5810 n         1 KKK     -0.465800
     14 O4         -9.9380    7.1360    1.8140 o         1 KKK     -0.607100
     15 C5          2.5370    1.4590   -1.6510 c3        1 KKK      0.384900
     16 C6          1.2750    3.4290   -1.3260 c3        1 KKK      0.117100
     17 C7          2.4390    3.4020   -0.3330 c3        1 KKK      0.110400
     18 C8          3.4350    1.1680   -2.8400 ca        1 KKK     -0.083300
     19 C9          4.0760    2.1860   -3.5680 ca        1 KKK      0.070400
     20 C10         4.9050    1.8840   -4.6580 ca        1 KKK     -0.130000
     21 C11         5.0950    0.5570   -5.0390 ca        1 KKK      0.036400
     22 C12         4.4570   -0.4690   -4.3370 ca        1 KKK     -0.130000
     23 C13         3.6400   -0.1560   -3.2550 ca        1 KKK     -0.103000
     24 C14        -0.0980    3.4740   -0.6570 c3        1 KKK      0.116400
     25 C15        -2.2270    4.4340   -1.1230 ca        1 KKK      0.101100
     26 C16        -3.0110    5.2080   -1.9980 ca        1 KKK     -0.156500
     27 C17        -4.3640    5.3680   -1.7500 ca        1 KKK     -0.130000
     28 C18        -4.9760    4.7650   -0.6230 ca        1 KKK      0.094600
     29 C19        -4.1680    3.9980    0.2400 ca        1 KKK     -0.130000
     30 C20        -2.8070    3.8280   -0.0070 ca        1 KKK     -0.156500
     31 C21        -6.9890    3.9970    0.5160 c3        1 KKK      0.158300
     32 C22        -8.5350    4.0820    0.4960 c3        1 KKK      0.082500
     33 C23        -8.4030    6.3520   -0.3350 c3        1 KKK      0.082500
     34 C24        -6.8600    6.2630   -0.3330 c3        1 KKK      0.158300
     35 C25        -9.7310    5.9120    1.6900 c         1 KKK      0.655100
     36 C26       -10.2920    4.9390    2.6970 c3        1 KKK     -0.170100
     37 H1         -0.7550   -0.0770   -0.4940 h5        1 KKK      0.066100
     38 H2          0.6130    0.8540    3.4250 h4        1 KKK      0.043100
     39 H3          2.8250    0.8150    1.6910 h4        1 KKK      0.187000
     40 H4          2.9820   -0.4430   -0.6870 h1        1 KKK      0.079700
     41 H4A         1.4300   -0.4200   -1.7020 h1        1 KKK      0.079700
     42 H6          1.3680    4.2640   -2.0740 h1        1 KKK      0.100700
     43 H7          2.1090    3.2610    0.7280 h1        1 KKK      0.070700
     44 H7A         3.1080    4.2940   -0.4260 h1        1 KKK      0.070700
     45 H10         5.4010    2.6970   -5.2130 ha        1 KKK      0.166000
     46 H12         4.5960   -1.5200   -4.6350 ha        1 KKK      0.154000
     47 H13         3.1540   -0.9990   -2.7400 ha        1 KKK      0.141000
     48 H14        -0.5610    2.4520   -0.6300 h1        1 KKK      0.060700
     49 H14A       -0.0250    3.8940    0.3810 h1        1 KKK      0.060700
     50 H16        -2.5390    5.6760   -2.8750 ha        1 KKK      0.148000
     51 H17        -4.9660    5.9640   -2.4540 ha        1 KKK      0.137500
     52 H19        -4.5930    3.5110    1.1310 ha        1 KKK      0.137500
     53 H20        -2.2110    3.2170    0.6860 ha        1 KKK      0.148000
     54 H21        -6.6990    2.9420    0.2510 h1        1 KKK      0.045450
     55 H21A       -6.6330    4.2080    1.5660 h1        1 KKK      0.045450
     56 H22        -8.9090    3.6390   -0.4730 h1        1 KKK      0.065450
     57 H22A       -8.9200    3.4490    1.3410 h1        1 KKK      0.065450
     58 H23        -8.7820    6.1170   -1.3710 h1        1 KKK      0.065450
     59 H23A       -8.6920    7.4100   -0.0770 h1        1 KKK      0.065450
     60 H24        -6.4680    6.7530    0.6060 h1        1 KKK      0.045450
     61 H24A       -6.4840    6.8530   -1.2140 h1        1 KKK      0.045450
     62 H26       -10.9320    5.5080    3.4170 hc        1 KKK      0.066033
     63 H26A       -9.4660    4.4470    3.2640 hc        1 KKK      0.066033
     64 H26B      -10.9160    4.1600    2.1980 hc        1 KKK      0.066033
@<TRIPOS>BOND
     1    1    2 1   
     2    1    6 2   
     3    1   37 1   
     4    2    9 1   
     5    2   12 1   
     6    3   15 1   
     7    3   16 1   
     8    4   21 1   
     9    5    6 1   
    10    5    9 2   
    11    5   38 1   
    12    7   15 1   
    13    7   17 1   
    14    8   19 1   
    15    9   39 1   
    16   10   28 1   
    17   10   31 1   
    18   10   34 1   
    19   11   24 1   
    20   11   25 1   
    21   12   15 1   
    22   12   40 1   
    23   12   41 1   
    24   13   32 1   
    25   13   33 1   
    26   13   35 1   
    27   14   35 2   
    28   15   18 1   
    29   16   17 1   
    30   16   24 1   
    31   16   42 1   
    32   17   43 1   
    33   17   44 1   
    34   18   19 ar  
    35   18   23 ar  
    36   19   20 ar  
    37   20   21 ar  
    38   20   45 1   
    39   21   22 ar  
    40   22   23 ar  
    41   22   46 1   
    42   23   47 1   
    43   24   48 1   
    44   24   49 1   
    45   25   26 ar  
    46   25   30 ar  
    47   26   27 ar  
    48   26   50 1   
    49   27   28 ar  
    50   27   51 1   
    51   28   29 ar  
    52   29   30 ar  
    53   29   52 1   
    54   30   53 1   
    55   31   32 1   
    56   31   54 1   
    57   31   55 1   
    58   32   56 1   
    59   32   57 1   
    60   33   34 1   
    61   33   58 1   
    62   33   59 1   
    63   34   60 1   
    64   34   61 1   
    65   35   36 1   
    66   36   62 1   
    67   36   63 1   
    68   36   64 1   
@<TRIPOS>SUBSTRUCTURE
     1 KKK         1 TEMP              0 ****  ****    0 ROOT
