@<TRIPOS>MOLECULE
KKK
   64    60     1     0     0
SMALL
bcc


@<TRIPOS>ATOM
      1 C1         -4.7520   -2.9430    0.6950 c1        1 KKK     -0.099000
      2 N1         -5.5030   -1.9280    0.1940 n2        1 KKK     -0.153000
      3 O1         -3.8060    0.3080    0.9640 os        1 KKK     -0.293000
      4 CL1        -7.6950    5.4820    2.4880 cl        1 KKK      0.002000
      5 C2         -5.4930   -3.5630   -1.2670 c1        1 KKK     -0.168000
      6 N2         -4.7500   -3.9500   -0.2110 n2        1 KKK     -0.153000
      7 O2         -4.7530    0.4440   -1.0360 os        1 KKK     -0.276000
      8 CL2        -6.8640    1.7660   -1.4920 cl        1 KKK      0.009000
      9 C3         -5.9610   -2.3070   -1.0150 c1        1 KKK     -0.168000
     10 N3          4.7960   -0.5170   -1.2110 n3        1 KKK     -0.231000
     11 O3         -0.4210    1.3220    0.1950 os        1 KKK     -0.221000
     12 C4         -5.8890   -0.7450    0.8950 c2        1 KKK     -0.018000
     13 N4          7.5340   -0.8800   -0.5430 n         1 KKK     -0.325000
     14 O4          9.4560    0.1380    0.2370 o         1 KKK     -0.367000
     15 C5         -4.9620    0.4480    0.4660 c3        1 KKK      0.233000
     16 C6         -2.8240    0.8900   -0.0670 c3        1 KKK      0.009000
     17 C7         -3.2910    0.5750   -1.2300 c3        1 KKK     -0.038000
     18 C8         -5.5500    1.7390    0.9020 c2        1 KKK     -0.119000
     19 C9         -6.5490    2.3340    0.1500 c2        1 KKK     -0.027000
     20 C10        -7.1630    3.4710    0.6030 c1        1 KKK     -0.132000
     21 C11        -6.7840    4.0330    1.8220 c1        1 KKK     -0.043000
     22 C12        -5.7890    3.4400    2.5700 c1        1 KKK     -0.131000
     23 C13        -5.1720    2.2930    2.1120 c1        1 KKK     -0.089000
     24 C14        -1.4090    0.2670    0.1300 c3        1 KKK     -0.034000
     25 C15         0.9570    0.8830   -0.1460 c2        1 KKK      0.054000
     26 C16         1.5960    1.4170   -1.2310 c2        1 KKK     -0.135000
     27 C17         2.8830    0.9420   -1.6020 c1        1 KKK     -0.119000
     28 C18         3.4890   -0.0650   -0.8630 c1        1 KKK      0.016000
     29 C19         2.8440   -0.6000    0.2260 c1        1 KKK     -0.143000
     30 C20         1.5720   -0.1300    0.5930 c1        1 KKK     -0.175000
     31 C21         5.6940    0.5920   -1.2110 c3        1 KKK     -0.078000
     32 C22         7.1210    0.1760   -1.4400 c3        1 KKK     -0.033500
     33 C23         6.6630   -1.9900   -0.5320 c3        1 KKK     -0.033500
     34 C24         5.2170   -1.5770   -0.2990 c3        1 KKK     -0.078000
     35 C25         8.7750   -0.8040    0.2920 c2        1 KKK      0.299000
     36 C26         9.1520   -1.9670    1.2120 c3        1 KKK     -0.238000
     37 H1         -4.2680   -2.9470    1.6060 DU        1 KKK      0.187333
     38 H2         -5.6670   -4.0930   -2.0760 DU        1 KKK      0.187333
     39 H3         -6.5200   -1.7810   -1.6000 DU        1 KKK      0.187333
     40 H4         -6.8330   -0.5260    0.6760 ha        1 KKK      0.123500
     41 H4A        -5.8010   -0.8970    1.8860 ha        1 KKK      0.123500
     42 H6         -2.7780    1.8520    0.0250 h1        1 KKK      0.126000
     43 H7         -3.1080    1.2390   -1.8390 h1        1 KKK      0.113000
     44 H7A        -2.9150   -0.2650   -1.5250 h1        1 KKK      0.113000
     45 H10        -7.8690    3.8540    0.1060 ha        1 KKK      0.165000
     46 H12        -5.5090    3.8470    3.4600 ha        1 KKK      0.156000
     47 H13        -4.5270    1.9070    2.5960 ha        1 KKK      0.163000
     48 H14        -1.3940   -0.2180    0.9190 h1        1 KKK      0.102000
     49 H14A       -1.2050   -0.3210   -0.6150 h1        1 KKK      0.102000
     50 H16         1.1500    2.1510   -1.7680 ha        1 KKK      0.148000
     51 H17         3.3690    1.3460   -2.4230 ha        1 KKK      0.141000
     52 H19         3.2490   -1.2710    0.7170 ha        1 KKK      0.136000
     53 H20         1.1480   -0.4870    1.3140 ha        1 KKK      0.147000
     54 H21         5.6360    1.0300   -0.3720 h1        1 KKK      0.084750
     55 H21A        5.4330    1.2010   -1.8970 h1        1 KKK      0.084750
     56 H22         7.6960    0.9470   -1.3090 h1        1 KKK      0.104750
     57 H22A        7.2190   -0.1470   -2.4010 h1        1 KKK      0.104750
     58 H23         6.7340   -2.4840   -1.4300 h1        1 KKK      0.104750
     59 H23A        6.9530   -2.6290    0.2230 h1        1 KKK      0.104750
     60 H24         4.6400   -2.3520   -0.4310 h1        1 KKK      0.084750
     61 H24A        5.1250   -1.2820    0.5640 h1        1 KKK      0.084750
     62 H26         9.3060   -2.7850    0.6650 hc        1 KKK      0.105333
     63 H26A        9.9770   -1.7450    1.7050 hc        1 KKK      0.105333
     64 H26B        8.3960   -2.1360    1.8730 hc        1 KKK      0.105333
@<TRIPOS>BOND
     1    1    2 1   
     2    1    6 1   
     3    2    9 1   
     4    3   15 1   
     5    3   16 1   
     6    4   21 1   
     7    5    6 1   
     8    5    9 1   
     9    7   15 1   
    10    7   17 1   
    11    8   19 1   
    12   10   28 1   
    13   10   31 1   
    14   10   34 1   
    15   11   24 1   
    16   11   25 1   
    17   12   15 1   
    18   12   40 1   
    19   12   41 1   
    20   13   32 1   
    21   13   33 1   
    22   13   35 1   
    23   14   35 1   
    24   15   18 1   
    25   16   17 1   
    26   16   24 1   
    27   16   42 1   
    28   17   43 1   
    29   17   44 1   
    30   18   19 1   
    31   18   23 1   
    32   19   20 1   
    33   20   45 1   
    34   21   22 1   
    35   22   46 1   
    36   23   47 1   
    37   24   48 1   
    38   24   49 1   
    39   25   26 1   
    40   25   30 1   
    41   26   27 1   
    42   26   50 1   
    43   27   51 1   
    44   28   29 1   
    45   29   52 1   
    46   30   53 1   
    47   31   32 1   
    48   31   54 1   
    49   31   55 1   
    50   32   56 1   
    51   32   57 1   
    52   33   34 1   
    53   33   58 1   
    54   33   59 1   
    55   34   60 1   
    56   34   61 1   
    57   35   36 1   
    58   36   62 1   
    59   36   63 1   
    60   36   64 1   
@<TRIPOS>SUBSTRUCTURE
     1 KKK         1 TEMP              0 ****  ****    0 ROOT
