@<TRIPOS>MOLECULE
KKN
   17    18     1     0     0
SMALL
bcc


@<TRIPOS>ATOM
      1 O01        -0.0000   -0.0240   -0.0740 os        1 KKN     -0.383800
      2 C02         1.3820    0.0110    0.0110 cc        1 KKN      0.315600
      3 C03         1.9790    0.0270    1.2170 cd        1 KKN     -0.069200
      4 C04         1.2270    0.0090    2.4880 cd        1 KKN      0.009000
      5 C05        -0.1950   -0.0280    2.3450 cd        1 KKN     -0.265300
      6 C06        -0.7260   -0.0420    1.0970 cc        1 KKN      0.341600
      7 C07         2.1270    0.0320    3.5150 cc        1 KKN     -0.205400
      8 C08         3.4780    0.0660    2.9020 c         1 KKN      0.717800
      9 O09         4.6300    0.0960    3.3020 o         1 KKN     -0.545500
     10 O10         3.3470    0.0620    1.4800 os        1 KKN     -0.322200
     11 C11         1.9210    0.0270    4.9620 c3        1 KKN     -0.026900
     12 H1          1.8330    0.0230   -0.9900 h4        1 KKN      0.066100
     13 H2         -0.8330   -0.0440    3.2400 ha        1 KKN      0.164000
     14 H3         -1.8000   -0.0700    0.8480 h4        1 KKN      0.048100
     15 H5          2.4160   -0.8660    5.4230 hc        1 KKN      0.053033
     16 H6          2.3690    0.9450    5.4220 hc        1 KKN      0.053033
     17 H7          0.8300   -0.0010    5.2070 hc        1 KKN      0.053033
@<TRIPOS>BOND
     1    1    2 1   
     2    1    6 1   
     3    2    3 2   
     4    2   12 1   
     5    3    4 1   
     6    3   10 1   
     7    4    5 1   
     8    4    7 2   
     9    5    6 2   
    10    5   13 1   
    11    6   14 1   
    12    7    8 1   
    13    7   11 1   
    14    8    9 2   
    15    8   10 1   
    16   11   15 1   
    17   11   16 1   
    18   11   17 1   
@<TRIPOS>SUBSTRUCTURE
     1 KKN         1 TEMP              0 ****  ****    0 ROOT
