@<TRIPOS>MOLECULE
KKN
   17    15     1     0     0
SMALL
bcc


@<TRIPOS>ATOM
      1 O01        -1.4940   -0.5640   -2.5400 os        1 KKN     -0.125000
      2 C02        -0.0430   -0.5640   -2.5400 c2        1 KKN     -0.016000
      3 C03         0.7210   -0.5640   -1.2110 c1        1 KKN     -0.049000
      4 C04         0.0320   -0.3300   -0.0110 c1        1 KKN      0.009000
      5 C05        -1.4580   -0.3850    0.0060 c1        1 KKN     -0.200000
      6 C06        -2.2150   -0.5000   -1.2910 c2        1 KKN      0.010000
      7 C07         0.6780    0.4740    0.8350 c1        1 KKN     -0.182000
      8 C08         1.9300    0.9390    0.3480 c2        1 KKN      0.333000
      9 O09         2.8500    1.3530    1.0240 o         1 KKN     -0.270000
     10 O10         2.0510    0.2820   -1.0590 os        1 KKN     -0.187000
     11 C11         0.4460    0.3480    2.3250 c2        1 KKN     -0.149000
     12 H1          0.4460   -0.6070   -3.3840 h4        1 KKN      0.203000
     13 H2         -1.9410   -0.3420    0.8530 ha        1 KKN      0.164000
     14 H3         -3.1910   -0.5000   -1.2890 h4        1 KKN      0.185000
     15 H5         -0.3120    0.9050    2.5840 ha        1 KKN      0.092333
     16 H6          1.2440    0.6410    2.8040 ha        1 KKN      0.092333
     17 H7          0.2570   -0.5840    2.5470 ha        1 KKN      0.092333
@<TRIPOS>BOND
     1    1    2 1   
     2    1    6 1   
     3    2    3 1   
     4    2   12 1   
     5    3   10 1   
     6    4    7 1   
     7    5    6 1   
     8    5   13 1   
     9    6   14 1   
    10    7    8 1   
    11    8    9 1   
    12    8   10 1   
    13   11   15 1   
    14   11   16 1   
    15   11   17 1   
@<TRIPOS>SUBSTRUCTURE
     1 KKN         1 TEMP              0 ****  ****    0 ROOT
