@<TRIPOS>MOLECULE
KKN
   17    18     1     0     0
SMALL
bcc


@<TRIPOS>ATOM
      1 O01         2.7780   -0.4820    0.0390 os        1 KKN     -0.383800
      2 C02         1.6820   -1.3280   -0.0170 cc        1 KKN      0.315600
      3 C03         0.4390   -0.8130   -0.0330 cd        1 KKN     -0.069200
      4 C04         0.1670    0.6390    0.0070 cd        1 KKN      0.009000
      5 C05         1.3310    1.4670    0.0650 cd        1 KKN     -0.265300
      6 C06         2.5520    0.8770    0.0770 cc        1 KKN      0.341600
      7 C07        -1.1860    0.8190   -0.0220 cc        1 KKN     -0.205400
      8 C08        -1.7990   -0.5310   -0.0820 c         1 KKN      0.717800
      9 O09        -2.9290   -0.9890   -0.1260 o         1 KKN     -0.545500
     10 O10        -0.7640   -1.5160   -0.0870 os        1 KKN     -0.322200
     11 C11        -1.9840    2.0430   -0.0030 c3        1 KKN     -0.026900
     12 H1          2.0020   -2.3770   -0.0430 h4        1 KKN      0.066100
     13 H2          1.2220    2.5590    0.0970 ha        1 KKN      0.164000
     14 H3          3.5240    1.3960    0.1190 h4        1 KKN      0.048100
     15 H5         -2.6190    2.1090   -0.9230 hc        1 KKN      0.053033
     16 H6         -2.6660    2.0500    0.8860 hc        1 KKN      0.053033
     17 H7         -1.3250    2.9450    0.0440 hc        1 KKN      0.053033
@<TRIPOS>BOND
     1    1    2 1   
     2    1    6 1   
     3    2    3 2   
     4    2   12 1   
     5    3    4 1   
     6    3   10 1   
     7    4    5 1   
     8    4    7 2   
     9    5    6 2   
    10    5   13 1   
    11    6   14 1   
    12    7    8 1   
    13    7   11 1   
    14    8    9 2   
    15    8   10 1   
    16   11   15 1   
    17   11   16 1   
    18   11   17 1   
@<TRIPOS>SUBSTRUCTURE
     1 KKN         1 TEMP              0 ****  ****    0 ROOT
