@<TRIPOS>MOLECULE
KKR
   76    81     1     0     0
SMALL
bcc


@<TRIPOS>ATOM
      1 C1          9.5820    1.6270   -3.5150 c3        1 KKR     -0.080400
      2 C2         10.2340    0.8090   -2.4660 c2        1 KKR     -0.005400
      3 C3         11.7160    0.8550   -2.4360 c3        1 KKR     -0.080400
      4 C4          9.5440    0.0610   -1.5820 ce        1 KKR     -0.295200
      5 C5          8.0830   -0.0450   -1.5380 c         1 KKR      0.569300
      6 O6          7.3220    0.5590   -2.3090 o         1 KKR     -0.560100
      7 C7          7.5640   -0.9570   -0.4600 c3        1 KKR     -0.171400
      8 C8          6.0560   -1.0750   -0.4920 c3        1 KKR     -0.140400
      9 C9          5.5600   -1.9280    0.6590 c         1 KKR      0.654100
     10 O10         6.3440   -2.3390    1.5390 o         1 KKR     -0.615100
     11 N11         4.2210   -2.3100    0.6890 n         1 KKR     -0.462800
     12 C12         3.7000   -3.0340    1.8290 c3        1 KKR      0.083000
     13 C13         2.6890   -2.2210    2.6680 c3        1 KKR      0.140800
     14 N14         1.6520   -1.5970    1.8550 n3        1 KKR     -0.724600
     15 C15         2.1940   -0.8500    0.7300 c3        1 KKR      0.140800
     16 C16         3.2000   -1.6720   -0.1070 c3        1 KKR      0.083000
     17 C17         0.7350   -0.8100    2.6700 c3        1 KKR      0.237000
     18 C18        -0.4870   -0.3630    1.9500 cc        1 KKR     -0.095600
     19 C19        -1.2340   -1.1080    1.0780 cd        1 KKR     -0.225800
     20 C20        -2.3870   -0.3660    0.6020 ca        1 KKR      0.456100
     21 N21        -3.3180   -0.8100   -0.2830 nb        1 KKR     -0.667000
     22 C22        -4.3000    0.0770   -0.5880 cp        1 KKR      0.721500
     23 N23        -4.4390    1.3530   -0.0780 nb        1 KKR     -0.738000
     24 C24        -3.5100    1.7960    0.8040 ca        1 KKR      0.698200
     25 C25        -2.4240    0.9420    1.1900 ca        1 KKR     -0.344700
     26 S26        -1.1180    1.1880    2.2070 ss        1 KKR      0.080500
     27 N27        -3.5340    3.1310    1.2980 nh        1 KKR     -0.732300
     28 C28        -4.4440    4.0570    0.6310 c3        1 KKR      0.145800
     29 C29        -4.2710    5.4900    1.1520 c3        1 KKR      0.122900
     30 O30        -4.3860    5.5530    2.5690 os        1 KKR     -0.410600
     31 C31        -3.4590    4.6940    3.2200 c3        1 KKR      0.122900
     32 C32        -3.6080    3.2400    2.7520 c3        1 KKR      0.145800
     33 C33        -5.3410   -0.3570   -1.5590 cp        1 KKR     -0.069500
     34 C34        -5.8230    0.5260   -2.5240 ca        1 KKR     -0.118000
     35 C35        -6.8130    0.1360   -3.4420 ca        1 KKR     -0.111000
     36 C36        -7.3630   -1.1380   -3.4340 ca        1 KKR     -0.126000
     37 C37        -6.8820   -2.0370   -2.4750 ca        1 KKR     -0.067200
     38 N38        -7.2490   -3.3580   -2.1450 na        1 KKR     -0.018100
     39 N39        -6.4710   -3.8400   -1.1590 nc        1 KKR     -0.520100
     40 C40        -5.6590   -2.8610   -0.7280 cd        1 KKR      0.369800
     41 C41        -5.8580   -1.6540   -1.5280 ca        1 KKR     -0.178900
     42 H11C       10.3340    2.1620   -4.1450 hc        1 KKR      0.055867
     43 H12C        8.9490    0.9770   -4.1720 hc        1 KKR      0.055867
     44 H13C        8.8980    2.3790   -3.0450 hc        1 KKR      0.055867
     45 H31C       12.0600    1.9080   -2.2790 hc        1 KKR      0.055867
     46 H32C       12.1380    0.2190   -1.6210 hc        1 KKR      0.055867
     47 H33C       12.1260    0.4960   -3.4140 hc        1 KKR      0.055867
     48 H4C        10.0780   -0.5300   -0.8200 ha        1 KKR      0.136000
     49 H71C        8.0280   -1.9720   -0.5810 hc        1 KKR      0.083700
     50 H72C        7.8960   -0.5660    0.5400 hc        1 KKR      0.083700
     51 H81C        5.6000   -0.0510   -0.4190 hc        1 KKR      0.077200
     52 H82C        5.7370   -1.5200   -1.4710 hc        1 KKR      0.077200
     53 H121        3.1890   -3.9600    1.4380 h1        1 KKR      0.067950
     54 H122        4.5440   -3.3460    2.5060 h1        1 KKR      0.067950
     55 H161        3.6490   -0.9850   -0.8740 h1        1 KKR      0.067950
     56 H162        2.6380   -2.4860   -0.6510 h1        1 KKR      0.067950
     57 H131        2.1860   -2.9350    3.3780 h1        1 KKR      0.043200
     58 H132        3.2530   -1.4600    3.2820 h1        1 KKR      0.043200
     59 H151        1.3320   -0.5740    0.0590 h1        1 KKR      0.043200
     60 H152        2.6950    0.1060    1.0640 h1        1 KKR      0.043200
     61 H171        0.4070   -1.4660    3.5320 h1        1 KKR      0.047200
     62 H172        1.2470    0.0990    3.1110 h1        1 KKR      0.047200
     63 H19        -1.0160   -2.1300    0.7570 ha        1 KKR      0.185000
     64 H281       -4.2140    4.0460   -0.4700 h1        1 KKR      0.058700
     65 H282       -5.5200    3.7510    0.7720 h1        1 KKR      0.058700
     66 H321       -4.5890    2.8380    3.1380 h1        1 KKR      0.058700
     67 H322       -2.7750    2.6320    3.2080 h1        1 KKR      0.058700
     68 H291       -3.2820    5.9140    0.8360 h1        1 KKR      0.058200
     69 H292       -5.1080    6.1350    0.7740 h1        1 KKR      0.058200
     70 H311       -2.4140    5.0630    3.0420 h1        1 KKR      0.058200
     71 H312       -3.7180    4.7710    4.3080 h1        1 KKR      0.058200
     72 H34        -5.4310    1.5540   -2.5760 ha        1 KKR      0.147000
     73 H35        -7.1600    0.8690   -4.1880 ha        1 KKR      0.136000
     74 H36        -8.1430   -1.4290   -4.1500 ha        1 KKR      0.140000
     75 H38        -7.6720   -3.9970   -2.7770 hn        1 KKR      0.312700
     76 H40        -4.9600   -2.9940    0.0990 h4        1 KKR      0.066800
@<TRIPOS>BOND
     1    1    2 1   
     2    1   42 1   
     3    1   43 1   
     4    1   44 1   
     5    2    3 1   
     6    2    4 2   
     7    3   45 1   
     8    3   46 1   
     9    3   47 1   
    10    4    5 1   
    11    4   48 1   
    12    5    6 2   
    13    5    7 1   
    14    7    8 1   
    15    7   49 1   
    16    7   50 1   
    17    8    9 1   
    18    8   51 1   
    19    8   52 1   
    20    9   10 2   
    21    9   11 1   
    22   11   12 1   
    23   11   16 1   
    24   12   13 1   
    25   12   53 1   
    26   12   54 1   
    27   13   14 1   
    28   13   57 1   
    29   13   58 1   
    30   14   15 1   
    31   14   17 1   
    32   15   16 1   
    33   15   59 1   
    34   15   60 1   
    35   16   55 1   
    36   16   56 1   
    37   17   18 1   
    38   17   61 1   
    39   17   62 1   
    40   18   19 2   
    41   18   26 1   
    42   19   20 1   
    43   19   63 1   
    44   20   21 ar  
    45   20   25 ar  
    46   21   22 ar  
    47   22   23 ar  
    48   22   33 1   
    49   23   24 ar  
    50   24   25 ar  
    51   24   27 1   
    52   25   26 1   
    53   27   28 1   
    54   27   32 1   
    55   28   29 1   
    56   28   64 1   
    57   28   65 1   
    58   29   30 1   
    59   29   68 1   
    60   29   69 1   
    61   30   31 1   
    62   31   32 1   
    63   31   70 1   
    64   31   71 1   
    65   32   66 1   
    66   32   67 1   
    67   33   34 ar  
    68   33   41 ar  
    69   34   35 ar  
    70   34   72 1   
    71   35   36 ar  
    72   35   73 1   
    73   36   37 ar  
    74   36   74 1   
    75   37   38 1   
    76   37   41 ar  
    77   38   39 1   
    78   38   75 1   
    79   39   40 2   
    80   40   41 1   
    81   40   76 1   
@<TRIPOS>SUBSTRUCTURE
     1 KKR         1 TEMP              0 ****  ****    0 ROOT
