@<TRIPOS>MOLECULE
KKR
   76    81     1     0     0
SMALL
bcc


@<TRIPOS>ATOM
      1 C1          0.5620    1.3820    0.3340 c3        1 KKR     -0.080400
      2 C2          1.9070    0.8210    0.0660 c2        1 KKR     -0.005400
      3 C3          2.8020    0.6940    1.2420 c3        1 KKR     -0.080400
      4 C4          2.3140    0.4430   -1.1620 ce        1 KKR     -0.295200
      5 C5          1.5010    0.5330   -2.3770 c         1 KKR      0.569300
      6 O6          0.3370    0.9610   -2.4000 o         1 KKR     -0.560100
      7 C7          2.1970    0.0530   -3.6220 c3        1 KKR     -0.171400
      8 C8          1.3360    0.2170   -4.8550 c3        1 KKR     -0.140400
      9 C9          2.0290   -0.3580   -6.0740 c         1 KKR      0.654100
     10 O10         3.1100   -0.9750   -5.9680 o         1 KKR     -0.615100
     11 N11         1.4800   -0.1320   -7.3330 n         1 KKR     -0.462800
     12 C12         2.0610   -0.7610   -8.5010 c3        1 KKR      0.083000
     13 C13         1.1530   -1.8330   -9.1420 c3        1 KKR      0.140800
     14 N14        -0.2110   -1.3650   -9.3550 n3        1 KKR     -0.724600
     15 C15        -0.7910   -0.7610   -8.1650 c3        1 KKR      0.140800
     16 C16         0.1220    0.3150   -7.5340 c3        1 KKR      0.083000
     17 C17        -1.0520   -2.4100   -9.9270 c3        1 KKR      0.237000
     18 C18        -2.3730   -1.9300  -10.4090 cc        1 KKR     -0.095600
     19 C19        -2.6150   -0.7750  -11.1030 cd        1 KKR     -0.225800
     20 C20        -4.0170   -0.6520  -11.4550 ca        1 KKR      0.456100
     21 N21        -4.5880    0.3800  -12.1290 nb        1 KKR     -0.667000
     22 C22        -5.9280    0.2760  -12.3260 cp        1 KKR      0.720500
     23 N23        -6.7370   -0.7700  -11.9260 nb        1 KKR     -0.738000
     24 C24        -6.1660   -1.7990  -11.2530 ca        1 KKR      0.698200
     25 C25        -4.7580   -1.7860  -10.9830 ca        1 KKR     -0.344700
     26 S26        -3.7680   -2.8600  -10.1650 ss        1 KKR      0.080500
     27 N27        -6.9500   -2.8640  -10.7260 nh        1 KKR     -0.732300
     28 C28        -8.3970   -2.6720  -10.7270 c3        1 KKR      0.145800
     29 C29        -9.1180   -3.8160  -10.0020 c3        1 KKR      0.122900
     30 O30        -8.7460   -5.0870  -10.5230 os        1 KKR     -0.410600
     31 C31        -7.3410   -5.2980  -10.4660 c3        1 KKR      0.122900
     32 C32        -6.5720   -4.1920  -11.2010 c3        1 KKR      0.145800
     33 C33        -6.6040    1.3850  -13.0530 cp        1 KKR     -0.069500
     34 C34        -7.8580    1.8390  -12.6460 ca        1 KKR     -0.118000
     35 C35        -8.5150    2.8780  -13.3260 ca        1 KKR     -0.111000
     36 C36        -7.9580    3.5000  -14.4340 ca        1 KKR     -0.126000
     37 C37        -6.6960    3.0580  -14.8490 ca        1 KKR     -0.067200
     38 N38        -5.8810    3.4100  -15.9450 na        1 KKR     -0.018100
     39 N39        -4.7180    2.7340  -15.9160 nc        1 KKR     -0.520100
     40 C40        -4.7540    1.8520  -14.9020 cd        1 KKR      0.369800
     41 C41        -6.0030    1.9950  -14.1560 ca        1 KKR     -0.178900
     42 H11C        0.4000    2.3040   -0.2820 hc        1 KKR      0.055867
     43 H12C        0.4310    1.6370    1.4130 hc        1 KKR      0.055867
     44 H13C       -0.2280    0.6470    0.0330 hc        1 KKR      0.055867
     45 H31C        2.9670    1.7010    1.7030 hc        1 KKR      0.055867
     46 H32C        3.7950    0.2630    0.9670 hc        1 KKR      0.055867
     47 H33C        2.3270    0.0320    2.0100 hc        1 KKR      0.055867
     48 H4C         3.3270    0.0310   -1.3070 ha        1 KKR      0.136000
     49 H71C        3.1580    0.6210   -3.7480 hc        1 KKR      0.083700
     50 H72C        2.4740   -1.0280   -3.4900 hc        1 KKR      0.083700
     51 H81C        0.3570   -0.3100   -4.6990 hc        1 KKR      0.077200
     52 H82C        1.1140    1.3060   -5.0120 hc        1 KKR      0.077200
     53 H121        2.2600    0.0500   -9.2580 h1        1 KKR      0.067950
     54 H122        3.0390   -1.2480   -8.2280 h1        1 KKR      0.067950
     55 H161       -0.3490    0.6380   -6.5660 h1        1 KKR      0.067950
     56 H162        0.1570    1.2080   -8.2220 h1        1 KKR      0.067950
     57 H131        1.1810   -2.7630   -8.5020 h1        1 KKR      0.043200
     58 H132        1.5890   -2.0910  -10.1470 h1        1 KKR      0.043200
     59 H151       -1.7520   -0.2600   -8.4720 h1        1 KKR      0.043200
     60 H152       -1.0370   -1.5340   -7.3790 h1        1 KKR      0.043200
     61 H171       -1.2200   -3.2560   -9.1930 h1        1 KKR      0.047200
     62 H172       -0.4950   -2.8380  -10.8140 h1        1 KKR      0.047200
     63 H19        -1.8710   -0.0190  -11.3700 ha        1 KKR      0.185000
     64 H281       -8.8030   -2.6000  -11.7770 h1        1 KKR      0.058700
     65 H282       -8.6260   -1.7090  -10.1920 h1        1 KKR      0.058700
     66 H321       -6.7660   -4.2940  -12.3080 h1        1 KKR      0.058700
     67 H322       -5.4690   -4.3450  -11.0220 h1        1 KKR      0.058700
     68 H291      -10.2220   -3.7490  -10.1910 h1        1 KKR      0.058200
     69 H292       -8.9110   -3.7860   -8.9000 h1        1 KKR      0.058200
     70 H311       -7.0120   -5.3660   -9.3960 h1        1 KKR      0.058200
     71 H312       -7.1820   -6.2800  -10.9840 h1        1 KKR      0.058200
     72 H34        -8.3540    1.3810  -11.7770 ha        1 KKR      0.147000
     73 H35        -9.5030    3.2040  -12.9650 ha        1 KKR      0.136000
     74 H36        -8.4850    4.3040  -14.9650 ha        1 KKR      0.140000
     75 H38        -5.9120    4.2890  -16.4080 hn        1 KKR      0.312700
     76 H40        -3.9410    1.1550  -14.6970 h4        1 KKR      0.066800
@<TRIPOS>BOND
     1    1    2 1   
     2    1   42 1   
     3    1   43 1   
     4    1   44 1   
     5    2    3 1   
     6    2    4 2   
     7    3   45 1   
     8    3   46 1   
     9    3   47 1   
    10    4    5 1   
    11    4   48 1   
    12    5    6 2   
    13    5    7 1   
    14    7    8 1   
    15    7   49 1   
    16    7   50 1   
    17    8    9 1   
    18    8   51 1   
    19    8   52 1   
    20    9   10 2   
    21    9   11 1   
    22   11   12 1   
    23   11   16 1   
    24   12   13 1   
    25   12   53 1   
    26   12   54 1   
    27   13   14 1   
    28   13   57 1   
    29   13   58 1   
    30   14   15 1   
    31   14   17 1   
    32   15   16 1   
    33   15   59 1   
    34   15   60 1   
    35   16   55 1   
    36   16   56 1   
    37   17   18 1   
    38   17   61 1   
    39   17   62 1   
    40   18   19 2   
    41   18   26 1   
    42   19   20 1   
    43   19   63 1   
    44   20   21 ar  
    45   20   25 ar  
    46   21   22 ar  
    47   22   23 ar  
    48   22   33 1   
    49   23   24 ar  
    50   24   25 ar  
    51   24   27 1   
    52   25   26 1   
    53   27   28 1   
    54   27   32 1   
    55   28   29 1   
    56   28   64 1   
    57   28   65 1   
    58   29   30 1   
    59   29   68 1   
    60   29   69 1   
    61   30   31 1   
    62   31   32 1   
    63   31   70 1   
    64   31   71 1   
    65   32   66 1   
    66   32   67 1   
    67   33   34 ar  
    68   33   41 ar  
    69   34   35 ar  
    70   34   72 1   
    71   35   36 ar  
    72   35   73 1   
    73   36   37 ar  
    74   36   74 1   
    75   37   38 1   
    76   37   41 ar  
    77   38   39 1   
    78   38   75 1   
    79   39   40 2   
    80   40   41 1   
    81   40   76 1   
@<TRIPOS>SUBSTRUCTURE
     1 KKR         1 TEMP              0 ****  ****    0 ROOT
