@<TRIPOS>MOLECULE
KKR
   76    81     1     0     0
SMALL
bcc


@<TRIPOS>ATOM
      1 C1          0.5810    1.4200    0.3320 c3        1 KKR     -0.080400
      2 C2          1.9230    0.8540    0.0640 c2        1 KKR     -0.005400
      3 C3          2.8230    0.7360    1.2380 c3        1 KKR     -0.080400
      4 C4          2.3250    0.4640   -1.1620 ce        1 KKR     -0.295200
      5 C5          1.5080    0.5450   -2.3750 c         1 KKR      0.569300
      6 O6          0.3440    0.9730   -2.3970 o         1 KKR     -0.560100
      7 C7          2.1990    0.0550   -3.6180 c3        1 KKR     -0.171400
      8 C8          1.3340    0.2110   -4.8490 c3        1 KKR     -0.140400
      9 C9          2.0240   -0.3700   -6.0670 c         1 KKR      0.654100
     10 O10         3.1050   -0.9870   -5.9610 o         1 KKR     -0.615100
     11 N11         1.4730   -0.1500   -7.3270 n         1 KKR     -0.462800
     12 C12         2.0530   -0.7810   -8.4930 c3        1 KKR      0.083500
     13 C13         1.1440   -1.8520   -9.1340 c3        1 KKR      0.140800
     14 N14        -0.2190   -1.3810   -9.3480 n3        1 KKR     -0.725600
     15 C15        -0.7990   -0.7770   -8.1580 c3        1 KKR      0.140800
     16 C16         0.1160    0.2970   -7.5270 c3        1 KKR      0.083500
     17 C17        -1.0610   -2.4240   -9.9220 c3        1 KKR      0.237000
     18 C18        -2.3810   -1.9420  -10.4060 cc        1 KKR     -0.095600
     19 C19        -2.6210   -0.7820  -11.0910 cd        1 KKR     -0.225800
     20 C20        -4.0220   -0.6580  -11.4480 ca        1 KKR      0.456100
     21 N21        -4.5910    0.3800  -12.1150 nb        1 KKR     -0.667000
     22 C22        -5.9300    0.2760  -12.3190 cp        1 KKR      0.721500
     23 N23        -6.7390   -0.7740  -11.9300 nb        1 KKR     -0.738000
     24 C24        -6.1710   -1.8080  -11.2640 ca        1 KKR      0.698200
     25 C25        -4.7630   -1.7960  -10.9880 ca        1 KKR     -0.344700
     26 S26        -3.7760   -2.8750  -10.1750 ss        1 KKR      0.080500
     27 N27        -6.9550   -2.8790  -10.7480 nh        1 KKR     -0.732300
     28 C28        -8.4020   -2.6880  -10.7540 c3        1 KKR      0.145800
     29 C29        -9.1250   -3.8400  -10.0420 c3        1 KKR      0.122900
     30 O30        -8.7490   -5.1060  -10.5720 os        1 KKR     -0.410600
     31 C31        -7.3440   -5.3150  -10.5110 c3        1 KKR      0.122900
     32 C32        -6.5730   -4.2020  -11.2330 c3        1 KKR      0.145800
     33 C33        -6.6050    1.3900  -13.0390 cp        1 KKR     -0.069500
     34 C34        -7.8620    1.8380  -12.6340 ca        1 KKR     -0.118000
     35 C35        -8.5170    2.8830  -13.3080 ca        1 KKR     -0.111000
     36 C36        -7.9560    3.5150  -14.4080 ca        1 KKR     -0.126000
     37 C37        -6.6920    3.0790  -14.8210 ca        1 KKR     -0.067200
     38 N38        -5.8720    3.4420  -15.9100 na        1 KKR     -0.018100
     39 N39        -4.7080    2.7670  -15.8810 nc        1 KKR     -0.520100
     40 C40        -4.7480    1.8770  -14.8750 cd        1 KKR      0.369800
     41 C41        -6.0000    2.0110  -14.1340 ca        1 KKR     -0.178900
     42 H11C        0.4180    2.3360   -0.2920 hc        1 KKR      0.055867
     43 H12C        0.4550    1.6860    1.4090 hc        1 KKR      0.055867
     44 H13C       -0.2110    0.6830    0.0410 hc        1 KKR      0.055867
     45 H31C        3.8140    0.3000    0.9630 hc        1 KKR      0.055867
     46 H32C        2.9920    1.7460    1.6890 hc        1 KKR      0.055867
     47 H33C        2.3490    0.0830    2.0140 hc        1 KKR      0.055867
     48 H4C         3.3370    0.0490   -1.3070 ha        1 KKR      0.136000
     49 H71C        3.1600    0.6200   -3.7520 hc        1 KKR      0.083700
     50 H72C        2.4760   -1.0260   -3.4790 hc        1 KKR      0.083700
     51 H81C        0.3560   -0.3170   -4.6880 hc        1 KKR      0.077200
     52 H82C        1.1100    1.2990   -5.0120 hc        1 KKR      0.077200
     53 H121        3.0310   -1.2700   -8.2190 h1        1 KKR      0.067950
     54 H122        2.2550    0.0290   -9.2510 h1        1 KKR      0.067950
     55 H161       -0.3560    0.6210   -6.5590 h1        1 KKR      0.067950
     56 H162        0.1510    1.1910   -8.2150 h1        1 KKR      0.067950
     57 H131        1.1700   -2.7820   -8.4940 h1        1 KKR      0.043200
     58 H132        1.5810   -2.1110  -10.1390 h1        1 KKR      0.043200
     59 H151       -1.7590   -0.2750   -8.4660 h1        1 KKR      0.043200
     60 H152       -1.0460   -1.5510   -7.3730 h1        1 KKR      0.043200
     61 H171       -1.2320   -3.2710   -9.1890 h1        1 KKR      0.047200
     62 H172       -0.5040   -2.8530  -10.8090 h1        1 KKR      0.047200
     63 H19        -1.8770   -0.0230  -11.3500 ha        1 KKR      0.185000
     64 H281       -8.8040   -2.6090  -11.8050 h1        1 KKR      0.058700
     65 H282       -8.6350   -1.7300  -10.2130 h1        1 KKR      0.058700
     66 H321       -5.4710   -4.3550  -11.0510 h1        1 KKR      0.058700
     67 H322       -6.7630   -4.2950  -12.3420 h1        1 KKR      0.058700
     68 H291      -10.2280   -3.7720  -10.2350 h1        1 KKR      0.058200
     69 H292       -8.9230   -3.8180   -8.9390 h1        1 KKR      0.058200
     70 H311       -7.1810   -6.2920  -11.0370 h1        1 KKR      0.058200
     71 H312       -7.0200   -5.3920   -9.4400 h1        1 KKR      0.058200
     72 H34        -8.3610    1.3710  -11.7710 ha        1 KKR      0.147000
     73 H35        -9.5070    3.2040  -12.9480 ha        1 KKR      0.136000
     74 H36        -8.4820    4.3230  -14.9330 ha        1 KKR      0.140000
     75 H38        -5.9020    4.3250  -16.3650 hn        1 KKR      0.312700
     76 H40        -3.9330    1.1790  -14.6720 h4        1 KKR      0.066800
@<TRIPOS>BOND
     1    1    2 1   
     2    1   42 1   
     3    1   43 1   
     4    1   44 1   
     5    2    3 1   
     6    2    4 2   
     7    3   45 1   
     8    3   46 1   
     9    3   47 1   
    10    4    5 1   
    11    4   48 1   
    12    5    6 2   
    13    5    7 1   
    14    7    8 1   
    15    7   49 1   
    16    7   50 1   
    17    8    9 1   
    18    8   51 1   
    19    8   52 1   
    20    9   10 2   
    21    9   11 1   
    22   11   12 1   
    23   11   16 1   
    24   12   13 1   
    25   12   53 1   
    26   12   54 1   
    27   13   14 1   
    28   13   57 1   
    29   13   58 1   
    30   14   15 1   
    31   14   17 1   
    32   15   16 1   
    33   15   59 1   
    34   15   60 1   
    35   16   55 1   
    36   16   56 1   
    37   17   18 1   
    38   17   61 1   
    39   17   62 1   
    40   18   19 2   
    41   18   26 1   
    42   19   20 1   
    43   19   63 1   
    44   20   21 ar  
    45   20   25 ar  
    46   21   22 ar  
    47   22   23 ar  
    48   22   33 1   
    49   23   24 ar  
    50   24   25 ar  
    51   24   27 1   
    52   25   26 1   
    53   27   28 1   
    54   27   32 1   
    55   28   29 1   
    56   28   64 1   
    57   28   65 1   
    58   29   30 1   
    59   29   68 1   
    60   29   69 1   
    61   30   31 1   
    62   31   32 1   
    63   31   70 1   
    64   31   71 1   
    65   32   66 1   
    66   32   67 1   
    67   33   34 ar  
    68   33   41 ar  
    69   34   35 ar  
    70   34   72 1   
    71   35   36 ar  
    72   35   73 1   
    73   36   37 ar  
    74   36   74 1   
    75   37   38 1   
    76   37   41 ar  
    77   38   39 1   
    78   38   75 1   
    79   39   40 2   
    80   40   41 1   
    81   40   76 1   
@<TRIPOS>SUBSTRUCTURE
     1 KKR         1 TEMP              0 ****  ****    0 ROOT
