@<TRIPOS>MOLECULE
KKR
   76    81     1     0     0
SMALL
bcc


@<TRIPOS>ATOM
      1 C1          0.5570    1.3830    0.3440 c3        1 KKR     -0.080400
      2 C2          1.9030    0.8280    0.0740 c2        1 KKR     -0.005400
      3 C3          2.8010    0.7060    1.2490 c3        1 KKR     -0.080400
      4 C4          2.3110    0.4510   -1.1540 ce        1 KKR     -0.295200
      5 C5          1.4950    0.5360   -2.3690 c         1 KKR      0.569300
      6 O6          0.3290    0.9580   -2.3900 o         1 KKR     -0.560100
      7 C7          2.1920    0.0600   -3.6140 c3        1 KKR     -0.171400
      8 C8          1.3290    0.2210   -4.8460 c3        1 KKR     -0.140400
      9 C9          2.0240   -0.3490   -6.0660 c         1 KKR      0.654100
     10 O10         3.1080   -0.9600   -5.9620 o         1 KKR     -0.615100
     11 N11         1.4730   -0.1240   -7.3250 n         1 KKR     -0.462800
     12 C12         2.0580   -0.7450   -8.4940 c3        1 KKR      0.083500
     13 C13         1.1560   -1.8180   -9.1410 c3        1 KKR      0.140800
     14 N14        -0.2100   -1.3560   -9.3540 n3        1 KKR     -0.724600
     15 C15        -0.7940   -0.7610   -8.1610 c3        1 KKR      0.140800
     16 C16         0.1130    0.3170   -7.5240 c3        1 KKR      0.083500
     17 C17        -1.0450   -2.4020   -9.9320 c3        1 KKR      0.237000
     18 C18        -2.3680   -1.9260  -10.4140 cc        1 KKR     -0.095600
     19 C19        -2.6150   -0.7660  -11.0980 cd        1 KKR     -0.225800
     20 C20        -4.0170   -0.6500  -11.4530 ca        1 KKR      0.456100
     21 N21        -4.5930    0.3860  -12.1180 nb        1 KKR     -0.667000
     22 C22        -5.9310    0.2750  -12.3210 cp        1 KKR      0.721500
     23 N23        -6.7340   -0.7800  -11.9320 nb        1 KKR     -0.738000
     24 C24        -6.1590   -1.8120  -11.2680 ca        1 KKR      0.698200
     25 C25        -4.7520   -1.7930  -10.9940 ca        1 KKR     -0.344700
     26 S26        -3.7580   -2.8680  -10.1820 ss        1 KKR      0.080500
     27 N27        -6.9370   -2.8880  -10.7530 nh        1 KKR     -0.732300
     28 C28        -8.3860   -2.7050  -10.7570 c3        1 KKR      0.145800
     29 C29        -9.1010   -3.8610  -10.0450 c3        1 KKR      0.122900
     30 O30        -8.7190   -5.1250  -10.5770 os        1 KKR     -0.410600
     31 C31        -7.3130   -5.3260  -10.5180 c3        1 KKR      0.122900
     32 C32        -6.5490   -4.2080  -11.2400 c3        1 KKR      0.145800
     33 C33        -6.6130    1.3860  -13.0390 cp        1 KKR     -0.069500
     34 C34        -7.8710    1.8280  -12.6300 ca        1 KKR     -0.118000
     35 C35        -8.5330    2.8690  -13.3030 ca        1 KKR     -0.111000
     36 C36        -7.9770    3.5050  -14.4030 ca        1 KKR     -0.126000
     37 C37        -6.7110    3.0760  -14.8190 ca        1 KKR     -0.067200
     38 N38        -5.8950    3.4430  -15.9090 na        1 KKR     -0.018100
     39 N39        -4.7280    2.7750  -15.8830 nc        1 KKR     -0.520100
     40 C40        -4.7610    1.8830  -14.8770 cd        1 KKR      0.369800
     41 C41        -6.0120    2.0110  -14.1340 ca        1 KKR     -0.178900
     42 H11C       -0.2300    0.6440    0.0440 hc        1 KKR      0.055867
     43 H12C        0.4260    1.6390    1.4230 hc        1 KKR      0.055867
     44 H13C        0.3900    2.3040   -0.2730 hc        1 KKR      0.055867
     45 H31C        2.9630    1.7130    1.7090 hc        1 KKR      0.055867
     46 H32C        2.3300    0.0430    2.0180 hc        1 KKR      0.055867
     47 H33C        3.7960    0.2780    0.9730 hc        1 KKR      0.055867
     48 H4C         3.3250    0.0430   -1.3010 ha        1 KKR      0.136000
     49 H71C        2.4750   -1.0190   -3.4830 hc        1 KKR      0.083700
     50 H72C        3.1490    0.6330   -3.7420 hc        1 KKR      0.083700
     51 H81C        1.0990    1.3080   -5.0010 hc        1 KKR      0.077200
     52 H82C        0.3530   -0.3140   -4.6900 hc        1 KKR      0.077200
     53 H121        3.0380   -1.2280   -8.2230 h1        1 KKR      0.067950
     54 H122        2.2540    0.0700   -9.2480 h1        1 KKR      0.067950
     55 H161        0.1440    1.2140   -8.2090 h1        1 KKR      0.067950
     56 H162       -0.3610    0.6330   -6.5560 h1        1 KKR      0.067950
     57 H131        1.1880   -2.7510   -8.5060 h1        1 KKR      0.043200
     58 H132        1.5950   -2.0700  -10.1470 h1        1 KKR      0.043200
     59 H151       -1.0370   -1.5390   -7.3800 h1        1 KKR      0.043200
     60 H152       -1.7570   -0.2630   -8.4670 h1        1 KKR      0.043200
     61 H171       -1.2100   -3.2530   -9.2030 h1        1 KKR      0.047200
     62 H172       -0.4850   -2.8230  -10.8210 h1        1 KKR      0.047200
     63 H19        -1.8750   -0.0030  -11.3550 ha        1 KKR      0.185000
     64 H281       -8.6230   -1.7480  -10.2130 h1        1 KKR      0.058700
     65 H282       -8.7890   -2.6260  -11.8070 h1        1 KKR      0.058700
     66 H321       -6.7390   -4.3010  -12.3480 h1        1 KKR      0.058700
     67 H322       -5.4460   -4.3550  -11.0590 h1        1 KKR      0.058700
     68 H291      -10.2050   -3.8000  -10.2370 h1        1 KKR      0.058200
     69 H292       -8.8980   -3.8400   -8.9430 h1        1 KKR      0.058200
     70 H311       -7.1460   -6.3020  -11.0450 h1        1 KKR      0.058200
     71 H312       -6.9870   -5.4020   -9.4470 h1        1 KKR      0.058200
     72 H34        -8.3670    1.3580  -11.7670 ha        1 KKR      0.147000
     73 H35        -9.5240    3.1850  -12.9410 ha        1 KKR      0.136000
     74 H36        -8.5070    4.3110  -14.9270 ha        1 KKR      0.140000
     75 H38        -5.9310    4.3270  -16.3630 hn        1 KKR      0.312700
     76 H40        -3.9430    1.1890  -14.6760 h4        1 KKR      0.066800
@<TRIPOS>BOND
     1    1    2 1   
     2    1   42 1   
     3    1   43 1   
     4    1   44 1   
     5    2    3 1   
     6    2    4 2   
     7    3   45 1   
     8    3   46 1   
     9    3   47 1   
    10    4    5 1   
    11    4   48 1   
    12    5    6 2   
    13    5    7 1   
    14    7    8 1   
    15    7   49 1   
    16    7   50 1   
    17    8    9 1   
    18    8   51 1   
    19    8   52 1   
    20    9   10 2   
    21    9   11 1   
    22   11   12 1   
    23   11   16 1   
    24   12   13 1   
    25   12   53 1   
    26   12   54 1   
    27   13   14 1   
    28   13   57 1   
    29   13   58 1   
    30   14   15 1   
    31   14   17 1   
    32   15   16 1   
    33   15   59 1   
    34   15   60 1   
    35   16   55 1   
    36   16   56 1   
    37   17   18 1   
    38   17   61 1   
    39   17   62 1   
    40   18   19 2   
    41   18   26 1   
    42   19   20 1   
    43   19   63 1   
    44   20   21 ar  
    45   20   25 ar  
    46   21   22 ar  
    47   22   23 ar  
    48   22   33 1   
    49   23   24 ar  
    50   24   25 ar  
    51   24   27 1   
    52   25   26 1   
    53   27   28 1   
    54   27   32 1   
    55   28   29 1   
    56   28   64 1   
    57   28   65 1   
    58   29   30 1   
    59   29   68 1   
    60   29   69 1   
    61   30   31 1   
    62   31   32 1   
    63   31   70 1   
    64   31   71 1   
    65   32   66 1   
    66   32   67 1   
    67   33   34 ar  
    68   33   41 ar  
    69   34   35 ar  
    70   34   72 1   
    71   35   36 ar  
    72   35   73 1   
    73   36   37 ar  
    74   36   74 1   
    75   37   38 1   
    76   37   41 ar  
    77   38   39 1   
    78   38   75 1   
    79   39   40 2   
    80   40   41 1   
    81   40   76 1   
@<TRIPOS>SUBSTRUCTURE
     1 KKR         1 TEMP              0 ****  ****    0 ROOT
