@<TRIPOS>MOLECULE
KKT
   49    50     1     0     0
SMALL
bcc


@<TRIPOS>ATOM
      1 CAW         0.3880   -0.2950    0.4480 ca        1 KKT     -0.134000
      2 CAX         1.6670    0.2200    0.6670 ca        1 KKT     -0.110500
      3 CBA         1.8350    1.3720    1.4370 ca        1 KKT     -0.074000
      4 CAZ         0.7220    2.0080    1.9950 ca        1 KKT     -0.110500
      5 CAY        -0.5540    1.4930    1.7870 ca        1 KKT     -0.134000
      6 CAV        -0.7270    0.3350    1.0110 ca        1 KKT     -0.223300
      7 CAU        -2.1080   -0.1150    0.6660 c3        1 KKT      0.109300
      8 NAN        -2.4850   -1.4260    1.2200 n         1 KKT     -0.346400
      9 CAO        -2.2970   -1.7580    2.5530 cc        1 KKT      0.365800
     10 NAP        -1.6470   -0.7700    3.4420 nz        1 KKT     -0.801600
     11 CAM        -3.1070   -2.3630    0.3380 c         1 KKT      0.803500
     12 OAL        -3.2620   -2.1300   -0.8630 o         1 KKT     -0.473500
     13 NAD        -3.5650   -3.5990    0.8880 ns        1 KKT     -0.425100
     14 CAE        -3.3780   -3.9250    2.1920 cd        1 KKT      0.498700
     15 OAA        -3.7940   -5.0870    2.5930 os        1 KKT     -0.471800
     16 CAF        -2.6860   -2.9890    3.0980 cc        1 KKT     -0.119600
     17 NAG        -2.4490   -3.2760    4.4570 nu        1 KKT     -0.737000
     18 CAB        -1.3440   -4.1720    4.7280 c3        1 KKT      0.141100
     19 SAH        -5.1960   -5.7990    3.5740 s6        1 KKT      1.660500
     20 OAC        -4.8150   -5.1490    4.7090 o         1 KKT     -0.585800
     21 OAQ        -6.1490   -5.2980    2.7500 o         1 KKT     -0.585800
     22 CAI        -4.8220   -7.3760    3.4700 c3        1 KKT     -0.438600
     23 CAJ        -6.0490   -8.2700    3.2760 c3        1 KKT     -0.057400
     24 CAK        -5.6420   -9.7140    3.0650 c3        1 KKT     -0.073400
     25 CAT        -6.8570  -10.5920    2.9010 c3        1 KKT     -0.103100
     26 HAW         0.2600   -1.1780   -0.1990 ha        1 KKT      0.147000
     27 HAX         2.5420   -0.2700    0.2060 ha        1 KKT      0.175000
     28 HBA         2.8450    1.7940    1.5870 ha        1 KKT      0.179000
     29 HAZ         0.8550    2.9360    2.5780 ha        1 KKT      0.175000
     30 HAY        -1.4290    2.0460    2.1660 ha        1 KKT      0.147000
     31 HAU1       -2.8790    0.6320    1.0220 h1        1 KKT      0.122200
     32 HAU2       -2.1950   -0.1850   -0.4650 h1        1 KKT      0.122200
     33 HAP1       -2.1170    0.1460    3.3630 hn        1 KKT      0.500467
     34 HAP2       -1.6930   -1.1020    4.4230 hn        1 KKT      0.500467
     35 HAD        -4.0350   -4.2250    0.2470 hn        1 KKT      0.409500
     36 HAB1       -0.3940   -3.7370    4.3220 h1        1 KKT      0.067033
     37 HAB2       -1.2580   -4.2690    5.8450 h1        1 KKT      0.067033
     38 HAB3       -1.4880   -5.1940    4.2850 h1        1 KKT      0.067033
     39 HAI1       -4.2690   -7.7760    4.3760 h1        1 KKT      0.186700
     40 HAI2       -4.1130   -7.6230    2.6180 h1        1 KKT      0.186700
     41 HAJ1       -6.7070   -8.2050    4.1830 hc        1 KKT      0.074200
     42 HAJ2       -6.6350   -7.9140    2.3860 hc        1 KKT      0.074200
     43 HAK1       -4.9920   -9.7930    2.1530 hc        1 KKT      0.054200
     44 HAK2       -5.0350  -10.0670    3.9410 hc        1 KKT      0.054200
     45 HAT1       -6.5380  -11.6520    2.7410 hc        1 KKT      0.056367
     46 HAT2       -7.5020  -10.5550    3.8120 hc        1 KKT      0.056367
     47 HAT3       -7.4650  -10.2720    2.0220 hc        1 KKT      0.056367
     48 HAP3       -0.6570   -0.6440    3.1550 hn        1 KKT      0.500467
     49 HAG1       -3.2950   -3.5700    4.9260 hn        1 KKT      0.447800
@<TRIPOS>BOND
     1    1    2 ar  
     2    1    6 ar  
     3    1   26 1   
     4    2    3 ar  
     5    2   27 1   
     6    3    4 ar  
     7    3   28 1   
     8    4    5 ar  
     9    4   29 1   
    10    5    6 ar  
    11    5   30 1   
    12    6    7 1   
    13    7    8 1   
    14    7   31 1   
    15    7   32 1   
    16    8    9 2   
    17    8   11 1   
    18    9   10 1   
    19    9   16 1   
    20   10   33 1   
    21   10   34 1   
    22   10   48 1   
    23   11   12 2   
    24   11   13 1   
    25   13   14 1   
    26   13   35 1   
    27   14   15 1   
    28   14   16 2   
    29   15   19 1   
    30   16   17 1   
    31   17   18 1   
    32   17   49 1   
    33   18   36 1   
    34   18   37 1   
    35   18   38 1   
    36   19   20 2   
    37   19   21 2   
    38   19   22 1   
    39   22   23 1   
    40   22   39 1   
    41   22   40 1   
    42   23   24 1   
    43   23   41 1   
    44   23   42 1   
    45   24   25 1   
    46   24   43 1   
    47   24   44 1   
    48   25   45 1   
    49   25   46 1   
    50   25   47 1   
@<TRIPOS>SUBSTRUCTURE
     1 KKT         1 TEMP              0 ****  ****    0 ROOT
