@<TRIPOS>MOLECULE
KKT
   47    48     1     0     0
SMALL
bcc


@<TRIPOS>ATOM
      1 CAW        -4.6080   -0.3660   -0.3970 ca        1 KKT     -0.115500
      2 CAX        -5.7580    0.3670   -0.6860 ca        1 KKT     -0.126000
      3 CBA        -6.1210    1.4460    0.1200 ca        1 KKT     -0.116000
      4 CAZ        -5.3340    1.7920    1.2180 ca        1 KKT     -0.126000
      5 CAY        -4.1790    1.0660    1.5070 ca        1 KKT     -0.115500
      6 CAV        -3.8110   -0.0130    0.6980 ca        1 KKT     -0.131300
      7 CAU        -2.5990   -0.8300    1.0340 c3        1 KKT      0.130300
      8 NAN        -1.5770   -0.8800    0.0010 n         1 KKT     -0.395000
      9 CAO        -0.7600    0.2320   -0.2890 cc        1 KKT      0.385600
     10 NAP        -1.0270    1.4450    0.3030 nh        1 KKT     -0.837600
     11 CAM        -1.4840   -2.0670   -0.7790 c         1 KKT      0.818500
     12 OAL        -2.3420   -2.9690   -0.6620 o         1 KKT     -0.641500
     13 NAD        -0.4060   -2.2160   -1.6470 n         1 KKT     -0.579500
     14 CAE         0.5550   -1.2120   -1.8530 c         1 KKT      0.732700
     15 OAA         1.5240   -1.4810   -2.5900 o         1 KKT     -0.636500
     16 CAF         0.3320    0.0750   -1.1820 cd        1 KKT     -0.224200
     17 NAG         1.1460    1.1560   -1.5620 nh        1 KKT     -0.638300
     18 CAB         0.9510    1.6790   -2.8860 c3        1 KKT      0.200100
     19 SAH         2.3940    1.6040   -0.6050 s6        1 KKT      1.435900
     20 OAC         3.1570    2.6110   -1.2360 o         1 KKT     -0.665300
     21 OAQ         1.8620    1.9580    0.6650 o         1 KKT     -0.665300
     22 CAI         3.3290    0.1830   -0.4200 c3        1 KKT     -0.323600
     23 CAJ         4.7550    0.4970   -0.0240 c3        1 KKT     -0.050400
     24 CAK         5.5880   -0.7610    0.0860 c3        1 KKT     -0.073400
     25 CAT         7.0050   -0.4460    0.4900 c3        1 KKT     -0.094100
     26 HAW        -4.3250   -1.2310   -1.0180 ha        1 KKT      0.140000
     27 HAX        -6.3820    0.0890   -1.5480 ha        1 KKT      0.138500
     28 HBA        -7.0300    2.0230   -0.1080 ha        1 KKT      0.137000
     29 HAZ        -5.6230    2.6380    1.8590 ha        1 KKT      0.138500
     30 HAY        -3.5700    1.3360    2.3840 ha        1 KKT      0.140000
     31 HAU1       -2.1190   -0.4460    1.9810 h1        1 KKT      0.085200
     32 HAU2       -2.9380   -1.8930    1.2320 h1        1 KKT      0.085200
     33 HAP1       -1.7630    1.5280    0.9660 hn        1 KKT      0.455300
     34 HAP2       -0.2820    2.1060    0.3770 hn        1 KKT      0.455300
     35 HAD        -0.3250   -3.0840   -2.1340 hn        1 KKT      0.357500
     36 HAB1        1.6960    2.4990   -3.0780 h1        1 KKT      0.053700
     37 HAB2        1.0890    0.8690   -3.6540 h1        1 KKT      0.053700
     38 HAB3       -0.0870    2.0960   -2.9860 h1        1 KKT      0.053700
     39 HAI1        2.8830   -0.4870    0.3630 h1        1 KKT      0.125700
     40 HAI2        3.3490   -0.4440   -1.3560 h1        1 KKT      0.125700
     41 HAJ1        5.2120    1.1860   -0.7860 hc        1 KKT      0.058200
     42 HAJ2        4.7600    1.0350    0.9630 hc        1 KKT      0.058200
     43 HAK1        5.1240   -1.4530    0.8380 hc        1 KKT      0.041700
     44 HAK2        5.5860   -1.2970   -0.9000 hc        1 KKT      0.041700
     45 HAT1        7.6040   -1.3860    0.5620 hc        1 KKT      0.035033
     46 HAT2        7.4890    0.2250   -0.2600 hc        1 KKT      0.035033
     47 HAT3        7.0280    0.0650    1.4840 hc        1 KKT      0.035033
@<TRIPOS>BOND
     1    1    2 ar  
     2    1    6 ar  
     3    1   26 1   
     4    2    3 ar  
     5    2   27 1   
     6    3    4 ar  
     7    3   28 1   
     8    4    5 ar  
     9    4   29 1   
    10    5    6 ar  
    11    5   30 1   
    12    6    7 1   
    13    7    8 1   
    14    7   31 1   
    15    7   32 1   
    16    8    9 1   
    17    8   11 1   
    18    9   10 1   
    19    9   16 2   
    20   10   33 1   
    21   10   34 1   
    22   11   12 2   
    23   11   13 1   
    24   13   14 1   
    25   13   35 1   
    26   14   15 2   
    27   14   16 1   
    28   16   17 1   
    29   17   18 1   
    30   17   19 1   
    31   18   36 1   
    32   18   37 1   
    33   18   38 1   
    34   19   20 2   
    35   19   21 2   
    36   19   22 1   
    37   22   23 1   
    38   22   39 1   
    39   22   40 1   
    40   23   24 1   
    41   23   41 1   
    42   23   42 1   
    43   24   25 1   
    44   24   43 1   
    45   24   44 1   
    46   25   45 1   
    47   25   46 1   
    48   25   47 1   
@<TRIPOS>SUBSTRUCTURE
     1 KKT         1 TEMP              0 ****  ****    0 ROOT
