@<TRIPOS>MOLECULE
KKT
   49    50     1     0     0
SMALL
bcc


@<TRIPOS>ATOM
      1 CAW         0.4220   -0.3220    0.4570 ca        1 KKT     -0.134000
      2 CAX         1.6870    0.2130    0.7040 ca        1 KKT     -0.110500
      3 CBA         1.8190    1.3880    1.4450 ca        1 KKT     -0.074000
      4 CAZ         0.6820    2.0290    1.9480 ca        1 KKT     -0.110500
      5 CAY        -0.5830    1.4940    1.7120 ca        1 KKT     -0.134000
      6 CAV        -0.7180    0.3130    0.9650 ca        1 KKT     -0.223300
      7 CAU        -2.0820   -0.1620    0.5870 c3        1 KKT      0.109300
      8 NAN        -2.4640   -1.4600    1.1660 n         1 KKT     -0.346400
      9 CAO        -2.3180   -1.7520    2.5140 cc        1 KKT      0.365800
     10 NAP        -1.7080   -0.7310    3.3950 n4        1 KKT     -0.801600
     11 CAM        -3.0480   -2.4290    0.2920 c         1 KKT      0.803500
     12 OAL        -3.1640   -2.2320   -0.9190 o         1 KKT     -0.473500
     13 NAD        -3.5110   -3.6530    0.8620 n         1 KKT     -0.425100
     14 CAE        -3.3650   -3.9390    2.1800 cd        1 KKT      0.498700
     15 OAA        -3.7820   -5.0950    2.6010 os        1 KKT     -0.471800
     16 CAF        -2.7130   -2.9700    3.0810 cc        1 KKT     -0.119600
     17 NAG        -2.5190   -3.2160    4.4560 nh        1 KKT     -0.737000
     18 CAB        -1.4150   -4.0910    4.7890 c3        1 KKT      0.141100
     19 SAH        -5.2100   -5.7930    3.5550 s6        1 KKT      1.660500
     20 OAC        -4.8750   -5.1060    4.6830 o         1 KKT     -0.585800
     21 OAQ        -6.1390   -5.3270    2.6840 o         1 KKT     -0.585800
     22 CAI        -4.8170   -7.3680    3.5090 c3        1 KKT     -0.438600
     23 CAJ        -6.0280   -8.2810    3.3000 c3        1 KKT     -0.057400
     24 CAK        -5.5990   -9.7260    3.1460 c3        1 KKT     -0.073400
     25 CAT        -6.8000  -10.6220    2.9670 c3        1 KKT     -0.103100
     26 HAW         0.3240   -1.2240   -0.1670 ha        1 KKT      0.147000
     27 HAX         2.5820   -0.2800    0.2870 ha        1 KKT      0.175000
     28 HBA         2.8180    1.8260    1.6170 ha        1 KKT      0.179000
     29 HAZ         0.7860    2.9740    2.5080 ha        1 KKT      0.175000
     30 HAY        -1.4750    2.0490    2.0460 ha        1 KKT      0.147000
     31 HAU1       -2.8710    0.5870    0.8950 h1        1 KKT      0.122200
     32 HAU2       -2.1310   -0.2650   -0.5430 h1        1 KKT      0.122200
     33 HAP1       -2.1840    0.1770    3.2730 hn        1 KKT      0.500467
     34 HAP2       -1.7840   -1.0360    4.3830 hn        1 KKT      0.500467
     35 HAD        -3.9540   -4.3020    0.2250 hn        1 KKT      0.409500
     36 HAB1       -1.5330   -5.1270    4.3710 h1        1 KKT      0.067033
     37 HAB2       -0.4560   -3.6570    4.4030 h1        1 KKT      0.067033
     38 HAB3       -1.3650   -4.1550    5.9110 h1        1 KKT      0.067033
     39 HAI1       -4.0770   -7.6320    2.6890 h1        1 KKT      0.186700
     40 HAI2       -4.2920   -7.7360    4.4450 h1        1 KKT      0.186700
     41 HAJ1       -6.5870   -7.9570    2.3810 hc        1 KKT      0.074200
     42 HAJ2       -6.7180   -8.1960    4.1820 hc        1 KKT      0.074200
     43 HAK1       -4.9180   -9.8250    2.2590 hc        1 KKT      0.054200
     44 HAK2       -5.0200  -10.0460    4.0520 hc        1 KKT      0.054200
     45 HAT1       -6.4650  -11.6820    2.8490 hc        1 KKT      0.056367
     46 HAT2       -7.4760  -10.5640    3.8540 hc        1 KKT      0.056367
     47 HAT3       -7.3810  -10.3330    2.0580 hc        1 KKT      0.056367
     48 HAP3       -0.7100   -0.6040    3.1380 hn        1 KKT      0.500467
     49 HAG1       -3.3780   -3.5050    4.9040 hn        1 KKT      0.447800
@<TRIPOS>BOND
     1    1    2 ar  
     2    1    6 ar  
     3    1   26 1   
     4    2    3 ar  
     5    2   27 1   
     6    3    4 ar  
     7    3   28 1   
     8    4    5 ar  
     9    4   29 1   
    10    5    6 ar  
    11    5   30 1   
    12    6    7 1   
    13    7    8 1   
    14    7   31 1   
    15    7   32 1   
    16    8    9 2   
    17    8   11 1   
    18    9   10 1   
    19    9   16 1   
    20   10   33 1   
    21   10   34 1   
    22   10   48 1   
    23   11   12 2   
    24   11   13 1   
    25   13   14 1   
    26   13   35 1   
    27   14   15 1   
    28   14   16 2   
    29   15   19 1   
    30   16   17 1   
    31   17   18 1   
    32   17   49 1   
    33   18   36 1   
    34   18   37 1   
    35   18   38 1   
    36   19   20 2   
    37   19   21 2   
    38   19   22 1   
    39   22   23 1   
    40   22   39 1   
    41   22   40 1   
    42   23   24 1   
    43   23   41 1   
    44   23   42 1   
    45   24   25 1   
    46   24   43 1   
    47   24   44 1   
    48   25   45 1   
    49   25   46 1   
    50   25   47 1   
@<TRIPOS>SUBSTRUCTURE
     1 KKT         1 TEMP              0 ****  ****    0 ROOT
