@<TRIPOS>MOLECULE
KKT
   49    50     1     0     0
SMALL
bcc


@<TRIPOS>ATOM
      1 CAW         0.3890   -0.2970    0.4470 ca        1 KKT     -0.134000
      2 CAX         1.6670    0.2180    0.6660 ca        1 KKT     -0.110500
      3 CBA         1.8360    1.3700    1.4350 ca        1 KKT     -0.074000
      4 CAZ         0.7230    2.0070    1.9930 ca        1 KKT     -0.110500
      5 CAY        -0.5540    1.4930    1.7850 ca        1 KKT     -0.134000
      6 CAV        -0.7260    0.3340    1.0100 ca        1 KKT     -0.223300
      7 CAU        -2.1080   -0.1170    0.6640 c3        1 KKT      0.109300
      8 NAN        -2.4840   -1.4270    1.2190 n         1 KKT     -0.346400
      9 CAO        -2.2980   -1.7580    2.5530 cc        1 KKT      0.365800
     10 NAP        -1.6480   -0.7690    3.4420 n4        1 KKT     -0.801600
     11 CAM        -3.1060   -2.3640    0.3380 c         1 KKT      0.803500
     12 OAL        -3.2600   -2.1330   -0.8630 o         1 KKT     -0.473500
     13 NAD        -3.5640   -3.6000    0.8880 n         1 KKT     -0.425100
     14 CAE        -3.3780   -3.9250    2.1930 cd        1 KKT      0.498700
     15 OAA        -3.7940   -5.0870    2.5950 os        1 KKT     -0.471800
     16 CAF        -2.6870   -2.9880    3.0980 cc        1 KKT     -0.119600
     17 NAG        -2.4510   -3.2740    4.4580 nh        1 KKT     -0.737000
     18 CAB        -1.3460   -4.1690    4.7310 c3        1 KKT      0.141100
     19 SAH        -5.1970   -5.7980    3.5750 s6        1 KKT      1.660500
     20 OAC        -4.8170   -5.1480    4.7100 o         1 KKT     -0.585800
     21 OAQ        -6.1490   -5.2980    2.7500 o         1 KKT     -0.585800
     22 CAI        -4.8220   -7.3750    3.4720 c3        1 KKT     -0.438600
     23 CAJ        -6.0480   -8.2700    3.2760 c3        1 KKT     -0.057400
     24 CAK        -5.6400   -9.7140    3.0660 c3        1 KKT     -0.073400
     25 CAT        -6.8550  -10.5920    2.9000 c3        1 KKT     -0.103100
     26 HAW         0.2600   -1.1810   -0.1990 ha        1 KKT      0.147000
     27 HAX         2.5430   -0.2720    0.2060 ha        1 KKT      0.175000
     28 HBA         2.8450    1.7930    1.5860 ha        1 KKT      0.179000
     29 HAZ         0.8550    2.9350    2.5750 ha        1 KKT      0.175000
     30 HAY        -1.4290    2.0460    2.1630 ha        1 KKT      0.147000
     31 HAU1       -2.8780    0.6310    1.0200 h1        1 KKT      0.122200
     32 HAU2       -2.1940   -0.1870   -0.4660 h1        1 KKT      0.122200
     33 HAP1       -2.1190    0.1470    3.3610 hn        1 KKT      0.500467
     34 HAP2       -1.6950   -1.1000    4.4220 hn        1 KKT      0.500467
     35 HAD        -4.0340   -4.2260    0.2480 hn        1 KKT      0.409500
     36 HAB1       -0.3950   -3.7340    4.3250 h1        1 KKT      0.067033
     37 HAB2       -1.2600   -4.2660    5.8480 h1        1 KKT      0.067033
     38 HAB3       -1.4890   -5.1920    4.2880 h1        1 KKT      0.067033
     39 HAI1       -4.2720   -7.7750    4.3800 h1        1 KKT      0.186700
     40 HAI2       -4.1110   -7.6230    2.6220 h1        1 KKT      0.186700
     41 HAJ1       -6.7090   -8.2040    4.1810 hc        1 KKT      0.074200
     42 HAJ2       -6.6330   -7.9140    2.3840 hc        1 KKT      0.074200
     43 HAK1       -4.9890   -9.7930    2.1560 hc        1 KKT      0.054200
     44 HAK2       -5.0360  -10.0660    3.9440 hc        1 KKT      0.054200
     45 HAT1       -6.5360  -11.6520    2.7410 hc        1 KKT      0.056367
     46 HAT2       -7.5030  -10.5540    3.8090 hc        1 KKT      0.056367
     47 HAT3       -7.4610  -10.2720    2.0180 hc        1 KKT      0.056367
     48 HAP3       -0.6580   -0.6430    3.1550 hn        1 KKT      0.500467
     49 HAG1       -3.2970   -3.5680    4.9270 hn        1 KKT      0.447800
@<TRIPOS>BOND
     1    1    2 ar  
     2    1    6 ar  
     3    1   26 1   
     4    2    3 ar  
     5    2   27 1   
     6    3    4 ar  
     7    3   28 1   
     8    4    5 ar  
     9    4   29 1   
    10    5    6 ar  
    11    5   30 1   
    12    6    7 1   
    13    7    8 1   
    14    7   31 1   
    15    7   32 1   
    16    8    9 2   
    17    8   11 1   
    18    9   10 1   
    19    9   16 1   
    20   10   33 1   
    21   10   34 1   
    22   10   48 1   
    23   11   12 2   
    24   11   13 1   
    25   13   14 1   
    26   13   35 1   
    27   14   15 1   
    28   14   16 2   
    29   15   19 1   
    30   16   17 1   
    31   17   18 1   
    32   17   49 1   
    33   18   36 1   
    34   18   37 1   
    35   18   38 1   
    36   19   20 2   
    37   19   21 2   
    38   19   22 1   
    39   22   23 1   
    40   22   39 1   
    41   22   40 1   
    42   23   24 1   
    43   23   41 1   
    44   23   42 1   
    45   24   25 1   
    46   24   43 1   
    47   24   44 1   
    48   25   45 1   
    49   25   46 1   
    50   25   47 1   
@<TRIPOS>SUBSTRUCTURE
     1 KKT         1 TEMP              0 ****  ****    0 ROOT
