@<TRIPOS>MOLECULE
KLG
   31    27     1     0     0
SMALL
bcc


@<TRIPOS>ATOM
      1 O3         -3.5240    0.0690    2.7930 o         1 KLG     -0.315000
      2 C10        -3.4220    1.2660    2.6120 c1        1 KLG      0.208000
      3 N1         -4.5880    2.0650    2.4780 n2        1 KLG     -0.188000
      4 O4         -5.7580    1.5000    2.0440 oh        1 KLG     -0.237000
      5 C9         -2.0540    1.9060    2.5320 c3        1 KLG     -0.030000
      6 N2         -1.1350    0.9900    1.9490 n3        1 KLG     -0.882000
      7 S1         -0.3190    1.4020    0.5860 s4        1 KLG      2.029800
      8 O1         -1.2200    1.6780   -0.4980 o         1 KLG     -0.535900
      9 O2          0.3360    2.6720    0.7340 o         1 KLG     -0.535900
     10 C8          0.8360    0.1280    0.1540 c2        1 KLG     -0.864000
     11 C7          1.1600    0.2210   -1.3210 c3        1 KLG     -0.096000
     12 C6          1.9780   -0.9830   -1.7340 c2        1 KLG     -0.073000
     13 C3          3.3610   -0.9480   -1.6360 c2        1 KLG     -0.124000
     14 C1          4.1110   -2.0490   -2.0200 c1        1 KLG     -0.127000
     15 C5          1.3460   -2.1190   -2.2150 c1        1 KLG     -0.123000
     16 C4          2.0960   -3.2200   -2.5990 c1        1 KLG     -0.128000
     17 C2          3.4780   -3.1850   -2.5010 c1        1 KLG     -0.128000
     18 H9         -1.7510    2.1430    3.4330 h1        1 KLG      0.124000
     19 H9A        -2.1030    2.7140    1.9810 h1        1 KLG      0.124000
     20 HN2        -0.9890    0.1800    2.3410 hn        1 KLG      0.260000
     21 H8          0.4440   -0.7470    0.3470 ha        1 KLG      0.155500
     22 H8A         1.6560    0.2410    0.6750 ha        1 KLG      0.155500
     23 H7          1.6720    1.0370   -1.4920 hc        1 KLG      0.108000
     24 H7A         0.3290    0.2430   -1.8370 hc        1 KLG      0.108000
     25 H3          3.8060   -0.1490   -1.2970 ha        1 KLG      0.133000
     26 H1          5.0840   -2.0240   -1.9520 ha        1 KLG      0.133000
     27 H5          0.3730   -2.1440   -2.2840 ha        1 KLG      0.134000
     28 H4          1.6510   -4.0190   -2.9380 ha        1 KLG      0.132500
     29 H2          4.0060   -3.9600   -2.7720 ha        1 KLG      0.132500
     30 H13        -4.5590    2.9530    2.6880 hn        1 KLG      0.215000
     31 H14        -6.3020    2.1380    1.7480 ho        1 KLG      0.237000
@<TRIPOS>BOND
     1    1    2 1   
     2    2    5 1   
     3    3    4 1   
     4    3   30 1   
     5    4   31 1   
     6    5    6 1   
     7    5   18 1   
     8    5   19 1   
     9    6    7 1   
    10    6   20 1   
    11    7    8 1   
    12    7    9 1   
    13   10   11 1   
    14   10   21 1   
    15   10   22 1   
    16   11   12 1   
    17   11   23 1   
    18   11   24 1   
    19   12   13 1   
    20   12   15 1   
    21   13   14 1   
    22   13   25 1   
    23   14   26 1   
    24   15   27 1   
    25   16   17 1   
    26   16   28 1   
    27   17   29 1   
@<TRIPOS>SUBSTRUCTURE
     1 KLG         1 TEMP              0 ****  ****    0 ROOT
