@<TRIPOS>MOLECULE
KLG
   33    32     1     0     0
SMALL
bcc


@<TRIPOS>ATOM
      1 O3          0.2730   -1.3610    0.9180 o         1 KLG     -0.367100
      2 C10         0.7570   -0.2740    0.6720 c         1 KLG      0.533100
      3 N1          0.6350    0.7430    1.8320 n4        1 KLG     -0.459300
      4 O4          1.4140    1.8080    1.5420 oh        1 KLG     -0.370300
      5 C9          1.4600    0.2090   -0.5860 c3        1 KLG      0.096800
      6 N2          1.4890   -0.7530   -1.6600 n3        1 KLG     -0.979800
      7 S1          2.8670    0.2120   -3.6800 s4        1 KLG      1.636500
      8 O1          1.7080    0.7960   -4.0440 o         1 KLG     -0.399900
      9 O2          3.6640    0.7320   -2.7240 o         1 KLG     -0.399900
     10 C8          3.3550   -1.0810   -4.4620 c3        1 KLG     -0.566100
     11 C7          4.0700   -0.7370   -5.8050 c3        1 KLG      0.029900
     12 C6          4.4760   -1.9820   -6.4970 ca        1 KLG     -0.157300
     13 C3          5.7380   -2.5410   -6.2550 ca        1 KLG     -0.110000
     14 C1          6.1330   -3.6900   -6.9360 ca        1 KLG     -0.114000
     15 C5          3.6140   -2.5840   -7.4230 ca        1 KLG     -0.110000
     16 C4          4.0140   -3.7330   -8.1020 ca        1 KLG     -0.114000
     17 C2          5.2720   -4.2880   -7.8590 ca        1 KLG     -0.079000
     18 H9          0.9430    1.1550   -0.9360 h1        1 KLG      0.146700
     19 H9A         2.5250    0.4830   -0.3000 h1        1 KLG      0.146700
     20 HN2         1.8790   -1.6300   -1.3530 hn        1 KLG      0.412300
     21 H8          2.5450   -1.8170   -4.7740 h1        1 KLG      0.213700
     22 H8A         4.1010   -1.7470   -3.9190 h1        1 KLG      0.213700
     23 H7          4.9750   -0.1110   -5.5800 hc        1 KLG      0.079200
     24 H7A         3.3590   -0.1530   -6.4500 hc        1 KLG      0.079200
     25 H3          6.4290   -2.0630   -5.5430 ha        1 KLG      0.133500
     26 H1          7.1310   -4.1210   -6.7530 ha        1 KLG      0.162000
     27 H5          2.6290   -2.1410   -7.6350 ha        1 KLG      0.133500
     28 H4          3.3400   -4.1980   -8.8390 ha        1 KLG      0.162000
     29 H2          5.5900   -5.1930   -8.4030 ha        1 KLG      0.165000
     30 H13        -0.3610    1.0270    1.9250 hn        1 KLG      0.485800
     31 H14         1.3910    2.4470    2.2960 ho        1 KLG      0.499000
     32 H12         0.9340    0.2830    2.7170 hn        1 KLG      0.485800
     33 H22         0.5630   -0.9180   -2.0250 hn        1 KLG      0.412300
@<TRIPOS>BOND
     1    1    2 2   
     2    2    3 1   
     3    2    5 1   
     4    3    4 1   
     5    3   30 1   
     6    3   32 1   
     7    4   31 1   
     8    5    6 1   
     9    5   18 1   
    10    5   19 1   
    11    6   20 1   
    12    6   33 1   
    13    7    8 1   
    14    7    9 1   
    15    7   10 1   
    16   10   11 1   
    17   10   21 1   
    18   10   22 1   
    19   11   12 1   
    20   11   23 1   
    21   11   24 1   
    22   12   13 ar  
    23   12   15 ar  
    24   13   14 ar  
    25   13   25 1   
    26   14   17 ar  
    27   14   26 1   
    28   15   16 ar  
    29   15   27 1   
    30   16   17 ar  
    31   16   28 1   
    32   17   29 1   
@<TRIPOS>SUBSTRUCTURE
     1 KLG         1 TEMP              0 ****  ****    0 ROOT
