@<TRIPOS>MOLECULE
KLG
   33    32     1     0     0
SMALL
bcc


@<TRIPOS>ATOM
      1 O3          0.0440   -1.1430    0.7750 o         1 KLG     -0.367100
      2 C10         0.6730   -0.1200    0.5920 c         1 KLG      0.533100
      3 N1          0.6250    0.8680    1.7810 ny        1 KLG     -0.459300
      4 O4          1.5530    1.8270    1.5700 oh        1 KLG     -0.370300
      5 C9          1.4940    0.3070   -0.6140 c3        1 KLG      0.096800
      6 N2          1.4540   -0.6170   -1.7210 n8        1 KLG     -0.979800
      7 S1          3.0410    0.2240   -3.6410 s4        1 KLG      1.636500
      8 O1          1.9840    0.9580   -4.0370 o         1 KLG     -0.399900
      9 O2          3.8480    0.6120   -2.6310 o         1 KLG     -0.399900
     10 C8          3.4040   -1.0980   -4.4430 c3        1 KLG     -0.566100
     11 C7          4.2180   -0.8080   -5.7410 c3        1 KLG      0.029900
     12 C6          4.5020   -2.0750   -6.4550 ca        1 KLG     -0.157300
     13 C3          5.6730   -2.7910   -6.1770 ca        1 KLG     -0.110000
     14 C1          5.9570   -3.9620   -6.8780 ca        1 KLG     -0.114000
     15 C5          3.6170   -2.5410   -7.4360 ca        1 KLG     -0.110000
     16 C4          3.9060   -3.7120   -8.1340 ca        1 KLG     -0.114000
     17 C2          5.0740   -4.4240   -7.8560 ca        1 KLG     -0.079000
     18 H9          1.1210    1.3220   -0.9530 h1        1 KLG      0.146700
     19 H9A         2.5700    0.4330   -0.2710 h1        1 KLG      0.146700
     20 HN2         1.7130   -1.5460   -1.4290 hn        1 KLG      0.412300
     21 H8          2.5260   -1.7200   -4.8140 h1        1 KLG      0.213700
     22 H8A         4.0360   -1.8660   -3.8900 h1        1 KLG      0.213700
     23 H7          5.1810   -0.3050   -5.4560 hc        1 KLG      0.079200
     24 H7A         3.6150   -0.1240   -6.3970 hc        1 KLG      0.079200
     25 H3          6.3840   -2.4220   -5.4220 ha        1 KLG      0.133500
     26 H1          6.8850   -4.5170   -6.6660 ha        1 KLG      0.162000
     27 H5          2.7040   -1.9740   -7.6760 ha        1 KLG      0.133500
     28 H4          3.2150   -4.0710   -8.9150 ha        1 KLG      0.162000
     29 H2          5.3040   -5.3460   -8.4150 ha        1 KLG      0.165000
     30 H13        -0.3290    1.2800    1.8360 hn        1 KLG      0.485800
     31 H14         1.5760    2.4390    2.3470 ho        1 KLG      0.499000
     32 H12         0.8110    0.3450    2.6620 hn        1 KLG      0.485800
     33 H22         0.5340   -0.6500   -2.1340 hn        1 KLG      0.412300
@<TRIPOS>BOND
     1    1    2 2   
     2    2    3 1   
     3    2    5 1   
     4    3    4 1   
     5    3   30 1   
     6    3   32 1   
     7    4   31 1   
     8    5    6 1   
     9    5   18 1   
    10    5   19 1   
    11    6   20 1   
    12    6   33 1   
    13    7    8 1   
    14    7    9 1   
    15    7   10 1   
    16   10   11 1   
    17   10   21 1   
    18   10   22 1   
    19   11   12 1   
    20   11   23 1   
    21   11   24 1   
    22   12   13 ar  
    23   12   15 ar  
    24   13   14 ar  
    25   13   25 1   
    26   14   17 ar  
    27   14   26 1   
    28   15   16 ar  
    29   15   27 1   
    30   16   17 ar  
    31   16   28 1   
    32   17   29 1   
@<TRIPOS>SUBSTRUCTURE
     1 KLG         1 TEMP              0 ****  ****    0 ROOT
