@<TRIPOS>MOLECULE
KLG
   31    31     1     0     0
SMALL
bcc


@<TRIPOS>ATOM
      1 O3          4.3900    0.4600   -1.3800 o         1 KLG     -0.552100
      2 C10         3.9980    0.8240   -0.2610 c         1 KLG      0.572100
      3 N1          4.9090    1.3410    0.7080 n         1 KLG     -0.346400
      4 O4          6.1810    0.9780    0.5260 oh        1 KLG     -0.430100
      5 C9          2.5060    0.9440    0.0780 c3        1 KLG      0.157800
      6 N2          1.7140   -0.0640   -0.5510 n3        1 KLG     -0.918100
      7 S1          0.5840   -0.9450    0.2060 s6        1 KLG      1.457900
      8 O1          0.4950   -2.2110   -0.4000 o         1 KLG     -0.648300
      9 O2          0.8020   -0.8980    1.5990 o         1 KLG     -0.648300
     10 C8         -0.8590   -0.0780   -0.1440 c3        1 KLG     -0.318600
     11 C7         -2.0600   -0.7580    0.4850 c3        1 KLG     -0.011100
     12 C6         -3.3220   -0.0290    0.1820 ca        1 KLG     -0.081300
     13 C3         -3.8920    0.8260    1.1310 ca        1 KLG     -0.124500
     14 C1         -5.0780    1.5020    0.8440 ca        1 KLG     -0.128000
     15 C5         -3.9520   -0.2010   -1.0560 ca        1 KLG     -0.124500
     16 C4         -5.1370    0.4750   -1.3410 ca        1 KLG     -0.128000
     17 C2         -5.7010    1.3280   -0.3920 ca        1 KLG     -0.128000
     18 H9          2.3480    0.8930    1.1950 h1        1 KLG      0.078700
     19 H9A         2.1910    1.9700   -0.2790 h1        1 KLG      0.078700
     20 HN2         1.9840   -0.2480   -1.4920 hn        1 KLG      0.469800
     21 H8         -0.8180    0.9780    0.2300 h1        1 KLG      0.113700
     22 H8A        -1.0440    0.0030   -1.2480 h1        1 KLG      0.113700
     23 H7         -2.1340   -1.8110    0.0950 hc        1 KLG      0.069200
     24 H7A        -1.9090   -0.8160    1.5990 hc        1 KLG      0.069200
     25 H3         -3.4060    0.9620    2.1090 ha        1 KLG      0.133500
     26 H1         -5.5220    2.1710    1.5950 ha        1 KLG      0.133000
     27 H5         -3.5110   -0.8770   -1.8040 ha        1 KLG      0.133500
     28 H4         -5.6280    0.3340   -2.3150 ha        1 KLG      0.133000
     29 H2         -6.6370    1.8610   -0.6170 ha        1 KLG      0.133000
     30 H13         4.6550    1.0900    1.6580 hn        1 KLG      0.305500
     31 H14         6.4970    1.4860   -0.2490 ho        1 KLG      0.436000
@<TRIPOS>BOND
     1    1    2 2   
     2    2    3 1   
     3    2    5 1   
     4    3    4 1   
     5    3   30 1   
     6    4   31 1   
     7    5    6 1   
     8    5   18 1   
     9    5   19 1   
    10    6    7 1   
    11    6   20 1   
    12    7    8 2   
    13    7    9 2   
    14    7   10 1   
    15   10   11 1   
    16   10   21 1   
    17   10   22 1   
    18   11   12 1   
    19   11   23 1   
    20   11   24 1   
    21   12   13 ar  
    22   12   15 ar  
    23   13   14 ar  
    24   13   25 1   
    25   14   17 ar  
    26   14   26 1   
    27   15   16 ar  
    28   15   27 1   
    29   16   17 ar  
    30   16   28 1   
    31   17   29 1   
@<TRIPOS>SUBSTRUCTURE
     1 KLG         1 TEMP              0 ****  ****    0 ROOT
