@<TRIPOS>MOLECULE
KLG
   33    32     1     0     0
SMALL
bcc


@<TRIPOS>ATOM
      1 O3          0.1510   -1.2350    0.8460 o         1 KLG     -0.367100
      2 C10         0.7180   -0.1830    0.6320 c         1 KLG      0.533100
      3 N1          0.6450    0.8210    1.8070 n4        1 KLG     -0.459300
      4 O4          1.5220    1.8190    1.5640 oh        1 KLG     -0.370300
      5 C9          1.4830    0.2700   -0.6020 c3        1 KLG      0.096800
      6 N2          1.4670   -0.6730   -1.6930 n3        1 KLG     -0.979800
      7 S1          2.9580    0.2230   -3.6660 s4        1 KLG      1.636500
      8 O1          1.8500    0.8860   -4.0490 o         1 KLG     -0.399900
      9 O2          3.7630    0.6770   -2.6820 o         1 KLG     -0.399900
     10 C8          3.3800   -1.0900   -4.4530 c3        1 KLG     -0.566100
     11 C7          4.1390   -0.7770   -5.7790 c3        1 KLG      0.029900
     12 C6          4.4810   -2.0380   -6.4770 ca        1 KLG     -0.157300
     13 C3          5.7020   -2.6740   -6.2200 ca        1 KLG     -0.110000
     14 C1          6.0390   -3.8390   -6.9070 ca        1 KLG     -0.114000
     15 C5          3.6000   -2.5770   -7.4240 ca        1 KLG     -0.110000
     16 C4          3.9420   -3.7420   -8.1080 ca        1 KLG     -0.114000
     17 C2          5.1600   -4.3740   -7.8510 ca        1 KLG     -0.079000
     18 H9          1.0460    1.2570   -0.9450 h1        1 KLG      0.146200
     19 H9A         2.5590    0.4600   -0.2870 h1        1 KLG      0.146200
     20 HN2         1.7840   -1.5820   -1.3940 hn        1 KLG      0.412300
     21 H8          4.0740   -1.8060   -3.9040 h1        1 KLG      0.213700
     22 H8A         2.5320   -1.7730   -4.7870 h1        1 KLG      0.213700
     23 H7          3.4770   -0.1440   -6.4300 hc        1 KLG      0.079200
     24 H7A         5.0760   -0.2100   -5.5310 hc        1 KLG      0.079200
     25 H3          6.4090   -2.2470   -5.4930 ha        1 KLG      0.133500
     26 H1          7.0050   -4.3310   -6.7130 ha        1 KLG      0.162000
     27 H5          2.6480   -2.0730   -7.6470 ha        1 KLG      0.133500
     28 H4          3.2530   -4.1580   -8.8620 ha        1 KLG      0.162000
     29 H2          5.4310   -5.2920   -8.3990 ha        1 KLG      0.165000
     30 H13        -0.3260    1.1880    1.8740 hn        1 KLG      0.485800
     31 H14         1.5320    2.4420    2.3320 ho        1 KLG      0.499000
     32 H12         0.8730    0.3210    2.6920 hn        1 KLG      0.485800
     33 H22         0.5410   -0.7630   -2.0820 hn        1 KLG      0.412300
@<TRIPOS>BOND
     1    1    2 2   
     2    2    3 1   
     3    2    5 1   
     4    3    4 1   
     5    3   30 1   
     6    3   32 1   
     7    4   31 1   
     8    5    6 1   
     9    5   18 1   
    10    5   19 1   
    11    6   20 1   
    12    6   33 1   
    13    7    8 1   
    14    7    9 1   
    15    7   10 1   
    16   10   11 1   
    17   10   21 1   
    18   10   22 1   
    19   11   12 1   
    20   11   23 1   
    21   11   24 1   
    22   12   13 ar  
    23   12   15 ar  
    24   13   14 ar  
    25   13   25 1   
    26   14   17 ar  
    27   14   26 1   
    28   15   16 ar  
    29   15   27 1   
    30   16   17 ar  
    31   16   28 1   
    32   17   29 1   
@<TRIPOS>SUBSTRUCTURE
     1 KLG         1 TEMP              0 ****  ****    0 ROOT
