@<TRIPOS>MOLECULE
KLH
   39    40     1     0     0
SMALL
bcc


@<TRIPOS>ATOM
      1 O4          1.5190    1.6150   -0.5530 o         1 KLH     -0.395100
      2 C13         1.6370    0.5150   -0.0490 c         1 KLH      0.510100
      3 N1          1.2160   -0.6490   -0.9510 ny        1 KLH     -0.463300
      4 O2          1.2260   -0.3550   -2.2680 oh        1 KLH     -0.359300
      5 C1          2.1610    0.1330    1.3580 c3        1 KLH      0.221500
      6 N2          1.0990   -0.0220    2.3100 n3        1 KLH     -0.817500
      7 C4          1.0920    1.0870    3.2570 c3        1 KLH      0.207800
      8 C6          2.3360    1.9500    2.9960 c3        1 KLH     -0.091400
      9 C3          3.0880    1.2770    1.8530 c3        1 KLH     -0.084400
     10 S1          0.1130   -1.3400    2.4500 s6        1 KLH      1.464900
     11 O1         -1.1650   -0.9440    2.8460 o         1 KLH     -0.659300
     12 O3          0.2210   -1.9540    1.1640 o         1 KLH     -0.659300
     13 C7          0.8630   -2.2960    3.6190 c3        1 KLH     -0.345600
     14 C8          0.0610   -3.5690    3.8750 c3        1 KLH     -0.005100
     15 C9          0.7030   -4.4000    4.9280 ca        1 KLH     -0.106300
     16 C10         0.4550   -4.1320    6.2800 ca        1 KLH     -0.121500
     17 C2          1.0450   -4.9180    7.2680 ca        1 KLH     -0.121000
     18 C11         1.5420   -5.4620    4.5760 ca        1 KLH     -0.121500
     19 C12         2.1310   -6.2470    5.5670 ca        1 KLH     -0.121000
     20 C5          1.8840   -5.9760    6.9130 ca        1 KLH     -0.110000
     21 H1          2.7410   -0.8310    1.2460 h1        1 KLH      0.086700
     22 H4          1.1070    0.6770    4.3050 h1        1 KLH      0.074200
     23 H4A         0.1490    1.6900    3.1250 h1        1 KLH      0.074200
     24 H6          2.9730    2.0110    3.9130 hc        1 KLH      0.084200
     25 H6A         2.0340    2.9910    2.7190 hc        1 KLH      0.084200
     26 H3          4.0490    0.8280    2.2100 hc        1 KLH      0.088700
     27 H3A         3.3240    2.0030    1.0370 hc        1 KLH      0.088700
     28 H7          1.9060   -2.6070    3.3400 h1        1 KLH      0.136200
     29 H7A         0.9750   -1.7730    4.6100 h1        1 KLH      0.136200
     30 H8         -0.9810   -3.2900    4.1960 hc        1 KLH      0.072700
     31 H8A        -0.0150   -4.1550    2.9180 hc        1 KLH      0.072700
     32 H10        -0.2160   -3.3080    6.5630 ha        1 KLH      0.130500
     33 H2          0.8430   -4.7080    8.3290 ha        1 KLH      0.144000
     34 H11         1.7300   -5.6880    3.5160 ha        1 KLH      0.130500
     35 H12         2.7850   -7.0860    5.2860 ha        1 KLH      0.144000
     36 H5          2.3460   -6.5980    7.6950 ha        1 KLH      0.146000
     37 H17         1.8730   -1.4470   -0.8320 hn        1 KLH      0.502300
     38 H18         0.8520    0.5500   -2.3970 ho        1 KLH      0.480000
     39 H121        0.2690   -0.9970   -0.6630 hn        1 KLH      0.502300
@<TRIPOS>BOND
     1    1    2 2   
     2    2    3 1   
     3    2    5 1   
     4    3    4 1   
     5    3   37 1   
     6    3   39 1   
     7    4   38 1   
     8    5    6 1   
     9    5    9 1   
    10    5   21 1   
    11    6    7 1   
    12    6   10 1   
    13    7    8 1   
    14    7   22 1   
    15    7   23 1   
    16    8    9 1   
    17    8   24 1   
    18    8   25 1   
    19    9   26 1   
    20    9   27 1   
    21   10   11 2   
    22   10   12 2   
    23   10   13 1   
    24   13   14 1   
    25   13   28 1   
    26   13   29 1   
    27   14   15 1   
    28   14   30 1   
    29   14   31 1   
    30   15   16 ar  
    31   15   18 ar  
    32   16   17 ar  
    33   16   32 1   
    34   17   20 ar  
    35   17   33 1   
    36   18   19 ar  
    37   18   34 1   
    38   19   20 ar  
    39   19   35 1   
    40   20   36 1   
@<TRIPOS>SUBSTRUCTURE
     1 KLH         1 TEMP              0 ****  ****    0 ROOT
