@<TRIPOS>MOLECULE
KLH
   39    40     1     0     0
SMALL
bcc


@<TRIPOS>ATOM
      1 O4          1.5110    1.6380   -0.5360 o         1 KLH     -0.395100
      2 C13         1.6230    0.5330   -0.0410 c         1 KLH      0.510100
      3 N1          1.1820   -0.6210   -0.9470 n4        1 KLH     -0.463300
      4 O2          1.1800   -0.3180   -2.2630 oh        1 KLH     -0.359300
      5 C1          2.1590    0.1360    1.3560 c3        1 KLH      0.221500
      6 N2          1.1070   -0.0150    2.3200 n3        1 KLH     -0.817500
      7 C4          1.1210    1.0870    3.2740 c3        1 KLH      0.207800
      8 C6          2.3700    1.9390    3.0050 c3        1 KLH     -0.091400
      9 C3          3.1030    1.2660    1.8490 c3        1 KLH     -0.084400
     10 S1          0.1080   -1.3240    2.4610 s6        1 KLH      1.464900
     11 O1         -1.1600   -0.9180    2.8730 o         1 KLH     -0.659300
     12 O3          0.1970   -1.9300    1.1700 o         1 KLH     -0.659300
     13 C7          0.8620   -2.2960    3.6150 c3        1 KLH     -0.345600
     14 C8          0.0500   -3.5620    3.8710 c3        1 KLH     -0.005100
     15 C9          0.6940   -4.4070    4.9120 ca        1 KLH     -0.106300
     16 C10         0.4600   -4.1500    6.2680 ca        1 KLH     -0.121500
     17 C2          1.0520   -4.9490    7.2440 ca        1 KLH     -0.121000
     18 C11         1.5240   -5.4720    4.5440 ca        1 KLH     -0.121500
     19 C12         2.1150   -6.2690    5.5230 ca        1 KLH     -0.121000
     20 C5          1.8810   -6.0080    6.8730 ca        1 KLH     -0.110000
     21 H1          2.7280   -0.8330    1.2320 h1        1 KLH      0.086700
     22 H4          1.1430    0.6690    4.3190 h1        1 KLH      0.074200
     23 H4A         0.1830    1.7000    3.1560 h1        1 KLH      0.074200
     24 H6          3.0190    1.9870    3.9150 hc        1 KLH      0.084200
     25 H6A         2.0760    2.9850    2.7390 hc        1 KLH      0.084200
     26 H3          3.3380    1.9960    1.0360 hc        1 KLH      0.088700
     27 H3A         4.0640    0.8060    2.1930 hc        1 KLH      0.088700
     28 H7          1.8990   -2.6160    3.3230 h1        1 KLH      0.136200
     29 H7A         0.9900   -1.7810    4.6090 h1        1 KLH      0.136200
     30 H8         -0.9860   -3.2760    4.2050 hc        1 KLH      0.072700
     31 H8A        -0.0430   -4.1410    2.9120 hc        1 KLH      0.072700
     32 H10        -0.2040   -3.3240    6.5640 ha        1 KLH      0.130500
     33 H2          0.8600   -4.7470    8.3090 ha        1 KLH      0.144000
     34 H11         1.7010   -5.6900    3.4800 ha        1 KLH      0.130500
     35 H12         2.7610   -7.1100    5.2280 ha        1 KLH      0.144000
     36 H5          2.3450   -6.6410    7.6450 ha        1 KLH      0.146000
     37 H17         0.2350   -0.9620   -0.6510 hn        1 KLH      0.502300
     38 H18         0.8130    0.5920   -2.3810 ho        1 KLH      0.480000
     39 H121        1.8320   -1.4260   -0.8410 hn        1 KLH      0.502300
@<TRIPOS>BOND
     1    1    2 2   
     2    2    3 1   
     3    2    5 1   
     4    3    4 1   
     5    3   37 1   
     6    3   39 1   
     7    4   38 1   
     8    5    6 1   
     9    5    9 1   
    10    5   21 1   
    11    6    7 1   
    12    6   10 1   
    13    7    8 1   
    14    7   22 1   
    15    7   23 1   
    16    8    9 1   
    17    8   24 1   
    18    8   25 1   
    19    9   26 1   
    20    9   27 1   
    21   10   11 2   
    22   10   12 2   
    23   10   13 1   
    24   13   14 1   
    25   13   28 1   
    26   13   29 1   
    27   14   15 1   
    28   14   30 1   
    29   14   31 1   
    30   15   16 ar  
    31   15   18 ar  
    32   16   17 ar  
    33   16   32 1   
    34   17   20 ar  
    35   17   33 1   
    36   18   19 ar  
    37   18   34 1   
    38   19   20 ar  
    39   19   35 1   
    40   20   36 1   
@<TRIPOS>SUBSTRUCTURE
     1 KLH         1 TEMP              0 ****  ****    0 ROOT
