@<TRIPOS>MOLECULE
KLH
   38    35     1     0     0
SMALL
bcc


@<TRIPOS>ATOM
      1 O4         -0.9470    2.7610   -2.1820 o         1 KLH     -0.320000
      2 C13         0.1240    2.7810   -2.7860 c1        1 KLH      0.221000
      3 N1          0.1890    3.3230   -4.0900 n3        1 KLH     -0.201000
      4 O2         -0.7870    4.1860   -4.5200 oh        1 KLH     -0.231000
      5 C1          1.3030    2.2580   -2.1660 c2        1 KLH      0.033000
      6 N2          0.8650    1.2230   -0.9240 n3        1 KLH     -0.843000
      7 C4          1.8290    1.2250   -0.0770 c3        1 KLH     -0.012000
      8 C6          2.5100    2.5980   -0.2160 c3        1 KLH     -0.164000
      9 C3          1.9420    3.2420   -1.5180 c3        1 KLH     -0.159000
     10 S1         -0.4370    0.1440   -0.9440 s4        1 KLH      2.032800
     11 O1         -1.6660    0.8220   -0.7820 o         1 KLH     -0.537900
     12 O3         -0.6070   -0.4340   -2.2300 o         1 KLH     -0.537900
     13 C7         -0.2190   -1.1200    0.3120 c2        1 KLH     -0.862000
     14 C8         -1.5840   -1.4620    0.9500 c3        1 KLH     -0.096000
     15 C9         -1.4010   -2.5660    1.9660 c2        1 KLH     -0.074000
     16 C10        -0.8010   -2.2920    3.1820 c2        1 KLH     -0.125000
     17 C2         -0.7420   -3.2730    4.1630 c1        1 KLH     -0.128000
     18 C11        -1.9460   -3.8290    1.7260 c1        1 KLH     -0.124000
     19 C12        -1.8870   -4.8080    2.7070 c2        1 KLH     -0.128000
     20 C5         -1.2890   -4.5350    3.9210 c2        1 KLH     -0.128000
     21 H1          1.7660    1.8570   -2.9500 h4        1 KLH      0.107000
     22 H4          2.4500    0.5280   -0.2830 h1        1 KLH      0.094000
     23 H4A         1.4810    1.1110    0.8310 h1        1 KLH      0.094000
     24 H6          3.4960    2.4850   -0.2910 hc        1 KLH      0.099500
     25 H6A         2.2890    3.1700    0.5740 hc        1 KLH      0.099500
     26 H3          1.3200    3.9600   -1.2960 hc        1 KLH      0.110000
     27 H3A         2.6740    3.5890   -2.0680 hc        1 KLH      0.110000
     28 H7          0.1570   -1.9240   -0.0990 ha        1 KLH      0.151500
     29 H7A         0.3890   -0.7920    1.0010 ha        1 KLH      0.151500
     30 H8         -2.2020   -1.7570    0.2590 hc        1 KLH      0.109000
     31 H8A        -1.9480   -0.6620    1.3960 hc        1 KLH      0.109000
     32 H10        -0.4260   -1.4260    3.3470 ha        1 KLH      0.133000
     33 H2         -0.3220   -3.0820    5.0150 DU        1 KLH      0.133500
     34 H11        -2.3720   -4.0250    0.8640 DU        1 KLH      0.133500
     35 H12        -2.2620   -5.6740    2.5410 ha        1 KLH      0.133000
     36 H5         -1.2480   -5.2180    4.6030 ha        1 KLH      0.133000
     37 H17         0.8390    3.0490   -4.6650 hn        1 KLH      0.256000
     38 H18        -0.5290    4.5710   -5.2710 ho        1 KLH      0.227000
@<TRIPOS>BOND
     1    1    2 1   
     2    2    3 1   
     3    3    4 1   
     4    3   37 1   
     5    4   38 1   
     6    5    6 1   
     7    5    9 1   
     8    5   21 1   
     9    6    7 1   
    10    6   10 1   
    11    7    8 1   
    12    7   22 1   
    13    7   23 1   
    14    8    9 1   
    15    8   24 1   
    16    8   25 1   
    17    9   26 1   
    18    9   27 1   
    19   10   11 1   
    20   10   12 1   
    21   13   14 1   
    22   13   28 1   
    23   13   29 1   
    24   14   15 1   
    25   14   30 1   
    26   14   31 1   
    27   15   16 1   
    28   15   18 1   
    29   16   17 1   
    30   16   32 1   
    31   17   20 1   
    32   18   19 1   
    33   19   20 1   
    34   19   35 1   
    35   20   36 1   
@<TRIPOS>SUBSTRUCTURE
     1 KLH         1 TEMP              0 ****  ****    0 ROOT
