@<TRIPOS>MOLECULE
KLH
   39    40     1     0     0
SMALL
bcc


@<TRIPOS>ATOM
      1 O4          2.5950    1.2090   -0.7300 o         1 KLH     -0.406100
      2 C13         1.9780    0.3970   -0.0650 c         1 KLH      0.513100
      3 N1          0.9160   -0.3800   -0.8400 n4        1 KLH     -0.463300
      4 O2          1.0380   -0.2970   -2.1820 oh        1 KLH     -0.355300
      5 C1          2.1880    0.0170    1.4160 c3        1 KLH      0.210500
      6 N2          0.9810   -0.0550    2.1880 n3        1 KLH     -0.821500
      7 C4          0.8670    1.1110    3.0580 c3        1 KLH      0.202800
      8 C6          2.2070    1.8640    3.0290 c3        1 KLH     -0.096400
      9 C3          3.1030    1.0900    2.0690 c3        1 KLH     -0.088400
     10 S1          0.0280   -1.3970    2.3930 s6        1 KLH      1.456900
     11 O1         -1.2410   -1.0030    2.8180 o         1 KLH     -0.651800
     12 O3          0.1120   -2.0380    1.1220 o         1 KLH     -0.651800
     13 C7          0.8310   -2.3060    3.5620 c3        1 KLH     -0.351600
     14 C8          0.0750   -3.5980    3.8600 c3        1 KLH     -0.004100
     15 C9          0.7670   -4.3910    4.9100 ca        1 KLH     -0.107300
     16 C10         0.5460   -4.1090    6.2630 ca        1 KLH     -0.121500
     17 C2          1.1840   -4.8600    7.2480 ca        1 KLH     -0.121500
     18 C11         1.6300   -5.4330    4.5540 ca        1 KLH     -0.121500
     19 C12         2.2670   -6.1830    5.5420 ca        1 KLH     -0.121500
     20 C5          2.0460   -5.8970    6.8890 ca        1 KLH     -0.110000
     21 H1          2.7070   -0.9900    1.3760 h1        1 KLH      0.103700
     22 H4          0.6180    0.7740    4.1030 h1        1 KLH      0.074200
     23 H4A         0.0290    1.7700    2.6950 h1        1 KLH      0.074200
     24 H6          2.0540    2.9150    2.6800 hc        1 KLH      0.084200
     25 H6A         2.6580    1.9070    4.0510 hc        1 KLH      0.084200
     26 H3          3.9270    0.5670    2.6190 hc        1 KLH      0.093200
     27 H3A         3.5720    1.7620    1.3090 hc        1 KLH      0.093200
     28 H7          1.8770   -2.5940    3.2680 h1        1 KLH      0.135700
     29 H7A         0.9470   -1.7610    4.5410 h1        1 KLH      0.135700
     30 H8         -0.9660   -3.3440    4.2040 hc        1 KLH      0.073200
     31 H8A        -0.0090   -4.2020    2.9160 hc        1 KLH      0.073200
     32 H10        -0.1440   -3.3000    6.5500 ha        1 KLH      0.131000
     33 H2          1.0010   -4.6390    8.3110 ha        1 KLH      0.144500
     34 H11         1.7980   -5.6710    3.4930 ha        1 KLH      0.131000
     35 H12         2.9390   -7.0060    5.2570 ha        1 KLH      0.144500
     36 H5          2.5460   -6.4930    7.6680 ha        1 KLH      0.147000
     37 H17         0.9750   -1.4080   -0.6110 hn        1 KLH      0.504300
     38 H18         1.3520    0.6070   -2.4270 ho        1 KLH      0.478000
     39 H121       -0.0300   -0.0620   -0.5560 hn        1 KLH      0.504300
@<TRIPOS>BOND
     1    1    2 2   
     2    2    3 1   
     3    2    5 1   
     4    3    4 1   
     5    3   37 1   
     6    3   39 1   
     7    4   38 1   
     8    5    6 1   
     9    5    9 1   
    10    5   21 1   
    11    6    7 1   
    12    6   10 1   
    13    7    8 1   
    14    7   22 1   
    15    7   23 1   
    16    8    9 1   
    17    8   24 1   
    18    8   25 1   
    19    9   26 1   
    20    9   27 1   
    21   10   11 2   
    22   10   12 2   
    23   10   13 1   
    24   13   14 1   
    25   13   28 1   
    26   13   29 1   
    27   14   15 1   
    28   14   30 1   
    29   14   31 1   
    30   15   16 ar  
    31   15   18 ar  
    32   16   17 ar  
    33   16   32 1   
    34   17   20 ar  
    35   17   33 1   
    36   18   19 ar  
    37   18   34 1   
    38   19   20 ar  
    39   19   35 1   
    40   20   36 1   
@<TRIPOS>SUBSTRUCTURE
     1 KLH         1 TEMP              0 ****  ****    0 ROOT
