@<TRIPOS>MOLECULE
KLH
   38    39     1     0     0
SMALL
bcc


@<TRIPOS>ATOM
      1 O4         -4.6790    0.1470   -0.6600 o         1 KLH     -0.559100
      2 C13        -3.5740   -0.4170   -0.6400 c         1 KLH      0.577100
      3 N1         -3.4740   -1.8100   -0.3830 n         1 KLH     -0.360400
      4 O2         -4.5160   -2.3360    0.2640 oh        1 KLH     -0.426100
      5 C1         -2.2810    0.3040   -1.0890 c3        1 KLH      0.180500
      6 N2         -1.5410    0.8540    0.0320 n3        1 KLH     -0.823500
      7 C4         -1.6820    2.2990    0.0690 c3        1 KLH      0.224800
      8 C6         -2.3080    2.7540   -1.2590 c3        1 KLH     -0.085400
      9 C3         -2.6340    1.4800   -2.0310 c3        1 KLH     -0.080400
     10 S1         -0.5080    0.0420    0.9820 s6        1 KLH      1.460900
     11 O1         -0.3520    0.6960    2.2170 o         1 KLH     -0.650300
     12 O3         -0.8890   -1.3200    1.0100 o         1 KLH     -0.650300
     13 C7          0.9770    0.1570    0.1230 c3        1 KLH     -0.322600
     14 C8          2.0850   -0.5730    0.8580 c3        1 KLH     -0.010100
     15 C9          3.3800   -0.4720    0.1330 ca        1 KLH     -0.081300
     16 C10         4.1880    0.6600    0.2900 ca        1 KLH     -0.124500
     17 C2          5.4040    0.7540   -0.3840 ca        1 KLH     -0.128000
     18 C11         3.8050   -1.5090   -0.7060 ca        1 KLH     -0.124500
     19 C12         5.0220   -1.4120   -1.3790 ca        1 KLH     -0.128000
     20 C5          5.8220   -0.2810   -1.2200 ca        1 KLH     -0.128000
     21 H1         -1.6290   -0.4400   -1.6350 h1        1 KLH      0.067700
     22 H4         -2.3390    2.5910    0.9360 h1        1 KLH      0.054700
     23 H4A        -0.6710    2.7700    0.2210 h1        1 KLH      0.054700
     24 H6         -3.2330    3.3490   -1.0620 hc        1 KLH      0.060200
     25 H6A        -1.5950    3.3980   -1.8280 hc        1 KLH      0.060200
     26 H3         -2.0220    1.4080   -2.9630 hc        1 KLH      0.070700
     27 H3A        -3.7150    1.4490   -2.3160 hc        1 KLH      0.070700
     28 H7          0.9000   -0.2740   -0.9100 h1        1 KLH      0.112200
     29 H7A         1.2980    1.2230   -0.0200 h1        1 KLH      0.112200
     30 H8          2.1950   -0.1330    1.8880 hc        1 KLH      0.069700
     31 H8A         1.7970   -1.6540    0.9780 hc        1 KLH      0.069700
     32 H10         3.8620    1.4750    0.9540 ha        1 KLH      0.133500
     33 H2          6.0350    1.6460   -0.2540 ha        1 KLH      0.133000
     34 H11         3.1790   -2.4050   -0.8290 ha        1 KLH      0.133500
     35 H12         5.3510   -2.2320   -2.0350 ha        1 KLH      0.133000
     36 H5          6.7830   -0.2060   -1.7510 ha        1 KLH      0.133000
     37 H17        -2.6270   -2.0880    0.1120 hn        1 KLH      0.342500
     38 H18        -5.2580   -2.3320   -0.3720 ho        1 KLH      0.428000
@<TRIPOS>BOND
     1    1    2 2   
     2    2    3 1   
     3    2    5 1   
     4    3    4 1   
     5    3   37 1   
     6    4   38 1   
     7    5    6 1   
     8    5    9 1   
     9    5   21 1   
    10    6    7 1   
    11    6   10 1   
    12    7    8 1   
    13    7   22 1   
    14    7   23 1   
    15    8    9 1   
    16    8   24 1   
    17    8   25 1   
    18    9   26 1   
    19    9   27 1   
    20   10   11 2   
    21   10   12 2   
    22   10   13 1   
    23   13   14 1   
    24   13   28 1   
    25   13   29 1   
    26   14   15 1   
    27   14   30 1   
    28   14   31 1   
    29   15   16 ar  
    30   15   18 ar  
    31   16   17 ar  
    32   16   32 1   
    33   17   20 ar  
    34   17   33 1   
    35   18   19 ar  
    36   18   34 1   
    37   19   20 ar  
    38   19   35 1   
    39   20   36 1   
@<TRIPOS>SUBSTRUCTURE
     1 KLH         1 TEMP              0 ****  ****    0 ROOT
