@<TRIPOS>MOLECULE
KLI
   69    74     1     0     0
SMALL
bcc


@<TRIPOS>ATOM
      1 N01         0.1580   -0.1800    0.1620 na        1 KLI     -0.517800
      2 N02        -0.2420    0.1980    4.9960 nc        1 KLI     -0.647000
      3 N03        -1.7010   -1.2750    4.0050 nd        1 KLI     -0.381300
      4 N04         4.3970    0.0600   -2.3850 nh        1 KLI     -0.619000
      5 N05         4.7070    0.3280   -5.2640 n3        1 KLI     -0.734600
      6 C06         4.3990   -0.1780    0.0680 ca        1 KLI      0.116900
      7 C07         3.6720   -0.0600   -1.1530 ca        1 KLI      0.111600
      8 C08         2.2720   -0.0720   -1.1060 ca        1 KLI     -0.201000
      9 C09         1.5640   -0.1970    0.1100 ca        1 KLI      0.175600
     10 C10         2.3060   -0.3240    1.3130 ca        1 KLI     -0.172600
     11 C11         3.7020   -0.3080    1.2750 ca        1 KLI     -0.091000
     12 C12        -0.4770   -0.3210    1.3810 cd        1 KLI      0.150000
     13 C13         0.1830   -0.4350    2.5740 cc        1 KLI     -0.318000
     14 C14         1.6440   -0.4830    2.6280 c         1 KLI      0.601900
     15 C15        -0.5840   -0.5200    3.8080 cc        1 KLI      0.612800
     16 C16        -1.1790   -0.1660    5.8660 cd        1 KLI      0.503700
     17 C17        -0.6640   -0.1360   -1.0310 c3        1 KLI      0.255100
     18 C18        -1.0730   -1.4810   -1.5630 ca        1 KLI     -0.132300
     19 C19        -0.2520   -2.1800   -2.4500 ca        1 KLI     -0.091000
     20 C20        -0.6440   -3.4120   -2.9690 ca        1 KLI     -0.096000
     21 C21        -1.8740   -3.9580   -2.5970 ca        1 KLI     -0.131300
     22 C22        -2.7160   -3.2900   -1.7130 ca        1 KLI     -0.116000
     23 C23        -2.3140   -2.0460   -1.1920 ca        1 KLI      0.139900
     24 C24        -2.2940   -5.3160   -3.1550 c3        1 KLI      0.687200
     25 C25         4.1910   -1.0820   -3.2690 c3        1 KLI      0.174800
     26 C26         4.9550   -0.9440   -4.5990 c3        1 KLI      0.165800
     27 C27         4.9430    1.4590   -4.3770 c3        1 KLI      0.165800
     28 C28         4.1770    1.3420   -3.0450 c3        1 KLI      0.174800
     29 C29         5.4250    0.4470   -6.5130 c3        1 KLI      0.156100
     30 C30        -1.4380    0.1630    7.2860 c3        1 KLI     -0.061400
     31 C31        -1.7120    1.6140    7.4870 ca        1 KLI     -0.098300
     32 C32        -2.9850    2.0390    7.8820 ca        1 KLI     -0.111000
     33 C33        -3.2330    3.3930    8.1020 ca        1 KLI     -0.132000
     34 C34        -2.2150    4.3290    7.9270 ca        1 KLI     -0.122000
     35 C35        -0.9450    3.9090    7.5300 ca        1 KLI     -0.132000
     36 C36        -0.6920    2.5560    7.3110 ca        1 KLI     -0.111000
     37 O37         2.2980   -0.6690    3.6630 o         1 KLI     -0.531100
     38 O38        -2.0880   -1.0790    5.2430 os        1 KLI     -0.146100
     39 F39        -1.8580   -6.3850   -2.4100 f         1 KLI     -0.230967
     40 F40        -3.6520   -5.4980   -3.2470 f         1 KLI     -0.230967
     41 F41        -1.8300   -5.5740   -4.4220 f         1 KLI     -0.230967
     42 F42        -3.1330   -1.3930   -0.3340 f         1 KLI     -0.129900
     43 F43         5.7510   -0.1690    0.0870 f         1 KLI     -0.119900
     44 H08         1.7310    0.0230   -2.0610 ha        1 KLI      0.140000
     45 H11         4.2610   -0.4050    2.2240 ha        1 KLI      0.182000
     46 H12        -1.5870   -0.3270    1.3360 h4        1 KLI      0.176000
     47 H17        -1.6010    0.4500   -0.7810 h1        1 KLI      0.080700
     48 H17A       -0.1260    0.4380   -1.8370 h1        1 KLI      0.080700
     49 H19         0.7220   -1.7540   -2.7430 ha        1 KLI      0.151000
     50 H20         0.0090   -3.9540   -3.6720 ha        1 KLI      0.162000
     51 H22        -3.6880   -3.7200   -1.4200 ha        1 KLI      0.175000
     52 H25         3.0960   -1.2430   -3.4940 h1        1 KLI      0.040700
     53 H25A        4.5760   -1.9970   -2.7390 h1        1 KLI      0.040700
     54 H26         6.0550   -1.1070   -4.4020 h1        1 KLI      0.042700
     55 H26A        4.6010   -1.7660   -5.2830 h1        1 KLI      0.042700
     56 H27         4.5800    2.3880   -4.8980 h1        1 KLI      0.042700
     57 H27A        6.0410    1.5930   -4.1520 h1        1 KLI      0.042700
     58 H28         3.0810    1.5300   -3.2400 h1        1 KLI      0.040700
     59 H28A        4.5530    2.1480   -2.3550 h1        1 KLI      0.040700
     60 H29         6.5430    0.4410   -6.3880 h1        1 KLI      0.035033
     61 H29A        5.1360   -0.4090   -7.1770 h1        1 KLI      0.035033
     62 H29B        5.1270    1.4070   -7.0090 h1        1 KLI      0.035033
     63 H30        -0.5320   -0.1370    7.8850 hc        1 KLI      0.086200
     64 H30A       -2.3080   -0.4570    7.6400 hc        1 KLI      0.086200
     65 H32        -3.7930    1.3040    8.0200 ha        1 KLI      0.142000
     66 H33        -4.2360    3.7220    8.4130 ha        1 KLI      0.134000
     67 H34        -2.4120    5.3970    8.1000 ha        1 KLI      0.132000
     68 H35        -0.1400    4.6450    7.3880 ha        1 KLI      0.134000
     69 H36         0.3080    2.2250    6.9890 ha        1 KLI      0.142000
@<TRIPOS>BOND
     1    1    9 1   
     2    1   12 1   
     3    1   17 1   
     4    2   15 1   
     5    2   16 2   
     6    3   15 2   
     7    3   38 1   
     8    4    7 1   
     9    4   25 1   
    10    4   28 1   
    11    5   26 1   
    12    5   27 1   
    13    5   29 1   
    14    6    7 ar  
    15    6   11 ar  
    16    6   43 1   
    17    7    8 ar  
    18    8    9 ar  
    19    8   44 1   
    20    9   10 ar  
    21   10   11 ar  
    22   10   14 1   
    23   11   45 1   
    24   12   13 2   
    25   12   46 1   
    26   13   14 1   
    27   13   15 1   
    28   14   37 2   
    29   16   30 1   
    30   16   38 1   
    31   17   18 1   
    32   17   47 1   
    33   17   48 1   
    34   18   19 ar  
    35   18   23 ar  
    36   19   20 ar  
    37   19   49 1   
    38   20   21 ar  
    39   20   50 1   
    40   21   22 ar  
    41   21   24 1   
    42   22   23 ar  
    43   22   51 1   
    44   23   42 1   
    45   24   39 1   
    46   24   40 1   
    47   24   41 1   
    48   25   26 1   
    49   25   52 1   
    50   25   53 1   
    51   26   54 1   
    52   26   55 1   
    53   27   28 1   
    54   27   56 1   
    55   27   57 1   
    56   28   58 1   
    57   28   59 1   
    58   29   60 1   
    59   29   61 1   
    60   29   62 1   
    61   30   31 1   
    62   30   63 1   
    63   30   64 1   
    64   31   32 ar  
    65   31   36 ar  
    66   32   33 ar  
    67   32   65 1   
    68   33   34 ar  
    69   33   66 1   
    70   34   35 ar  
    71   34   67 1   
    72   35   36 ar  
    73   35   68 1   
    74   36   69 1   
@<TRIPOS>SUBSTRUCTURE
     1 KLI         1 TEMP              0 ****  ****    0 ROOT
