@<TRIPOS>MOLECULE
KLI
   69    74     1     0     0
SMALL
bcc


@<TRIPOS>ATOM
      1 N01        -0.0990    0.0660    0.7160 na        1 KLI     -0.517800
      2 N02         4.4780    0.1610   -0.9290 nc        1 KLI     -0.647000
      3 N03         3.5390   -1.9290   -0.7680 nd        1 KLI     -0.381300
      4 N04        -3.5620    3.4670   -0.2640 nh        1 KLI     -0.619000
      5 N05        -6.1470    3.7700    1.0320 n3        1 KLI     -0.734600
      6 C06        -1.4410    3.4140   -1.5170 ca        1 KLI      0.116900
      7 C07        -2.2820    2.8670   -0.5050 ca        1 KLI      0.111600
      8 C08        -1.8280    1.7550    0.2180 ca        1 KLI     -0.201000
      9 C09        -0.5690    1.1640   -0.0280 ca        1 KLI      0.175600
     10 C10         0.2490    1.7180   -1.0480 ca        1 KLI     -0.172600
     11 C11        -0.1940    2.8280   -1.7690 ca        1 KLI     -0.091000
     12 C12         1.1360   -0.4760    0.4180 cd        1 KLI      0.150000
     13 C13         1.9720    0.0190   -0.5440 cc        1 KLI     -0.318000
     14 C14         1.5720    1.1460   -1.3870 c         1 KLI      0.601900
     15 C15         3.2790   -0.5920   -0.7380 cc        1 KLI      0.612800
     16 C16         5.4170   -0.7690   -1.0710 cd        1 KLI      0.503700
     17 C17        -0.9110   -0.6010    1.7150 c3        1 KLI      0.255100
     18 C18        -1.7090   -1.7670    1.2010 ca        1 KLI     -0.132300
     19 C19        -2.9770   -1.5790    0.6490 ca        1 KLI     -0.091000
     20 C20        -3.7310   -2.6620    0.2020 ca        1 KLI     -0.096000
     21 C21        -3.2120   -3.9540    0.3040 ca        1 KLI     -0.131300
     22 C22        -1.9500   -4.1780    0.8480 ca        1 KLI     -0.116000
     23 C23        -1.1940   -3.0790    1.2970 ca        1 KLI      0.139900
     24 C24        -4.0330   -5.1380   -0.2010 c3        1 KLI      0.687200
     25 C25        -4.6690    2.5730   -0.5840 c3        1 KLI      0.174800
     26 C26        -6.0430    3.2110   -0.3090 c3        1 KLI      0.165800
     27 C27        -5.0510    4.6810    1.3270 c3        1 KLI      0.165800
     28 C28        -3.6680    4.0540    1.0670 c3        1 KLI      0.174800
     29 C29        -7.4410    4.3640    1.2830 c3        1 KLI      0.156100
     30 C30         6.8750   -0.7200   -1.3210 c3        1 KLI     -0.061400
     31 C31         7.6130   -0.0410   -0.2190 ca        1 KLI     -0.098300
     32 C32         8.4850   -0.7720    0.5960 ca        1 KLI     -0.111000
     33 C33         9.2000   -0.1310    1.6070 ca        1 KLI     -0.132000
     34 C34         9.0480    1.2400    1.8110 ca        1 KLI     -0.122000
     35 C35         8.1770    1.9710    1.0020 ca        1 KLI     -0.132000
     36 C36         7.4620    1.3350   -0.0110 ca        1 KLI     -0.111000
     37 O37         2.2450    1.5870   -2.3280 o         1 KLI     -0.531100
     38 O38         4.8280   -2.0690   -0.9650 os        1 KLI     -0.146100
     39 F39        -3.8440   -5.4200   -1.5320 f         1 KLI     -0.230967
     40 F40        -3.7730   -6.3250    0.4390 f         1 KLI     -0.230967
     41 F41        -5.3910   -4.9760   -0.0780 f         1 KLI     -0.230967
     42 F42         0.0330   -3.2940    1.8290 f         1 KLI     -0.129900
     43 F43        -1.8220    4.4880   -2.2450 f         1 KLI     -0.119900
     44 H08        -2.4930    1.3500    0.9980 ha        1 KLI      0.140000
     45 H11         0.4590    3.2460   -2.5570 ha        1 KLI      0.182000
     46 H12         1.4230   -1.3580    1.0300 h4        1 KLI      0.176000
     47 H17        -0.2170   -0.9720    2.5290 h1        1 KLI      0.080700
     48 H17A       -1.6050    0.1450    2.1940 h1        1 KLI      0.080700
     49 H19        -3.3890   -0.5590    0.5610 ha        1 KLI      0.151000
     50 H20        -4.7330   -2.5040   -0.2290 ha        1 KLI      0.162000
     51 H22        -1.5400   -5.1970    0.9310 ha        1 KLI      0.175000
     52 H25        -4.6080    2.3360   -1.6830 h1        1 KLI      0.040700
     53 H25A       -4.5990    1.6010   -0.0130 h1        1 KLI      0.040700
     54 H26        -6.8210    2.4030   -0.4080 h1        1 KLI      0.042700
     55 H26A       -6.2450    3.9880   -1.1040 h1        1 KLI      0.042700
     56 H27        -5.1300    5.6390    0.7350 h1        1 KLI      0.042700
     57 H27A       -5.1050    4.9440    2.4210 h1        1 KLI      0.042700
     58 H28        -3.4550    3.2960    1.8770 h1        1 KLI      0.040700
     59 H28A       -2.8950    4.8700    1.1410 h1        1 KLI      0.040700
     60 H29        -8.2330    3.5870    1.1160 h1        1 KLI      0.035033
     61 H29A       -7.4820    4.6970    2.3530 h1        1 KLI      0.035033
     62 H29B       -7.6630    5.2480    0.6230 h1        1 KLI      0.035033
     63 H30         7.2470   -1.7740   -1.4570 hc        1 KLI      0.086200
     64 H30A        7.0450   -0.1660   -2.2870 hc        1 KLI      0.086200
     65 H32         8.6070   -1.8550    0.4400 ha        1 KLI      0.142000
     66 H33         9.8840   -0.7110    2.2440 ha        1 KLI      0.134000
     67 H34         9.6130    1.7440    2.6090 ha        1 KLI      0.132000
     68 H35         8.0530    3.0520    1.1630 ha        1 KLI      0.134000
     69 H36         6.7680    1.9110   -0.6440 ha        1 KLI      0.142000
@<TRIPOS>BOND
     1    1    9 1   
     2    1   12 1   
     3    1   17 1   
     4    2   15 1   
     5    2   16 2   
     6    3   15 2   
     7    3   38 1   
     8    4    7 1   
     9    4   25 1   
    10    4   28 1   
    11    5   26 1   
    12    5   27 1   
    13    5   29 1   
    14    6    7 ar  
    15    6   11 ar  
    16    6   43 1   
    17    7    8 ar  
    18    8    9 ar  
    19    8   44 1   
    20    9   10 ar  
    21   10   11 ar  
    22   10   14 1   
    23   11   45 1   
    24   12   13 2   
    25   12   46 1   
    26   13   14 1   
    27   13   15 1   
    28   14   37 2   
    29   16   30 1   
    30   16   38 1   
    31   17   18 1   
    32   17   47 1   
    33   17   48 1   
    34   18   19 ar  
    35   18   23 ar  
    36   19   20 ar  
    37   19   49 1   
    38   20   21 ar  
    39   20   50 1   
    40   21   22 ar  
    41   21   24 1   
    42   22   23 ar  
    43   22   51 1   
    44   23   42 1   
    45   24   39 1   
    46   24   40 1   
    47   24   41 1   
    48   25   26 1   
    49   25   52 1   
    50   25   53 1   
    51   26   54 1   
    52   26   55 1   
    53   27   28 1   
    54   27   56 1   
    55   27   57 1   
    56   28   58 1   
    57   28   59 1   
    58   29   60 1   
    59   29   61 1   
    60   29   62 1   
    61   30   31 1   
    62   30   63 1   
    63   30   64 1   
    64   31   32 ar  
    65   31   36 ar  
    66   32   33 ar  
    67   32   65 1   
    68   33   34 ar  
    69   33   66 1   
    70   34   35 ar  
    71   34   67 1   
    72   35   36 ar  
    73   35   68 1   
    74   36   69 1   
@<TRIPOS>SUBSTRUCTURE
     1 KLI         1 TEMP              0 ****  ****    0 ROOT
