@<TRIPOS>MOLECULE
KLI
   69    74     1     0     0
SMALL
bcc


@<TRIPOS>ATOM
      1 N01         0.1550   -0.1820    0.1610 na        1 KLI     -0.517800
      2 N02        -0.2460    0.1970    4.9940 nc        1 KLI     -0.647000
      3 N03        -1.7040   -1.2770    4.0040 nd        1 KLI     -0.381300
      4 N04         4.3950    0.0670   -2.3840 nh        1 KLI     -0.619000
      5 N05         4.7060    0.3350   -5.2630 n3        1 KLI     -0.734600
      6 C06         4.3960   -0.1700    0.0690 ca        1 KLI      0.116900
      7 C07         3.6700   -0.0550   -1.1520 ca        1 KLI      0.111600
      8 C08         2.2700   -0.0700   -1.1060 ca        1 KLI     -0.201000
      9 C09         1.5610   -0.1970    0.1090 ca        1 KLI      0.175600
     10 C10         2.3030   -0.3200    1.3130 ca        1 KLI     -0.172600
     11 C11         3.6990   -0.3020    1.2760 ca        1 KLI     -0.091000
     12 C12        -0.4800   -0.3240    1.3800 cd        1 KLI      0.150000
     13 C13         0.1790   -0.4360    2.5730 cc        1 KLI     -0.318000
     14 C14         1.6410   -0.4810    2.6280 c         1 KLI      0.601900
     15 C15        -0.5870   -0.5210    3.8070 cc        1 KLI      0.612800
     16 C16        -1.1830   -0.1670    5.8640 cd        1 KLI      0.503700
     17 C17        -0.6670   -0.1420   -1.0320 c3        1 KLI      0.255100
     18 C18        -1.0710   -1.4890   -1.5640 ca        1 KLI     -0.132300
     19 C19        -0.2480   -2.1860   -2.4500 ca        1 KLI     -0.091000
     20 C20        -0.6360   -3.4200   -2.9680 ca        1 KLI     -0.096000
     21 C21        -1.8650   -3.9690   -2.5960 ca        1 KLI     -0.131300
     22 C22        -2.7090   -3.3030   -1.7130 ca        1 KLI     -0.116000
     23 C23        -2.3100   -2.0570   -1.1920 ca        1 KLI      0.139900
     24 C24        -2.2810   -5.3290   -3.1530 c3        1 KLI      0.687200
     25 C25         4.1920   -1.0750   -3.2680 c3        1 KLI      0.174800
     26 C26         4.9570   -0.9370   -4.5980 c3        1 KLI      0.165800
     27 C27         4.9380    1.4660   -4.3760 c3        1 KLI      0.165800
     28 C28         4.1720    1.3480   -3.0450 c3        1 KLI      0.174800
     29 C29         5.4250    0.4560   -6.5110 c3        1 KLI      0.156100
     30 C30        -1.4440    0.1620    7.2850 c3        1 KLI     -0.061400
     31 C31        -1.7150    1.6130    7.4860 ca        1 KLI     -0.098300
     32 C32        -2.9870    2.0410    7.8800 ca        1 KLI     -0.111000
     33 C33        -3.2330    3.3960    8.1000 ca        1 KLI     -0.132000
     34 C34        -2.2120    4.3290    7.9260 ca        1 KLI     -0.122000
     35 C35        -0.9430    3.9060    7.5300 ca        1 KLI     -0.132000
     36 C36        -0.6920    2.5530    7.3110 ca        1 KLI     -0.111000
     37 O37         2.2950   -0.6650    3.6630 o         1 KLI     -0.531100
     38 O38        -2.0910   -1.0810    5.2410 os        1 KLI     -0.146100
     39 F39        -1.8430   -6.3950   -2.4060 f         1 KLI     -0.230967
     40 F40        -3.6380   -5.5140   -3.2460 f         1 KLI     -0.230967
     41 F41        -1.8150   -5.5870   -4.4180 f         1 KLI     -0.230967
     42 F42        -3.1320   -1.4050   -0.3360 f         1 KLI     -0.129900
     43 F43         5.7480   -0.1580    0.0890 f         1 KLI     -0.119900
     44 H08         1.7280    0.0230   -2.0620 ha        1 KLI      0.140000
     45 H11         4.2580   -0.3970    2.2240 ha        1 KLI      0.182000
     46 H12        -1.5900   -0.3320    1.3340 h4        1 KLI      0.176000
     47 H17        -1.6050    0.4420   -0.7830 h1        1 KLI      0.080700
     48 H17A       -0.1300    0.4330   -1.8390 h1        1 KLI      0.080700
     49 H19         0.7250   -1.7570   -2.7420 ha        1 KLI      0.151000
     50 H20         0.0190   -3.9600   -3.6700 ha        1 KLI      0.162000
     51 H22        -3.6800   -3.7350   -1.4200 ha        1 KLI      0.175000
     52 H25         4.5790   -1.9900   -2.7370 h1        1 KLI      0.040700
     53 H25A        3.0970   -1.2390   -3.4940 h1        1 KLI      0.040700
     54 H26         4.6050   -1.7590   -5.2820 h1        1 KLI      0.042700
     55 H26A        6.0570   -1.0960   -4.4000 h1        1 KLI      0.042700
     56 H27         4.5730    2.3950   -4.8980 h1        1 KLI      0.042700
     57 H27A        6.0360    1.6030   -4.1500 h1        1 KLI      0.042700
     58 H28         3.0760    1.5330   -3.2400 h1        1 KLI      0.040700
     59 H28A        4.5450    2.1560   -2.3550 h1        1 KLI      0.040700
     60 H29         5.1240    1.4150   -7.0080 h1        1 KLI      0.035033
     61 H29A        6.5420    0.4530   -6.3860 h1        1 KLI      0.035033
     62 H29B        5.1380   -0.4010   -7.1760 h1        1 KLI      0.035033
     63 H30        -2.3150   -0.4560    7.6370 hc        1 KLI      0.085700
     64 H30A       -0.5390   -0.1400    7.8840 hc        1 KLI      0.085700
     65 H32        -3.7970    1.3080    8.0160 ha        1 KLI      0.142000
     66 H33        -4.2350    3.7260    8.4100 ha        1 KLI      0.134000
     67 H34        -2.4070    5.3980    8.0990 ha        1 KLI      0.132000
     68 H35        -0.1360    4.6410    7.3900 ha        1 KLI      0.134000
     69 H36         0.3080    2.2200    6.9900 ha        1 KLI      0.142000
@<TRIPOS>BOND
     1    1    9 1   
     2    1   12 1   
     3    1   17 1   
     4    2   15 1   
     5    2   16 2   
     6    3   15 2   
     7    3   38 1   
     8    4    7 1   
     9    4   25 1   
    10    4   28 1   
    11    5   26 1   
    12    5   27 1   
    13    5   29 1   
    14    6    7 ar  
    15    6   11 ar  
    16    6   43 1   
    17    7    8 ar  
    18    8    9 ar  
    19    8   44 1   
    20    9   10 ar  
    21   10   11 ar  
    22   10   14 1   
    23   11   45 1   
    24   12   13 2   
    25   12   46 1   
    26   13   14 1   
    27   13   15 1   
    28   14   37 2   
    29   16   30 1   
    30   16   38 1   
    31   17   18 1   
    32   17   47 1   
    33   17   48 1   
    34   18   19 ar  
    35   18   23 ar  
    36   19   20 ar  
    37   19   49 1   
    38   20   21 ar  
    39   20   50 1   
    40   21   22 ar  
    41   21   24 1   
    42   22   23 ar  
    43   22   51 1   
    44   23   42 1   
    45   24   39 1   
    46   24   40 1   
    47   24   41 1   
    48   25   26 1   
    49   25   52 1   
    50   25   53 1   
    51   26   54 1   
    52   26   55 1   
    53   27   28 1   
    54   27   56 1   
    55   27   57 1   
    56   28   58 1   
    57   28   59 1   
    58   29   60 1   
    59   29   61 1   
    60   29   62 1   
    61   30   31 1   
    62   30   63 1   
    63   30   64 1   
    64   31   32 ar  
    65   31   36 ar  
    66   32   33 ar  
    67   32   65 1   
    68   33   34 ar  
    69   33   66 1   
    70   34   35 ar  
    71   34   67 1   
    72   35   36 ar  
    73   35   68 1   
    74   36   69 1   
@<TRIPOS>SUBSTRUCTURE
     1 KLI         1 TEMP              0 ****  ****    0 ROOT
