@<TRIPOS>MOLECULE
KLJ
   37    36     1     0     0
SMALL
bcc


@<TRIPOS>ATOM
      1 C1          0.5070   -0.0360   -0.9810 c3        1 KLJ      0.044900
      2 N1         -2.1260    4.0360   -0.3350 n8        1 KLJ     -0.978800
      3 O1          5.7070   -0.7200    1.0750 os        1 KLJ     -0.302900
      4 S1         -1.4900    1.6420   -1.2370 s4        1 KLJ      1.633500
      5 C2          1.8850   -0.1820   -0.4700 ca        1 KLJ     -0.210300
      6 N2         -4.8870    6.5440   -1.4510 ny        1 KLJ     -0.459300
      7 O2         -3.1530    6.7330    0.0820 o         1 KLJ     -0.368100
      8 C3          2.1040   -0.4320    0.8960 ca        1 KLJ     -0.067500
      9 O3         -2.4860    1.2080   -0.4390 o         1 KLJ     -0.402900
     10 C4          3.3860   -0.6080    1.3840 ca        1 KLJ     -0.179000
     11 O4         -5.1800    5.7280   -2.4870 oh        1 KLJ     -0.370300
     12 C5          4.4840   -0.5380    0.4940 ca        1 KLJ      0.187100
     13 O5         -1.7320    2.1780   -2.4520 o         1 KLJ     -0.402900
     14 C6          2.9770   -0.1140   -1.3430 ca        1 KLJ     -0.067500
     15 C7          4.2740   -0.2900   -0.8730 ca        1 KLJ     -0.179000
     16 C8          0.0130    1.4350   -0.7780 c3        1 KLJ     -0.573100
     17 C9          6.8430   -0.7410    0.2080 c3        1 KLJ      0.104700
     18 C10        -3.6540    5.9660   -0.7160 c         1 KLJ      0.533100
     19 C11        -3.2400    4.5520   -1.0910 c3        1 KLJ      0.096800
     20 H1          0.4700   -0.2750   -2.0770 hc        1 KLJ      0.075700
     21 H1A        -0.1870   -0.7190   -0.4210 hc        1 KLJ      0.075700
     22 HN1        -1.3320    4.6540   -0.3860 hn        1 KLJ      0.411800
     23 H3          1.2480   -0.5110    1.5840 ha        1 KLJ      0.133000
     24 H4          3.5730   -0.8160    2.4500 ha        1 KLJ      0.170000
     25 H6          2.8170    0.0640   -2.4190 ha        1 KLJ      0.133000
     26 H7          5.1210   -0.2470   -1.5730 ha        1 KLJ      0.170000
     27 H8          0.7970    2.0620   -1.3120 h1        1 KLJ      0.213700
     28 H8A         0.2410    1.6330    0.3190 h1        1 KLJ      0.213700
     29 H9          6.7480   -1.5610   -0.5430 h1        1 KLJ      0.063367
     30 H9A         6.9670    0.2490   -0.2920 h1        1 KLJ      0.063367
     31 H9B         7.6920   -0.9410    0.9130 h1        1 KLJ      0.063367
     32 H11        -2.9720    4.5550   -2.1960 h1        1 KLJ      0.146200
     33 H11A       -4.1380    3.8740   -0.9560 h1        1 KLJ      0.146200
     34 H15        -5.6830    6.5940   -0.7830 hn        1 KLJ      0.485300
     35 H16        -5.9300    6.1110   -3.0050 ho        1 KLJ      0.499000
     36 H12        -2.3740    3.9020    0.6340 hn        1 KLJ      0.411800
     37 H22        -4.6650    7.5070   -1.7760 hn        1 KLJ      0.485300
@<TRIPOS>BOND
     1    1    5 1   
     2    1   16 1   
     3    1   20 1   
     4    1   21 1   
     5    2   19 1   
     6    2   22 1   
     7    2   36 1   
     8    3   12 1   
     9    3   17 1   
    10    4    9 1   
    11    4   13 1   
    12    4   16 1   
    13    5    8 ar  
    14    5   14 ar  
    15    6   11 1   
    16    6   18 1   
    17    6   34 1   
    18    6   37 1   
    19    7   18 2   
    20    8   10 ar  
    21    8   23 1   
    22   10   12 ar  
    23   10   24 1   
    24   11   35 1   
    25   12   15 ar  
    26   14   15 ar  
    27   14   25 1   
    28   15   26 1   
    29   16   27 1   
    30   16   28 1   
    31   17   29 1   
    32   17   30 1   
    33   17   31 1   
    34   18   19 1   
    35   19   32 1   
    36   19   33 1   
@<TRIPOS>SUBSTRUCTURE
     1 KLJ         1 TEMP              0 ****  ****    0 ROOT
