@<TRIPOS>MOLECULE
KLJ
   37    36     1     0     0
SMALL
bcc


@<TRIPOS>ATOM
      1 C1          0.3620   -0.0680   -0.5680 c3        1 KLJ      0.044900
      2 N1         -1.9110    4.2630   -0.4720 n3        1 KLJ     -0.978800
      3 O1          5.8020   -0.7410    0.7310 os        1 KLJ     -0.302900
      4 S1         -1.5630    1.6830   -0.8790 s4        1 KLJ      1.633500
      5 C2          1.7990   -0.2190   -0.2650 ca        1 KLJ     -0.210300
      6 N2         -4.7520    6.6690   -1.6110 n4        1 KLJ     -0.459300
      7 O2         -2.7420    7.0560   -0.5150 o         1 KLJ     -0.367100
      8 C3          2.2430   -0.1830    1.0690 ca        1 KLJ     -0.067500
      9 O3         -2.4220    1.5240    0.1480 o         1 KLJ     -0.402900
     10 C4          3.5810   -0.3600    1.3730 ca        1 KLJ     -0.179000
     11 O4         -5.5670    5.6020   -1.7620 oh        1 KLJ     -0.370300
     12 C5          4.5070   -0.5830    0.3270 ca        1 KLJ      0.187100
     13 O5         -1.9920    1.9570   -2.1300 o         1 KLJ     -0.402900
     14 C6          2.7230   -0.4400   -1.2930 ca        1 KLJ     -0.067500
     15 C7          4.0720   -0.6230   -1.0080 ca        1 KLJ     -0.179000
     16 C8         -0.0150    1.4490   -0.6350 c3        1 KLJ     -0.573100
     17 C9          6.7660   -1.0510   -0.2780 c3        1 KLJ      0.104700
     18 C10        -3.4170    6.1740   -1.0060 c         1 KLJ      0.533100
     19 C11        -3.1350    4.6840   -1.1070 c3        1 KLJ      0.095800
     20 H1         -0.2560   -0.5480    0.2390 hc        1 KLJ      0.076200
     21 H1A         0.1210   -0.5380   -1.5580 hc        1 KLJ      0.076200
     22 HN1        -1.1210    4.7840   -0.8190 hn        1 KLJ      0.411800
     23 H3          1.5190   -0.0340    1.8850 ha        1 KLJ      0.133000
     24 H4          3.9410   -0.3450    2.4140 ha        1 KLJ      0.170000
     25 H6          2.3850   -0.4890   -2.3400 ha        1 KLJ      0.133000
     26 H7          4.7840   -0.8090   -1.8260 ha        1 KLJ      0.170000
     27 H8          0.6910    1.8710   -1.4190 h1        1 KLJ      0.214200
     28 H8A         0.4140    1.8640    0.3350 h1        1 KLJ      0.214200
     29 H9          6.4990   -2.0040   -0.7950 h1        1 KLJ      0.063367
     30 H9A         7.7140   -1.1660    0.3080 h1        1 KLJ      0.063367
     31 H9B         6.8490   -0.2090   -1.0070 h1        1 KLJ      0.063367
     32 H11        -4.0120    4.1330   -0.6420 h1        1 KLJ      0.146200
     33 H11A       -3.0960    4.4080   -2.2070 h1        1 KLJ      0.146200
     34 H15        -4.5590    7.1180   -2.5290 hn        1 KLJ      0.485300
     35 H16        -6.4560    5.9080   -2.0690 ho        1 KLJ      0.499000
     36 H12        -1.9630    4.3790    0.5290 hn        1 KLJ      0.411800
     37 H22        -5.1680    7.3800   -0.9730 hn        1 KLJ      0.485300
@<TRIPOS>BOND
     1    1    5 1   
     2    1   16 1   
     3    1   20 1   
     4    1   21 1   
     5    2   19 1   
     6    2   22 1   
     7    2   36 1   
     8    3   12 1   
     9    3   17 1   
    10    4    9 1   
    11    4   13 1   
    12    4   16 1   
    13    5    8 ar  
    14    5   14 ar  
    15    6   11 1   
    16    6   18 1   
    17    6   34 1   
    18    6   37 1   
    19    7   18 2   
    20    8   10 ar  
    21    8   23 1   
    22   10   12 ar  
    23   10   24 1   
    24   11   35 1   
    25   12   15 ar  
    26   14   15 ar  
    27   14   25 1   
    28   15   26 1   
    29   16   27 1   
    30   16   28 1   
    31   17   29 1   
    32   17   30 1   
    33   17   31 1   
    34   18   19 1   
    35   19   32 1   
    36   19   33 1   
@<TRIPOS>SUBSTRUCTURE
     1 KLJ         1 TEMP              0 ****  ****    0 ROOT
