@<TRIPOS>MOLECULE
KLJ
   35    32     1     0     0
SMALL
bcc


@<TRIPOS>ATOM
      1 C1         -0.1250   -1.3140   -0.8800 c3        1 KLJ     -0.090000
      2 N1         -2.8760    1.4920    0.0650 n3        1 KLJ     -0.881000
      3 O1          5.5120   -1.4560   -1.3240 os        1 KLJ     -0.210000
      4 S1         -2.4190    0.0810   -0.5530 s4        1 KLJ      2.028800
      5 C2          1.4530   -1.2450   -0.8860 c2        1 KLJ     -0.109000
      6 N2         -5.4780    2.2820    2.6740 n         1 KLJ     -0.190000
      7 O2         -3.3950    3.0830    2.1590 o         1 KLJ     -0.315000
      8 C3          2.1760   -1.4990   -2.0500 c2        1 KLJ     -0.093000
      9 O3         -2.7440   -0.9580    0.2840 o         1 KLJ     -0.536900
     10 C4          3.5760   -1.5650   -2.0050 c1        1 KLJ     -0.154000
     11 O4         -5.6640    3.1640    3.7940 oh        1 KLJ     -0.237000
     12 C5          4.2480   -1.3770   -0.7880 c2        1 KLJ      0.082000
     13 O5         -3.2020   -0.2490   -1.7330 o         1 KLJ     -0.536900
     14 C6          2.1270   -1.0550    0.3320 c1        1 KLJ     -0.088000
     15 C7          3.5240   -1.1220    0.3760 c1        1 KLJ     -0.203000
     16 C8         -0.6840    0.1030   -0.9200 c2        1 KLJ     -0.865000
     17 C9          6.5470   -1.2470   -0.3830 c3        1 KLJ     -0.076000
     18 C10        -4.3240    2.4580    1.7910 c2        1 KLJ      0.206000
     19 C11        -4.2600    1.7000    0.4360 c3        1 KLJ     -0.031000
     20 H1         -0.4310   -1.7680   -0.0610 hc        1 KLJ      0.106000
     21 H1A        -0.4230   -1.7930   -1.6370 hc        1 KLJ      0.106000
     22 HN1        -2.2020    2.1880    0.2660 hn        1 KLJ      0.258000
     23 H3          1.6860   -1.6350   -2.9340 ha        1 KLJ      0.136000
     24 H4          4.0740   -1.7370   -2.8050 DU        1 KLJ      0.151000
     25 H6          1.6230   -0.8780    1.1420 ha        1 KLJ      0.134000
     26 H7          4.0110   -0.9860    1.2610 ha        1 KLJ      0.138000
     27 H8         -0.2360    0.6360   -0.2800 ha        1 KLJ      0.156000
     28 H8A        -0.5500    0.4710   -1.7890 ha        1 KLJ      0.156000
     29 H9          6.4610   -1.8500    0.3030 h1        1 KLJ      0.084333
     30 H9A         6.4840   -0.3000   -0.0140 h1        1 KLJ      0.084333
     31 H9B         7.3990   -1.3700   -0.8110 h1        1 KLJ      0.084333
     32 H11        -4.6980    0.8510    0.5210 h1        1 KLJ      0.126500
     33 H11A       -4.7030    2.2270   -0.2500 h1        1 KLJ      0.126500
     34 H15        -6.0520    1.6950    2.5030 hn        1 KLJ      0.216000
     35 H16        -6.4360    2.9750    4.1970 ho        1 KLJ      0.236000
@<TRIPOS>BOND
     1    1    5 1   
     2    1   16 1   
     3    1   20 1   
     4    1   21 1   
     5    2    4 1   
     6    2   19 1   
     7    2   22 1   
     8    3   12 1   
     9    3   17 1   
    10    4    9 1   
    11    4   13 1   
    12    5    8 1   
    13    5   14 1   
    14    6   11 1   
    15    6   18 1   
    16    6   34 1   
    17    7   18 1   
    18    8   10 1   
    19    8   23 1   
    20   10   12 1   
    21   11   35 1   
    22   12   15 1   
    23   14   25 1   
    24   15   26 1   
    25   16   27 1   
    26   16   28 1   
    27   17   29 1   
    28   17   30 1   
    29   17   31 1   
    30   18   19 1   
    31   19   32 1   
    32   19   33 1   
@<TRIPOS>SUBSTRUCTURE
     1 KLJ         1 TEMP              0 ****  ****    0 ROOT
