@<TRIPOS>MOLECULE
KLJ
   35    35     1     0     0
SMALL
bcc


@<TRIPOS>ATOM
      1 C1          1.1670   -1.1480   -0.5440 c3        1 KLJ     -0.005100
      2 N1         -2.4900   -0.0500    0.5630 n3        1 KLJ     -0.918100
      3 O1          6.2660    0.9890    0.6570 os        1 KLJ     -0.326900
      4 S1         -1.4780   -1.0370   -0.2290 s6        1 KLJ      1.457900
      5 C2          2.5060   -0.5690   -0.2590 ca        1 KLJ     -0.117300
      6 N2         -5.5270    1.7180   -0.6270 n         1 KLJ     -0.346400
      7 O2         -5.0820    0.7540    1.4410 o         1 KLJ     -0.552100
      8 C3          3.1190   -0.7930    0.9820 ca        1 KLJ     -0.091000
      9 O3         -1.5240   -2.3170    0.3530 o         1 KLJ     -0.648300
     10 C4          4.3720   -0.2640    1.2620 ca        1 KLJ     -0.178500
     11 O4         -6.8280    1.4940   -0.4320 oh        1 KLJ     -0.431100
     12 C5          5.0270    0.5050    0.2810 ca        1 KLJ      0.126100
     13 O5         -1.7110   -0.9390   -1.6170 o         1 KLJ     -0.648300
     14 C6          3.1690    0.1950   -1.2220 ca        1 KLJ     -0.091000
     15 C7          4.4290    0.7350   -0.9620 ca        1 KLJ     -0.178500
     16 C8          0.0580   -0.3450    0.1110 c3        1 KLJ     -0.319600
     17 C9          6.9680    1.7440   -0.3230 c3        1 KLJ      0.113700
     18 C10        -4.6650    1.0910    0.3220 c         1 KLJ      0.572100
     19 C11        -3.1730    1.0530   -0.0350 c3        1 KLJ      0.157800
     20 H1          0.9900   -1.1790   -1.6550 hc        1 KLJ      0.067700
     21 H1A         1.1280   -2.2060   -0.1620 hc        1 KLJ      0.067700
     22 HN1        -2.7650   -0.2200    1.5050 hn        1 KLJ      0.469800
     23 H3          2.6020   -1.4000    1.7410 ha        1 KLJ      0.135500
     24 H4          4.8610   -0.4360    2.2310 ha        1 KLJ      0.145000
     25 H6          2.6990    0.3720   -2.2020 ha        1 KLJ      0.135500
     26 H7          4.9340    1.3310   -1.7340 ha        1 KLJ      0.145000
     27 H8          0.2670   -0.3010    1.2130 h1        1 KLJ      0.113200
     28 H8A         0.1330    0.7140   -0.2500 h1        1 KLJ      0.113200
     29 H9          7.9270    2.0090    0.1920 h1        1 KLJ      0.045033
     30 H9A         7.1670    1.1250   -1.2320 h1        1 KLJ      0.045033
     31 H9B         6.3990    2.6660   -0.5940 h1        1 KLJ      0.045033
     32 H11        -2.7430    2.0300    0.3380 h1        1 KLJ      0.078200
     33 H11A       -3.0340    1.0090   -1.1550 h1        1 KLJ      0.078200
     34 H15        -5.3120    1.4560   -1.5840 hn        1 KLJ      0.305500
     35 H16        -7.0770    2.0200    0.3540 ho        1 KLJ      0.436000
@<TRIPOS>BOND
     1    1    5 1   
     2    1   16 1   
     3    1   20 1   
     4    1   21 1   
     5    2    4 1   
     6    2   19 1   
     7    2   22 1   
     8    3   12 1   
     9    3   17 1   
    10    4    9 2   
    11    4   13 2   
    12    4   16 1   
    13    5    8 ar  
    14    5   14 ar  
    15    6   11 1   
    16    6   18 1   
    17    6   34 1   
    18    7   18 2   
    19    8   10 ar  
    20    8   23 1   
    21   10   12 ar  
    22   10   24 1   
    23   11   35 1   
    24   12   15 ar  
    25   14   15 ar  
    26   14   25 1   
    27   15   26 1   
    28   16   27 1   
    29   16   28 1   
    30   17   29 1   
    31   17   30 1   
    32   17   31 1   
    33   18   19 1   
    34   19   32 1   
    35   19   33 1   
@<TRIPOS>SUBSTRUCTURE
     1 KLJ         1 TEMP              0 ****  ****    0 ROOT
