@<TRIPOS>MOLECULE
KLJ
   37    36     1     0     0
SMALL
bcc


@<TRIPOS>ATOM
      1 C1          0.4600   -0.0510   -0.9090 c3        1 KLJ      0.044900
      2 N1         -2.0760    4.0890   -0.3090 n3        1 KLJ     -0.978800
      3 O1          5.7390   -0.7430    0.9320 os        1 KLJ     -0.302900
      4 S1         -1.5210    1.6500   -1.1380 s4        1 KLJ      1.633500
      5 C2          1.8580   -0.2000   -0.4570 ca        1 KLJ     -0.210300
      6 N2         -4.8560    6.5910   -1.3910 n4        1 KLJ     -0.459300
      7 O2         -3.0420    6.8180    0.0420 o         1 KLJ     -0.368100
      8 C3          2.1370   -0.4010    0.9070 ca        1 KLJ     -0.067500
      9 O3         -2.4850    1.2660   -0.2770 o         1 KLJ     -0.402900
     10 C4          3.4380   -0.5800    1.3430 ca        1 KLJ     -0.179000
     11 O4         -5.2180    5.7330   -2.3680 oh        1 KLJ     -0.370300
     12 C5          4.4940   -0.5620    0.4010 ca        1 KLJ      0.187100
     13 O5         -1.8120    2.1390   -2.3620 o         1 KLJ     -0.402900
     14 C6          2.9090   -0.1840   -1.3810 ca        1 KLJ     -0.067500
     15 C7          4.2240   -0.3640   -0.9630 ca        1 KLJ     -0.179000
     16 C8         -0.0010    1.4350   -0.7420 c3        1 KLJ     -0.573100
     17 C9          6.8340   -0.8160    0.0150 c3        1 KLJ      0.104700
     18 C10        -3.5940    6.0260   -0.6950 c         1 KLJ      0.533100
     19 C11        -3.2200    4.5910   -1.0290 c3        1 KLJ      0.096800
     20 H1          0.3680   -0.3310   -1.9920 hc        1 KLJ      0.076200
     21 H1A        -0.2170   -0.7000   -0.2910 hc        1 KLJ      0.076200
     22 HN1        -1.2770    4.6910   -0.4280 hn        1 KLJ      0.411800
     23 H3          1.3130   -0.4390    1.6370 ha        1 KLJ      0.133000
     24 H4          3.6700   -0.7490    2.4060 ha        1 KLJ      0.170000
     25 H6          2.7020   -0.0450   -2.4540 ha        1 KLJ      0.133000
     26 H7          5.0380   -0.3630   -1.7030 ha        1 KLJ      0.170000
     27 H8          0.7660    2.0270   -1.3360 h1        1 KLJ      0.213700
     28 H8A         0.2810    1.6730    0.3350 h1        1 KLJ      0.213700
     29 H9          6.6910   -1.6630   -0.6980 h1        1 KLJ      0.063367
     30 H9A         6.9490    0.1520   -0.5290 h1        1 KLJ      0.063367
     31 H9B         7.7110   -1.0030    0.6870 h1        1 KLJ      0.063367
     32 H11        -3.0100    4.5420   -2.1450 h1        1 KLJ      0.146200
     33 H11A       -4.1190    3.9340   -0.8190 h1        1 KLJ      0.146200
     34 H15        -5.6120    6.6890   -0.6840 hn        1 KLJ      0.485300
     35 H16        -5.9900    6.1050   -2.8630 ho        1 KLJ      0.499000
     36 H12        -2.2750    4.0020    0.6760 hn        1 KLJ      0.411800
     37 H22        -4.6350    7.5340   -1.7740 hn        1 KLJ      0.485300
@<TRIPOS>BOND
     1    1    5 1   
     2    1   16 1   
     3    1   20 1   
     4    1   21 1   
     5    2   19 1   
     6    2   22 1   
     7    2   36 1   
     8    3   12 1   
     9    3   17 1   
    10    4    9 1   
    11    4   13 1   
    12    4   16 1   
    13    5    8 ar  
    14    5   14 ar  
    15    6   11 1   
    16    6   18 1   
    17    6   34 1   
    18    6   37 1   
    19    7   18 2   
    20    8   10 ar  
    21    8   23 1   
    22   10   12 ar  
    23   10   24 1   
    24   11   35 1   
    25   12   15 ar  
    26   14   15 ar  
    27   14   25 1   
    28   15   26 1   
    29   16   27 1   
    30   16   28 1   
    31   17   29 1   
    32   17   30 1   
    33   17   31 1   
    34   18   19 1   
    35   19   32 1   
    36   19   33 1   
@<TRIPOS>SUBSTRUCTURE
     1 KLJ         1 TEMP              0 ****  ****    0 ROOT
