@<TRIPOS>MOLECULE
KLN
   64    68     1     0     0
SMALL
bcc


@<TRIPOS>ATOM
      1 N1          0.0480   -0.1530    0.0810 na        1 KLN     -0.206900
      2 C1          1.4330   -0.3900    0.0140 cc        1 KLN      0.391400
      3 N2          2.0000   -0.3240    1.2360 nd        1 KLN     -0.671000
      4 C2          0.9630   -0.0380    2.1240 cd        1 KLN      0.282200
      5 C3         -0.2550    0.0670    1.4300 cc        1 KLN     -0.255600
      6 C4         -0.8660   -0.1050   -1.0150 c3        1 KLN      0.021300
      7 C5         -1.2530   -1.4880   -1.6310 c3        1 KLN      0.384900
      8 O1         -1.9290   -2.2640   -0.6440 os        1 KLN     -0.418600
      9 C6         -1.1470   -3.4100   -0.2620 c3        1 KLN      0.118100
     10 C7          0.1470   -3.2920   -1.0710 c3        1 KLN      0.109400
     11 O2         -0.0560   -2.1920   -1.9660 os        1 KLN     -0.428600
     12 C8         -2.1320   -1.3270   -2.8580 ca        1 KLN     -0.083300
     13 C9         -2.5220   -2.4170   -3.6560 ca        1 KLN      0.069400
     14 C10        -3.3300   -2.2330   -4.7870 ca        1 KLN     -0.130000
     15 C11        -3.7660   -0.9540   -5.1290 ca        1 KLN      0.036400
     16 C12        -3.4010    0.1410   -4.3420 ca        1 KLN     -0.130000
     17 C13        -2.5970   -0.0550   -3.2230 ca        1 KLN     -0.103000
     18 CL1        -4.7410   -0.7310   -6.4990 cl        1 KLN     -0.074400
     19 C14        -0.9170   -3.3860    1.2470 c3        1 KLN      0.114400
     20 O3         -1.9400   -4.2180    1.8040 os        1 KLN     -0.328900
     21 C15        -2.0290   -4.2100    3.1840 ca        1 KLN      0.103100
     22 C16        -3.1670   -4.8510    3.7080 ca        1 KLN     -0.156500
     23 C17        -3.3400   -4.9320    5.0800 ca        1 KLN     -0.131000
     24 C18        -2.3920   -4.3690    5.9710 ca        1 KLN      0.095600
     25 C19        -1.2660   -3.7250    5.4210 ca        1 KLN     -0.131000
     26 C20        -1.0790   -3.6520    4.0420 ca        1 KLN     -0.156500
     27 N3         -2.5770   -4.5430    7.3700 nh        1 KLN     -0.629000
     28 C21        -1.4290   -4.2390    8.2060 c3        1 KLN      0.158800
     29 C22        -1.6660   -4.6330    9.6840 c3        1 KLN      0.082500
     30 N4         -2.9050   -4.1260   10.2230 n         1 KLN     -0.466800
     31 C23        -4.0530   -4.3670    9.3750 c3        1 KLN      0.082500
     32 C24        -3.8200   -3.9910    7.8940 c3        1 KLN      0.158800
     33 C25        -2.9560   -3.1440   11.2090 c         1 KLN      0.655100
     34 O4         -4.0370   -2.5750   11.4680 o         1 KLN     -0.606100
     35 C26        -1.7190   -2.8300   12.0120 c3        1 KLN     -0.170100
     36 CL2        -2.0730   -4.0240   -3.3300 cl        1 KLN     -0.076400
     37 H1          1.9400   -0.6070   -0.9330 h5        1 KLN      0.071100
     38 H3         -1.2660    0.2760    1.7740 h4        1 KLN      0.182000
     39 H4C1       -0.3920    0.5020   -1.8390 h1        1 KLN      0.080200
     40 H4C2       -1.8170    0.3820   -0.6590 h1        1 KLN      0.080200
     41 H2          1.1450    0.0810    3.1910 h4        1 KLN      0.042100
     42 H6         -1.7530   -4.3130   -0.5470 h1        1 KLN      0.099700
     43 H7C1        1.0400   -3.0490   -0.4380 h1        1 KLN      0.071700
     44 H7C2        0.3440   -4.1900   -1.7080 h1        1 KLN      0.071700
     45 H141        0.0860   -3.8230    1.4980 h1        1 KLN      0.061200
     46 H142       -1.0000   -2.3420    1.6510 h1        1 KLN      0.061200
     47 H13        -2.3440    0.8390   -2.6320 ha        1 KLN      0.141000
     48 H10        -3.6200   -3.1010   -5.4020 ha        1 KLN      0.166000
     49 H12        -3.7470    1.1540   -4.6000 ha        1 KLN      0.155000
     50 H20        -0.1830   -3.1500    3.6490 ha        1 KLN      0.146000
     51 H16        -3.9040   -5.2880    3.0190 ha        1 KLN      0.146000
     52 H19        -0.5030   -3.2690    6.0700 ha        1 KLN      0.137000
     53 H17        -4.2270   -5.4540    5.4720 ha        1 KLN      0.137000
     54 H211       -1.1560   -3.1440    8.1660 h1        1 KLN      0.044950
     55 H212       -0.5510   -4.8350    7.8280 h1        1 KLN      0.044950
     56 H241       -4.6770   -4.4090    7.2980 h1        1 KLN      0.044950
     57 H242       -3.8430   -2.8670    7.7950 h1        1 KLN      0.044950
     58 H221       -0.7850   -4.2670   10.2780 h1        1 KLN      0.065700
     59 H222       -1.6970   -5.7590    9.7580 h1        1 KLN      0.065700
     60 H231       -4.9360   -3.7760    9.7500 h1        1 KLN      0.065700
     61 H232       -4.2990   -5.4650    9.4400 h1        1 KLN      0.065700
     62 H261       -2.0040   -2.1380   12.8420 hc        1 KLN      0.066033
     63 H262       -1.2790   -3.7570   12.4510 hc        1 KLN      0.066033
     64 H263       -0.9570   -2.3260   11.3700 hc        1 KLN      0.066033
@<TRIPOS>BOND
     1    1    2 1   
     2    1    5 1   
     3    1    6 1   
     4    2    3 2   
     5    2   37 1   
     6    3    4 1   
     7    4    5 2   
     8    4   41 1   
     9    5   38 1   
    10    6    7 1   
    11    6   39 1   
    12    6   40 1   
    13    7    8 1   
    14    7   11 1   
    15    7   12 1   
    16    8    9 1   
    17    9   10 1   
    18    9   19 1   
    19    9   42 1   
    20   10   11 1   
    21   10   43 1   
    22   10   44 1   
    23   12   13 ar  
    24   12   17 ar  
    25   13   14 ar  
    26   13   36 1   
    27   14   15 ar  
    28   14   48 1   
    29   15   16 ar  
    30   15   18 1   
    31   16   17 ar  
    32   16   49 1   
    33   17   47 1   
    34   19   20 1   
    35   19   45 1   
    36   19   46 1   
    37   20   21 1   
    38   21   22 ar  
    39   21   26 ar  
    40   22   23 ar  
    41   22   51 1   
    42   23   24 ar  
    43   23   53 1   
    44   24   25 ar  
    45   24   27 1   
    46   25   26 ar  
    47   25   52 1   
    48   26   50 1   
    49   27   28 1   
    50   27   32 1   
    51   28   29 1   
    52   28   54 1   
    53   28   55 1   
    54   29   30 1   
    55   29   58 1   
    56   29   59 1   
    57   30   31 1   
    58   30   33 1   
    59   31   32 1   
    60   31   60 1   
    61   31   61 1   
    62   32   56 1   
    63   32   57 1   
    64   33   34 2   
    65   33   35 1   
    66   35   62 1   
    67   35   63 1   
    68   35   64 1   
@<TRIPOS>SUBSTRUCTURE
     1 KLN         1 TEMP              0 ****  ****    0 ROOT
