@<TRIPOS>MOLECULE
KLN
   64    68     1     0     0
SMALL
bcc


@<TRIPOS>ATOM
      1 N1          0.0570   -0.1590    0.0780 na        1 KLN     -0.206900
      2 C1          1.4400   -0.4050    0.0100 cc        1 KLN      0.391400
      3 N2          2.0090   -0.3420    1.2310 nd        1 KLN     -0.671000
      4 C2          0.9740   -0.0500    2.1210 cd        1 KLN      0.282200
      5 C3         -0.2440    0.0630    1.4270 cc        1 KLN     -0.255600
      6 C4         -0.8570   -0.1070   -1.0180 c3        1 KLN      0.021300
      7 C5         -1.2530   -1.4870   -1.6330 c3        1 KLN      0.384900
      8 O1         -1.9330   -2.2590   -0.6440 os        1 KLN     -0.418600
      9 C6         -1.1570   -3.4090   -0.2630 c3        1 KLN      0.118100
     10 C7          0.1360   -3.2990   -1.0730 c3        1 KLN      0.109400
     11 O2         -0.0610   -2.1980   -1.9680 os        1 KLN     -0.428600
     12 C8         -2.1320   -1.3220   -2.8580 ca        1 KLN     -0.083300
     13 C9         -2.5300   -2.4090   -3.6560 ca        1 KLN      0.069400
     14 C10        -3.3380   -2.2220   -4.7860 ca        1 KLN     -0.130000
     15 C11        -3.7660   -0.9400   -5.1290 ca        1 KLN      0.036400
     16 C12        -3.3940    0.1530   -4.3420 ca        1 KLN     -0.130000
     17 C13        -2.5900   -0.0470   -3.2240 ca        1 KLN     -0.103000
     18 Cl1        -4.7420   -0.7120   -6.4970 cl        1 KLN     -0.074400
     19 C14        -0.9260   -3.3860    1.2460 c3        1 KLN      0.114400
     20 O3         -1.9520   -4.2130    1.8040 os        1 KLN     -0.328900
     21 C15        -2.0380   -4.2070    3.1850 ca        1 KLN      0.103100
     22 C16        -3.1770   -4.8460    3.7100 ca        1 KLN     -0.156500
     23 C17        -3.3480   -4.9270    5.0820 ca        1 KLN     -0.131000
     24 C18        -2.3970   -4.3670    5.9710 ca        1 KLN      0.095600
     25 C19        -1.2700   -3.7260    5.4200 ca        1 KLN     -0.131000
     26 C20        -1.0850   -3.6520    4.0410 ca        1 KLN     -0.156500
     27 N3         -2.5790   -4.5430    7.3710 nh        1 KLN     -0.629000
     28 C21        -1.4290   -4.2420    8.2050 c3        1 KLN      0.158800
     29 C22        -1.6640   -4.6360    9.6840 c3        1 KLN      0.082500
     30 N4         -2.9010   -4.1280   10.2250 n         1 KLN     -0.466800
     31 C23        -4.0510   -4.3640    9.3790 c3        1 KLN      0.082500
     32 C24        -3.8200   -3.9880    7.8980 c3        1 KLN      0.158800
     33 C25        -2.9480   -3.1460   11.2120 c         1 KLN      0.655100
     34 O4         -4.0260   -2.5750   11.4730 o         1 KLN     -0.606100
     35 C26        -1.7080   -2.8350   12.0130 c3        1 KLN     -0.170100
     36 Cl2        -2.0900   -4.0200   -3.3290 cl        1 KLN     -0.076400
     37 H1          1.9450   -0.6250   -0.9370 h5        1 KLN      0.071100
     38 H3         -1.2540    0.2770    1.7720 h4        1 KLN      0.182000
     39 H4C1       -0.3810    0.4970   -1.8420 h1        1 KLN      0.080200
     40 H4C2       -1.8050    0.3860   -0.6610 h1        1 KLN      0.080200
     41 H2          1.1570    0.0690    3.1870 h4        1 KLN      0.042100
     42 H6         -1.7690   -4.3090   -0.5470 h1        1 KLN      0.099700
     43 H7C1        0.3270   -4.1990   -1.7100 h1        1 KLN      0.071700
     44 H7C2        1.0310   -3.0620   -0.4410 h1        1 KLN      0.071700
     45 H141       -1.0040   -2.3420    1.6500 h1        1 KLN      0.061200
     46 H142        0.0750   -3.8270    1.4970 h1        1 KLN      0.061200
     47 H13        -2.3310    0.8450   -2.6330 ha        1 KLN      0.141000
     48 H10        -3.6340   -3.0880   -5.4000 ha        1 KLN      0.166000
     49 H12        -3.7340    1.1680   -4.6010 ha        1 KLN      0.155000
     50 H20        -0.1890   -3.1520    3.6470 ha        1 KLN      0.146000
     51 H16        -3.9160   -5.2800    3.0220 ha        1 KLN      0.146000
     52 H19        -0.5050   -3.2720    6.0690 ha        1 KLN      0.137000
     53 H17        -4.2350   -5.4470    5.4760 ha        1 KLN      0.137000
     54 H211       -1.1530   -3.1470    8.1660 h1        1 KLN      0.044950
     55 H212       -0.5530   -4.8390    7.8250 h1        1 KLN      0.044950
     56 H241       -4.6790   -4.4030    7.3030 h1        1 KLN      0.044950
     57 H242       -3.8410   -2.8640    7.8000 h1        1 KLN      0.044950
     58 H221       -1.6980   -5.7620    9.7560 h1        1 KLN      0.065700
     59 H222       -0.7810   -4.2730   10.2760 h1        1 KLN      0.065700
     60 H231       -4.9320   -3.7720    9.7560 h1        1 KLN      0.065700
     61 H232       -4.2990   -5.4620    9.4440 h1        1 KLN      0.065700
     62 H261       -1.9900   -2.1420   12.8440 hc        1 KLN      0.066033
     63 H262       -1.2700   -3.7640   12.4510 hc        1 KLN      0.066033
     64 H263       -0.9470   -2.3320   11.3690 hc        1 KLN      0.066033
@<TRIPOS>BOND
     1    1    2 1   
     2    1    5 1   
     3    1    6 1   
     4    2    3 2   
     5    2   37 1   
     6    3    4 1   
     7    4    5 2   
     8    4   41 1   
     9    5   38 1   
    10    6    7 1   
    11    6   39 1   
    12    6   40 1   
    13    7    8 1   
    14    7   11 1   
    15    7   12 1   
    16    8    9 1   
    17    9   10 1   
    18    9   19 1   
    19    9   42 1   
    20   10   11 1   
    21   10   43 1   
    22   10   44 1   
    23   12   13 ar  
    24   12   17 ar  
    25   13   14 ar  
    26   13   36 1   
    27   14   15 ar  
    28   14   48 1   
    29   15   16 ar  
    30   15   18 1   
    31   16   17 ar  
    32   16   49 1   
    33   17   47 1   
    34   19   20 1   
    35   19   45 1   
    36   19   46 1   
    37   20   21 1   
    38   21   22 ar  
    39   21   26 ar  
    40   22   23 ar  
    41   22   51 1   
    42   23   24 ar  
    43   23   53 1   
    44   24   25 ar  
    45   24   27 1   
    46   25   26 ar  
    47   25   52 1   
    48   26   50 1   
    49   27   28 1   
    50   27   32 1   
    51   28   29 1   
    52   28   54 1   
    53   28   55 1   
    54   29   30 1   
    55   29   58 1   
    56   29   59 1   
    57   30   31 1   
    58   30   33 1   
    59   31   32 1   
    60   31   60 1   
    61   31   61 1   
    62   32   56 1   
    63   32   57 1   
    64   33   34 2   
    65   33   35 1   
    66   35   62 1   
    67   35   63 1   
    68   35   64 1   
@<TRIPOS>SUBSTRUCTURE
     1 KLN         1 TEMP              0 ****  ****    0 ROOT
