@<TRIPOS>MOLECULE
KLN
   64    60     1     0     0
SMALL
bcc


@<TRIPOS>ATOM
      1 N1          5.7490   -2.9650   -2.0840 n2        1 KLN     -0.152500
      2 C1          6.8180   -3.0160   -1.2490 c1        1 KLN     -0.092000
      3 N2          7.2760   -4.2870   -1.2340 n2        1 KLN     -0.152500
      4 C2          6.5070   -5.0130   -2.0450 c1        1 KLN     -0.168000
      5 C3          5.5550   -4.1890   -2.5750 c1        1 KLN     -0.168000
      6 C4          5.0500   -1.7640   -2.4980 c2        1 KLN     -0.017000
      7 C5          4.1380   -1.2550   -1.3250 c3        1 KLN      0.231000
      8 O1          3.3910   -2.1710   -0.9210 os        1 KLN     -0.270000
      9 C6          3.2200   -1.9460    0.6070 c3        1 KLN      0.010000
     10 C7          4.3760   -1.5230    1.0490 c3        1 KLN     -0.036000
     11 O2          5.0050   -0.8640   -0.0940 os        1 KLN     -0.297000
     12 C8          3.3440   -0.1050   -1.7610 c2        1 KLN     -0.119000
     13 C9          2.1690   -0.3010   -2.4670 c2        1 KLN     -0.030000
     14 C10         1.4750    0.7910   -2.9770 c1        1 KLN     -0.133000
     15 C11         1.9590    2.0720   -2.7780 c1        1 KLN     -0.044000
     16 C12         3.1400    2.2670   -2.0680 c1        1 KLN     -0.131000
     17 C13         3.8290    1.1830   -1.5620 c1        1 KLN     -0.089000
     18 CL1         1.0330    3.4390   -3.3040 cl        1 KLN      0.003000
     19 C14         2.1150   -0.8700    0.8750 c3        1 KLN     -0.041000
     20 O3          1.0040   -1.4780    1.5260 os        1 KLN     -0.218000
     21 C15        -0.2120   -0.8530    1.2700 c2        1 KLN      0.055000
     22 C16        -0.6220    0.2430    2.0590 c2        1 KLN     -0.176000
     23 C17        -1.8830    0.8020    1.8720 c1        1 KLN     -0.143000
     24 C18        -2.7430    0.2780    0.9030 c1        1 KLN      0.017000
     25 C19        -2.3360   -0.8060    0.1240 c1        1 KLN     -0.120000
     26 C20        -1.0620   -1.3710    0.3120 c1        1 KLN     -0.134000
     27 N3         -3.9780    0.9710    0.5820 n3        1 KLN     -0.231000
     28 C21        -3.7980    2.3820    0.7760 c3        1 KLN     -0.078500
     29 C22        -5.1090    3.1620    0.6120 c3        1 KLN     -0.033500
     30 N4         -6.1550    2.6200    1.4000 n         1 KLN     -0.324000
     31 C23        -6.3470    1.2230    1.2190 c3        1 KLN     -0.033500
     32 C24        -5.0530    0.4370    1.3910 c3        1 KLN     -0.078500
     33 C25        -6.9710    3.4290    2.3290 c2        1 KLN      0.298000
     34 O4         -6.7590    4.6330    2.4470 o         1 KLN     -0.366000
     35 C26        -8.1250    2.7740    3.0970 c3        1 KLN     -0.238000
     36 CL2         1.5180   -1.9180   -2.6490 cl        1 KLN      0.008000
     37 H1          7.2030   -2.2390   -0.7290 DU        1 KLN      0.186333
     38 H3          4.8510   -4.4530   -3.2070 DU        1 KLN      0.186333
     39 H4C1        5.7030   -1.0670   -2.7310 ha        1 KLN      0.122000
     40 H4C2        4.4960   -1.9620   -3.2780 ha        1 KLN      0.122000
     41 H2          6.6070   -5.9670   -2.2280 DU        1 KLN      0.186333
     42 H6          2.9900   -2.7630    1.0320 h1        1 KLN      0.140000
     43 H7C1        4.2460   -0.8840    1.7770 h1        1 KLN      0.113000
     44 H7C2        4.9210   -2.2750    1.3490 h1        1 KLN      0.113000
     45 H141        1.8300   -0.4890    0.0410 h1        1 KLN      0.096000
     46 H142        2.4740   -0.1770    1.4380 h1        1 KLN      0.096000
     47 H13         4.6610    1.3210   -1.0610 ha        1 KLN      0.164000
     48 H10         0.6650    0.6560   -3.4630 ha        1 KLN      0.165000
     49 H12         3.4810    3.1650   -1.9270 ha        1 KLN      0.156000
     50 H20        -0.7740   -2.1370   -0.2400 ha        1 KLN      0.150000
     51 H16        -0.0300    0.6030    2.7250 ha        1 KLN      0.140000
     52 H19        -2.9360   -1.1730   -0.5540 ha        1 KLN      0.140000
     53 H17        -2.1610    1.5520    2.4120 ha        1 KLN      0.137000
     54 H211       -3.4460    2.5380    1.6740 h1        1 KLN      0.084750
     55 H212       -3.1510    2.7110    0.1200 h1        1 KLN      0.084750
     56 H241       -5.2130   -0.5020    1.1310 h1        1 KLN      0.084750
     57 H242       -4.7880    0.4650    2.3270 h1        1 KLN      0.084750
     58 H221       -5.3750    3.1370   -0.3210 h1        1 KLN      0.105500
     59 H222       -4.9640    4.0760    0.8720 h1        1 KLN      0.105500
     60 H231       -6.6860    1.0690    0.3370 h1        1 KLN      0.105500
     61 H232       -7.0060    0.9010    1.8740 h1        1 KLN      0.105500
     62 H261       -8.6550    3.4630    3.5380 hc        1 KLN      0.106000
     63 H262       -8.7020    2.2660    2.4610 hc        1 KLN      0.106000
     64 H263       -7.7600    2.1560    3.7720 hc        1 KLN      0.106000
@<TRIPOS>BOND
     1    1    2 1   
     2    1    5 1   
     3    2    3 1   
     4    3    4 1   
     5    4    5 1   
     6    6    7 1   
     7    6   39 1   
     8    6   40 1   
     9    7    8 1   
    10    7   11 1   
    11    7   12 1   
    12    8    9 1   
    13    9   10 1   
    14    9   19 1   
    15    9   42 1   
    16   10   11 1   
    17   10   43 1   
    18   10   44 1   
    19   12   13 1   
    20   12   17 1   
    21   13   14 1   
    22   13   36 1   
    23   14   48 1   
    24   15   16 1   
    25   15   18 1   
    26   16   49 1   
    27   17   47 1   
    28   19   20 1   
    29   19   45 1   
    30   19   46 1   
    31   20   21 1   
    32   21   22 1   
    33   21   26 1   
    34   22   23 1   
    35   22   51 1   
    36   23   53 1   
    37   24   25 1   
    38   24   27 1   
    39   25   52 1   
    40   26   50 1   
    41   27   28 1   
    42   27   32 1   
    43   28   29 1   
    44   28   54 1   
    45   28   55 1   
    46   29   30 1   
    47   29   58 1   
    48   29   59 1   
    49   30   31 1   
    50   30   33 1   
    51   31   32 1   
    52   31   60 1   
    53   31   61 1   
    54   32   56 1   
    55   32   57 1   
    56   33   34 1   
    57   33   35 1   
    58   35   62 1   
    59   35   63 1   
    60   35   64 1   
@<TRIPOS>SUBSTRUCTURE
     1 KLN         1 TEMP              0 ****  ****    0 ROOT
