@<TRIPOS>MOLECULE
KLN
   64    68     1     0     0
SMALL
bcc


@<TRIPOS>ATOM
      1 N1          0.0570   -0.1590    0.0770 na        1 KLN     -0.206900
      2 C1          1.4400   -0.4070    0.0120 cc        1 KLN      0.391400
      3 N2          2.0070   -0.3430    1.2330 nd        1 KLN     -0.671000
      4 C2          0.9710   -0.0480    2.1210 cd        1 KLN      0.282200
      5 C3         -0.2460    0.0650    1.4250 cc        1 KLN     -0.255600
      6 C4         -0.8550   -0.1070   -1.0200 c3        1 KLN      0.021300
      7 C5         -1.2520   -1.4880   -1.6340 c3        1 KLN      0.384900
      8 O1         -1.9340   -2.2580   -0.6460 os        1 KLN     -0.418600
      9 C6         -1.1590   -3.4080   -0.2620 c3        1 KLN      0.118100
     10 C7          0.1350   -3.3010   -1.0710 c3        1 KLN      0.109400
     11 O2         -0.0600   -2.2010   -1.9670 os        1 KLN     -0.428600
     12 C8         -2.1290   -1.3230   -2.8610 ca        1 KLN     -0.083300
     13 C9         -2.5270   -2.4110   -3.6580 ca        1 KLN      0.069400
     14 C10        -3.3330   -2.2240   -4.7900 ca        1 KLN     -0.130000
     15 C11        -3.7590   -0.9430   -5.1350 ca        1 KLN      0.036400
     16 C12        -3.3860    0.1510   -4.3490 ca        1 KLN     -0.130000
     17 C13        -2.5840   -0.0480   -3.2300 ca        1 KLN     -0.103000
     18 CL1        -4.7310   -0.7140   -6.5050 cl        1 KLN     -0.074400
     19 C14        -0.9290   -3.3840    1.2470 c3        1 KLN      0.114400
     20 O3         -1.9580   -4.2090    1.8060 os        1 KLN     -0.328900
     21 C15        -2.0420   -4.2030    3.1860 ca        1 KLN      0.103100
     22 C16        -3.1800   -4.8430    3.7120 ca        1 KLN     -0.156500
     23 C17        -3.3500   -4.9260    5.0840 ca        1 KLN     -0.131000
     24 C18        -2.3990   -4.3650    5.9730 ca        1 KLN      0.095600
     25 C19        -1.2730   -3.7240    5.4220 ca        1 KLN     -0.131000
     26 C20        -1.0890   -3.6490    4.0420 ca        1 KLN     -0.156500
     27 N3         -2.5810   -4.5420    7.3730 nh        1 KLN     -0.629000
     28 C21        -1.4300   -4.2410    8.2060 c3        1 KLN      0.158800
     29 C22        -1.6640   -4.6360    9.6840 c3        1 KLN      0.082500
     30 N4         -2.9000   -4.1290   10.2270 n         1 KLN     -0.465800
     31 C23        -4.0510   -4.3660    9.3820 c3        1 KLN      0.082500
     32 C24        -3.8210   -3.9880    7.9010 c3        1 KLN      0.158800
     33 C25        -2.9470   -3.1470   11.2140 c         1 KLN      0.654100
     34 O4         -4.0260   -2.5760   11.4760 o         1 KLN     -0.606100
     35 C26        -1.7070   -2.8360   12.0140 c3        1 KLN     -0.170100
     36 CL2        -2.0900   -4.0220   -3.3280 cl        1 KLN     -0.076400
     37 H1          1.9460   -0.6290   -0.9340 h5        1 KLN      0.071100
     38 H3         -1.2560    0.2810    1.7680 h4        1 KLN      0.182000
     39 H4C1       -0.3770    0.4950   -1.8440 h1        1 KLN      0.080200
     40 H4C2       -1.8030    0.3870   -0.6650 h1        1 KLN      0.080200
     41 H2          1.1530    0.0720    3.1880 h4        1 KLN      0.042100
     42 H6         -1.7720   -4.3090   -0.5460 h1        1 KLN      0.099700
     43 H7C1        0.3250   -4.2020   -1.7060 h1        1 KLN      0.071700
     44 H7C2        1.0300   -3.0640   -0.4380 h1        1 KLN      0.071700
     45 H141       -1.0070   -2.3380    1.6500 h1        1 KLN      0.061200
     46 H142        0.0710   -3.8250    1.5000 h1        1 KLN      0.061200
     47 H13        -2.3250    0.8440   -2.6390 ha        1 KLN      0.141000
     48 H10        -3.6290   -3.0910   -5.4030 ha        1 KLN      0.166000
     49 H12        -3.7240    1.1660   -4.6100 ha        1 KLN      0.155000
     50 H20        -0.1930   -3.1480    3.6480 ha        1 KLN      0.146000
     51 H16        -3.9210   -5.2770    3.0240 ha        1 KLN      0.146000
     52 H19        -0.5070   -3.2700    6.0690 ha        1 KLN      0.137000
     53 H17        -4.2370   -5.4460    5.4780 ha        1 KLN      0.137000
     54 H211       -0.5540   -4.8380    7.8250 h1        1 KLN      0.044950
     55 H212       -1.1550   -3.1470    8.1670 h1        1 KLN      0.044950
     56 H241       -4.6810   -4.4040    7.3060 h1        1 KLN      0.044950
     57 H242       -3.8430   -2.8640    7.8040 h1        1 KLN      0.044950
     58 H221       -0.7810   -4.2740   10.2760 h1        1 KLN      0.065700
     59 H222       -1.6970   -5.7630    9.7560 h1        1 KLN      0.065700
     60 H231       -4.9320   -3.7750    9.7600 h1        1 KLN      0.065700
     61 H232       -4.2980   -5.4640    9.4460 h1        1 KLN      0.065700
     62 H261       -1.9890   -2.1430   12.8450 hc        1 KLN      0.066033
     63 H262       -0.9460   -2.3330   11.3700 hc        1 KLN      0.066033
     64 H263       -1.2680   -3.7640   12.4510 hc        1 KLN      0.066033
@<TRIPOS>BOND
     1    1    2 1   
     2    1    5 1   
     3    1    6 1   
     4    2    3 2   
     5    2   37 1   
     6    3    4 1   
     7    4    5 2   
     8    4   41 1   
     9    5   38 1   
    10    6    7 1   
    11    6   39 1   
    12    6   40 1   
    13    7    8 1   
    14    7   11 1   
    15    7   12 1   
    16    8    9 1   
    17    9   10 1   
    18    9   19 1   
    19    9   42 1   
    20   10   11 1   
    21   10   43 1   
    22   10   44 1   
    23   12   13 ar  
    24   12   17 ar  
    25   13   14 ar  
    26   13   36 1   
    27   14   15 ar  
    28   14   48 1   
    29   15   16 ar  
    30   15   18 1   
    31   16   17 ar  
    32   16   49 1   
    33   17   47 1   
    34   19   20 1   
    35   19   45 1   
    36   19   46 1   
    37   20   21 1   
    38   21   22 ar  
    39   21   26 ar  
    40   22   23 ar  
    41   22   51 1   
    42   23   24 ar  
    43   23   53 1   
    44   24   25 ar  
    45   24   27 1   
    46   25   26 ar  
    47   25   52 1   
    48   26   50 1   
    49   27   28 1   
    50   27   32 1   
    51   28   29 1   
    52   28   54 1   
    53   28   55 1   
    54   29   30 1   
    55   29   58 1   
    56   29   59 1   
    57   30   31 1   
    58   30   33 1   
    59   31   32 1   
    60   31   60 1   
    61   31   61 1   
    62   32   56 1   
    63   32   57 1   
    64   33   34 2   
    65   33   35 1   
    66   35   62 1   
    67   35   63 1   
    68   35   64 1   
@<TRIPOS>SUBSTRUCTURE
     1 KLN         1 TEMP              0 ****  ****    0 ROOT
