@<TRIPOS>MOLECULE
KLN
   64    68     1     0     0
SMALL
bcc


@<TRIPOS>ATOM
      1 N1         -2.1670   -2.8400   -0.6960 na        1 KLN     -0.206900
      2 C1         -2.2030   -3.8700    0.2610 cc        1 KLN      0.391400
      3 N2         -1.0150   -4.5020    0.3470 nd        1 KLN     -0.671000
      4 C2         -0.1780   -3.8700   -0.5740 cd        1 KLN      0.282200
      5 C3         -0.8710   -2.8350   -1.2270 cc        1 KLN     -0.255600
      6 C4         -3.2480   -1.9910   -1.0800 c3        1 KLN      0.021300
      7 C5         -3.6190   -0.8680   -0.0600 c3        1 KLN      0.384900
      8 O1         -2.5100    0.0180    0.0820 os        1 KLN     -0.418600
      9 C6         -1.9480   -0.0660    1.4030 c3        1 KLN      0.118100
     10 C7         -2.7750   -1.1360    2.1180 c3        1 KLN      0.109400
     11 O2         -3.8400   -1.4650    1.2180 os        1 KLN     -0.428600
     12 C8         -4.8480   -0.0950   -0.5020 ca        1 KLN     -0.083300
     13 C9         -5.4490    0.8920    0.2980 ca        1 KLN      0.069400
     14 C10        -6.5880    1.5840   -0.1360 ca        1 KLN     -0.130000
     15 C11        -7.1370    1.3010   -1.3860 ca        1 KLN      0.036400
     16 C12        -6.5480    0.3330   -2.2040 ca        1 KLN     -0.130000
     17 C13        -5.4190   -0.3480   -1.7590 ca        1 KLN     -0.103000
     18 CL1        -8.5170    2.1350   -1.9130 cl        1 KLN     -0.074400
     19 C14        -0.4660   -0.4190    1.3020 c3        1 KLN      0.114400
     20 O3          0.2310    0.8300    1.3600 os        1 KLN     -0.328900
     21 C15         1.5910    0.7660    1.1170 ca        1 KLN      0.103100
     22 C16         2.2240    2.0130    0.9600 ca        1 KLN     -0.156500
     23 C17         3.5920    2.0670    0.7450 ca        1 KLN     -0.131000
     24 C18         4.3670    0.8830    0.6700 ca        1 KLN      0.095600
     25 C19         3.7090   -0.3520    0.8230 ca        1 KLN     -0.131000
     26 C20         2.3350   -0.4140    1.0520 ca        1 KLN     -0.156500
     27 N3          5.7780    0.9950    0.5230 nh        1 KLN     -0.629000
     28 C21         6.5410   -0.2140    0.7800 c3        1 KLN      0.158800
     29 C22         8.0670    0.0510    0.7750 c3        1 KLN      0.082500
     30 N4          8.5230    0.7690   -0.3900 n         1 KLN     -0.466800
     31 C23         7.7370    1.9440   -0.6980 c3        1 KLN      0.082500
     32 C24         6.2120    1.6930   -0.6800 c3        1 KLN      0.158800
     33 C25         9.3300    0.1910   -1.3670 c         1 KLN      0.655100
     34 O4          9.4980    0.7700   -2.4600 o         1 KLN     -0.606100
     35 C26        10.0580   -1.0950   -1.0670 c3        1 KLN     -0.170100
     36 CL2        -4.8610    1.3410    1.8300 cl        1 KLN     -0.076400
     37 H1         -3.1040   -4.0880    0.8460 h5        1 KLN      0.071100
     38 H3         -0.5590   -2.1300   -1.9950 h4        1 KLN      0.182000
     39 H4C1       -2.9700   -1.4870   -2.0490 h1        1 KLN      0.080200
     40 H4C2       -4.1650   -2.6320   -1.2140 h1        1 KLN      0.080200
     41 H2          0.8520   -4.1910   -0.7200 h4        1 KLN      0.042100
     42 H6         -2.0720    0.9540    1.8630 h1        1 KLN      0.099700
     43 H7C1       -2.1990   -2.0770    2.3140 h1        1 KLN      0.071700
     44 H7C2       -3.2540   -0.7600    3.0560 h1        1 KLN      0.071700
     45 H141       -0.1530   -1.0530    2.1730 h1        1 KLN      0.061200
     46 H142       -0.2420   -0.9460    0.3360 h1        1 KLN      0.061200
     47 H13        -4.9880   -1.0950   -2.4430 ha        1 KLN      0.141000
     48 H10        -7.0460    2.3510    0.5100 ha        1 KLN      0.166000
     49 H12        -6.9700    0.1080   -3.1960 ha        1 KLN      0.155000
     50 H20         1.8570   -1.3960    1.1760 ha        1 KLN      0.146000
     51 H16         1.6250    2.9330    1.0160 ha        1 KLN      0.146000
     52 H19         4.2660   -1.3000    0.7690 ha        1 KLN      0.137000
     53 H17         4.0740    3.0520    0.6430 ha        1 KLN      0.137000
     54 H211        6.2620   -0.5960    1.8010 h1        1 KLN      0.044950
     55 H212        6.3160   -1.0240    0.0260 h1        1 KLN      0.044950
     56 H241        5.9260    1.1230   -1.6110 h1        1 KLN      0.044950
     57 H242        5.7010    2.6950   -0.7170 h1        1 KLN      0.044950
     58 H221        8.3280    0.6710    1.6820 h1        1 KLN      0.065700
     59 H222        8.5840   -0.9420    0.8690 h1        1 KLN      0.065700
     60 H231        7.9870    2.7310    0.0710 h1        1 KLN      0.065700
     61 H232        8.0140    2.3350   -1.7170 h1        1 KLN      0.065700
     62 H261        9.3340   -1.9400   -0.9830 hc        1 KLN      0.066033
     63 H262       10.7620   -1.3060   -1.9090 hc        1 KLN      0.066033
     64 H263       10.6440   -1.0130   -0.1200 hc        1 KLN      0.066033
@<TRIPOS>BOND
     1    1    2 1   
     2    1    5 1   
     3    1    6 1   
     4    2    3 2   
     5    2   37 1   
     6    3    4 1   
     7    4    5 2   
     8    4   41 1   
     9    5   38 1   
    10    6    7 1   
    11    6   39 1   
    12    6   40 1   
    13    7    8 1   
    14    7   11 1   
    15    7   12 1   
    16    8    9 1   
    17    9   10 1   
    18    9   19 1   
    19    9   42 1   
    20   10   11 1   
    21   10   43 1   
    22   10   44 1   
    23   12   13 ar  
    24   12   17 ar  
    25   13   14 ar  
    26   13   36 1   
    27   14   15 ar  
    28   14   48 1   
    29   15   16 ar  
    30   15   18 1   
    31   16   17 ar  
    32   16   49 1   
    33   17   47 1   
    34   19   20 1   
    35   19   45 1   
    36   19   46 1   
    37   20   21 1   
    38   21   22 ar  
    39   21   26 ar  
    40   22   23 ar  
    41   22   51 1   
    42   23   24 ar  
    43   23   53 1   
    44   24   25 ar  
    45   24   27 1   
    46   25   26 ar  
    47   25   52 1   
    48   26   50 1   
    49   27   28 1   
    50   27   32 1   
    51   28   29 1   
    52   28   54 1   
    53   28   55 1   
    54   29   30 1   
    55   29   58 1   
    56   29   59 1   
    57   30   31 1   
    58   30   33 1   
    59   31   32 1   
    60   31   60 1   
    61   31   61 1   
    62   32   56 1   
    63   32   57 1   
    64   33   34 2   
    65   33   35 1   
    66   35   62 1   
    67   35   63 1   
    68   35   64 1   
@<TRIPOS>SUBSTRUCTURE
     1 KLN         1 TEMP              0 ****  ****    0 ROOT
