@<TRIPOS>MOLECULE
KLS
   29    29     1     0     0
SMALL
bcc


@<TRIPOS>ATOM
      1 CAM        -0.0080   -0.7590    0.1730 c3        1 KLS      0.081100
      2 NAL         1.0230    0.3400    0.1200 n4        1 KLS     -0.630800
      3 CAK         2.2750   -0.0480    0.8360 c         1 KLS      0.493100
      4 OAJ         2.3930   -1.1290    1.3930 o         1 KLS     -0.300100
      5 NAN         3.4390    0.8920    0.8730 n4        1 KLS     -0.715800
      6 CAB         4.2210    0.7850    2.2430 c2        1 KLS      0.666100
      7 NAA         4.1170    1.5790    3.2030 n2        1 KLS     -0.599100
      8 NAC         5.1880   -0.3740    2.2570 n4        1 KLS     -0.572400
      9 CAD         6.0730   -0.3870    1.0950 ca        1 KLS     -0.176400
     10 CAE         7.2610    0.3750    1.1170 ca        1 KLS     -0.106000
     11 CAF         8.1790    0.2240    0.0770 ca        1 KLS     -0.082000
     12 CAG         7.9300   -0.6690   -0.9670 ca        1 KLS     -0.001000
     13 CAH         6.7410   -1.4170   -0.9850 ca        1 KLS     -0.082000
     14 CAI         5.8070   -1.2860    0.0330 ca        1 KLS     -0.106000
     15 HAM1       -0.2800   -0.9830    1.2430 hx        1 KLS      0.160033
     16 HAM2       -0.9180   -0.3810   -0.3860 hx        1 KLS      0.160033
     17 HAM3        0.3910   -1.6870   -0.3240 hx        1 KLS      0.160033
     18 HAL         1.2320    0.5420   -0.8770 hn        1 KLS      0.511300
     19 HAN         3.1660    1.8770    0.7280 hn        1 KLS      0.511300
     20 HAA         3.5680    2.3990    3.3750 hn        1 KLS      0.578400
     21 HAC         4.6460   -1.2570    2.3130 hn        1 KLS      0.523800
     22 HAE         7.5000    1.0650    1.9470 ha        1 KLS      0.166000
     23 HAI         4.9210   -1.9420    0.0400 ha        1 KLS      0.166000
     24 HAF         9.1240    0.8060    0.0990 ha        1 KLS      0.213500
     25 HAG         8.6790   -0.8030   -1.7760 ha        1 KLS      0.220000
     26 HAH         6.5630   -2.1410   -1.8050 ha        1 KLS      0.213500
     27 HAL2        0.6130    1.1890    0.5520 hn        1 KLS      0.511300
     28 HAN2        4.1020    0.6320    0.1060 hn        1 KLS      0.511300
     29 HAC2        5.7740   -0.2890    3.1230 hn        1 KLS      0.523800
@<TRIPOS>BOND
     1    1    2 1   
     2    1   15 1   
     3    1   16 1   
     4    1   17 1   
     5    2    3 1   
     6    2   18 1   
     7    2   27 1   
     8    3    4 2   
     9    3    5 1   
    10    5    6 1   
    11    5   19 1   
    12    5   28 1   
    13    6    7 2   
    14    6    8 1   
    15    7   20 1   
    16    8    9 1   
    17    8   21 1   
    18    8   29 1   
    19    9   10 ar  
    20    9   14 ar  
    21   10   11 ar  
    22   10   22 1   
    23   11   12 ar  
    24   11   24 1   
    25   12   13 ar  
    26   12   25 1   
    27   13   14 ar  
    28   13   26 1   
    29   14   23 1   
@<TRIPOS>SUBSTRUCTURE
     1 KLS         1 TEMP              0 ****  ****    0 ROOT
