@<TRIPOS>MOLECULE
KLS
   28    27     1     0     0
SMALL
bcc


@<TRIPOS>ATOM
      1 CAM      -762.2930  146.1210 -528.6950 c3        1 KLS      0.077100
      2 NAL      -762.0430  147.1890 -527.7050 ny        1 KLS     -0.666800
      3 CAK      -760.7690  147.9950 -528.0200 c         1 KLS      0.646100
      4 OAJ      -759.8800  147.8570 -527.1770 o         1 KLS     -0.470100
      5 NAN      -760.7470  148.7510 -529.1450 nt        1 KLS     -0.614000
      6 CAB       580.8890 -111.7680  398.1170 c1        1 KLS      0.497400
      7 NAA       581.9420 -111.4180  398.5650 n2        1 KLS     -0.567800
      8 NAC       579.8320 -112.0410  397.4050 nu        1 KLS     -0.126500
      9 CAD       578.7320 -111.1290  397.2740 ca        1 KLS     -0.079200
     10 CAE       578.9360 -109.7380  397.3210 ca        1 KLS     -0.117500
     11 CAF       577.8430 -108.8890  397.1640 ca        1 KLS     -0.095500
     12 CAG       576.5640 -109.4100  396.9610 ca        1 KLS     -0.082000
     13 CAH       576.3710 -110.7910  396.9140 ca        1 KLS     -0.095500
     14 CAI       577.4450 -111.6650  397.0730 ca        1 KLS     -0.117500
     15 HAM1     -761.3790  145.4710 -528.7820 hx        1 KLS      0.114033
     16 HAM2     -763.1630  145.4940 -528.3550 hx        1 KLS      0.114033
     17 HAM3     -762.5300  146.5710 -529.6960 hx        1 KLS      0.114033
     18 HAL      -762.8530  147.8150 -527.6440 hn        1 KLS      0.471800
     19 HAN      -761.5030  148.8140 -529.7840 hn        1 KLS      0.371000
     20 HAA       582.4450 -111.4430  399.4240 hn        1 KLS      0.601400
     21 HAC       579.7790 -112.9270  396.9230 hn        1 KLS      0.365700
     22 HAE       579.9390 -109.3090  397.4670 ha        1 KLS      0.152500
     23 HAI       577.2720 -112.7520  397.0340 ha        1 KLS      0.152500
     24 HAF       577.9960 -107.7970  397.1970 ha        1 KLS      0.170000
     25 HAG       575.7050 -108.7290  396.8360 ha        1 KLS      0.171000
     26 HAH       575.3600 -111.2030  396.7520 ha        1 KLS      0.170000
     27 HAL2     -761.8870  146.7690 -526.7740 hn        1 KLS      0.471800
     28 HAN2     -759.9130  149.2740 -529.3260 hn        1 KLS      0.371000
@<TRIPOS>BOND
     1    1    2 1   
     2    1   15 1   
     3    1   16 1   
     4    1   17 1   
     5    2    3 1   
     6    2   18 1   
     7    2   27 1   
     8    3    4 2   
     9    3    5 1   
    10    5   19 1   
    11    5   28 1   
    12    6    7 2   
    13    6    8 2   
    14    7   20 1   
    15    8    9 1   
    16    8   21 1   
    17    9   10 ar  
    18    9   14 ar  
    19   10   11 ar  
    20   10   22 1   
    21   11   12 ar  
    22   11   24 1   
    23   12   13 ar  
    24   12   25 1   
    25   13   14 ar  
    26   13   26 1   
    27   14   23 1   
@<TRIPOS>SUBSTRUCTURE
     1 KLS         1 TEMP              0 ****  ****    0 ROOT
