@<TRIPOS>MOLECULE
KLS
   28    27     1     0     0
SMALL
bcc


@<TRIPOS>ATOM
      1 CAM      -194.6430   41.9750 -147.7090 c3        1 KLS      0.077100
      2 NAL      -194.8350   40.5270 -147.4890 n4        1 KLS     -0.666800
      3 CAK      -194.3350   39.6830 -148.6760 c         1 KLS      0.646100
      4 OAJ      -193.3680   38.9680 -148.3980 o         1 KLS     -0.470100
      5 NAN      -194.9780   39.7960 -149.8640 n         1 KLS     -0.614000
      6 CAB       155.8320  -31.5900  111.7110 c1        1 KLS      0.501400
      7 NAA       156.8220  -31.9660  112.2600 n2        1 KLS     -0.568800
      8 NAC       154.7960  -31.0210  111.1530 nh        1 KLS     -0.125500
      9 CAD       153.6210  -30.6710  111.8970 ca        1 KLS     -0.081200
     10 CAE       152.9450  -29.4800  111.5650 ca        1 KLS     -0.115000
     11 CAF       151.7730  -29.1590  112.2460 ca        1 KLS     -0.096500
     12 CAG       151.2800  -29.9960  113.2480 ca        1 KLS     -0.081000
     13 CAH       151.9590  -31.1710  113.5750 ca        1 KLS     -0.096500
     14 CAI       153.1310  -31.5200  112.9070 ca        1 KLS     -0.115000
     15 HAM1     -195.2960   42.3280 -148.5510 hx        1 KLS      0.114033
     16 HAM2     -194.9160   42.5330 -146.7710 hx        1 KLS      0.114033
     17 HAM3     -193.5650   42.1760 -147.9590 hx        1 KLS      0.114033
     18 HAL      -195.8210   40.3230 -147.3000 hn        1 KLS      0.471800
     19 HAN      -194.6430   39.2310 -150.6190 hn        1 KLS      0.371000
     20 HAA       157.3320  -32.7920  112.4740 hn        1 KLS      0.604400
     21 HAC       154.9040  -30.6230  110.2300 hn        1 KLS      0.361700
     22 HAE       153.3190  -28.8050  110.7790 ha        1 KLS      0.150500
     23 HAI       153.6480  -32.4550  113.1700 ha        1 KLS      0.150500
     24 HAF       151.2360  -28.2310  111.9880 ha        1 KLS      0.170000
     25 HAG       150.3520  -29.7300  113.7820 ha        1 KLS      0.171000
     26 HAH       151.5680  -31.8340  114.3650 ha        1 KLS      0.170000
     27 HAL2     -194.2780   40.2230 -146.6740 hn        1 KLS      0.471800
     28 HAN2     -195.7520   40.3960 -150.0180 hn        1 KLS      0.371000
@<TRIPOS>BOND
     1    1    2 1   
     2    1   15 1   
     3    1   16 1   
     4    1   17 1   
     5    2    3 1   
     6    2   18 1   
     7    2   27 1   
     8    3    4 2   
     9    3    5 1   
    10    5   19 1   
    11    5   28 1   
    12    6    7 2   
    13    6    8 2   
    14    7   20 1   
    15    8    9 1   
    16    8   21 1   
    17    9   10 ar  
    18    9   14 ar  
    19   10   11 ar  
    20   10   22 1   
    21   11   12 ar  
    22   11   24 1   
    23   12   13 ar  
    24   12   25 1   
    25   13   14 ar  
    26   13   26 1   
    27   14   23 1   
@<TRIPOS>SUBSTRUCTURE
     1 KLS         1 TEMP              0 ****  ****    0 ROOT
