@<TRIPOS>MOLECULE
KLS
   26    23     1     0     0
SMALL
bcc


@<TRIPOS>ATOM
      1 CAM        -3.2660    2.4100   -2.8550 c3        1 KLS     -0.082000
      2 NAL        -2.4690    1.2310   -2.8820 n         1 KLS     -0.361000
      3 CAK        -2.2980    0.4620   -1.7000 c2        1 KLS      0.390000
      4 OAJ        -3.1880   -0.2710   -1.3190 o         1 KLS     -0.397000
      5 NAN        -1.0900    0.5540   -0.9620 n         1 KLS     -0.371000
      6 CAB        -0.7010   -0.5060   -0.1010 c2        1 KLS      0.202000
      7 NAA        -1.5380   -0.9630    0.7920 n1        1 KLS     -0.295000
      8 NAC         0.5980   -1.0700   -0.2120 n3        1 KLS     -0.249000
      9 CAD         1.5040   -0.9870    0.8790 c2        1 KLS      0.041000
     10 CAE         2.1690    0.2010    1.1370 c1        1 KLS     -0.173000
     11 CAF         3.1060    0.2640    2.1570 c1        1 KLS     -0.128500
     12 CAG         3.3780   -0.8620    2.9180 c1        1 KLS     -0.128500
     13 CAH         2.7130   -2.0500    2.6600 c1        1 KLS     -0.103000
     14 CAI         1.7760   -2.1130    1.6400 c2        1 KLS     -0.164000
     15 HAM1       -4.2150    2.1620   -2.8250 h1        1 KLS      0.089000
     16 HAM2       -3.0410    2.9390   -2.0610 h1        1 KLS      0.089000
     17 HAM3       -3.0920    2.9410   -3.6620 h1        1 KLS      0.089000
     18 HAL        -2.0750    0.9650   -3.6590 hn        1 KLS      0.212000
     19 HAN        -0.5520    1.2860   -1.0560 hn        1 KLS      0.242000
     20 HAA        -2.3740   -0.6000    0.8640 DU        1 KLS      0.202000
     21 HAC         0.8530   -1.4790   -0.9860 hn        1 KLS      0.220000
     22 HAE         1.9770    0.9940    0.6010 ha        1 KLS      0.141000
     23 HAI         1.3080   -2.9490    1.4590 ha        1 KLS      0.136000
     24 HAF         3.5750    1.1010    2.3390 ha        1 KLS      0.134000
     25 HAG         4.0380   -0.8180    3.6370 ha        1 KLS      0.134000
     26 HAH         2.9040   -2.8430    3.1960 ha        1 KLS      0.133000
@<TRIPOS>BOND
     1    1    2 1   
     2    1   15 1   
     3    1   16 1   
     4    1   17 1   
     5    2    3 1   
     6    2   18 1   
     7    3    4 1   
     8    3    5 1   
     9    5    6 1   
    10    5   19 1   
    11    6    7 1   
    12    6    8 1   
    13    8    9 1   
    14    8   21 1   
    15    9   10 1   
    16    9   14 1   
    17   10   22 1   
    18   11   12 1   
    19   11   24 1   
    20   12   25 1   
    21   13   14 1   
    22   13   26 1   
    23   14   23 1   
@<TRIPOS>SUBSTRUCTURE
     1 KLS         1 TEMP              0 ****  ****    0 ROOT
