@<TRIPOS>MOLECULE
KLS
   26    26     1     0     0
SMALL
bcc


@<TRIPOS>ATOM
      1 CAM         4.5490   -1.3130    0.2790 c3        1 KLS      0.076300
      2 NAL         3.3560   -0.5720    0.5650 n         1 KLS     -0.535900
      3 CAK         2.1290   -1.2190    0.4940 c         1 KLS      0.772100
      4 OAJ         2.0400   -2.4710    0.4390 o         1 KLS     -0.639100
      5 NAN         0.8990   -0.5210    0.6210 n         1 KLS     -0.513400
      6 CAB         0.6450    0.8300    0.2700 c2        1 KLS      0.646800
      7 NAA         1.5720    1.5910   -0.2370 n2        1 KLS     -0.847100
      8 NAC        -0.7090    1.3160    0.5290 nh        1 KLS     -0.716600
      9 CAD        -1.7930    0.5190    0.0950 ca        1 KLS      0.104600
     10 CAE        -3.0020    0.5100    0.8260 ca        1 KLS     -0.168000
     11 CAF        -4.1070   -0.1840    0.3430 ca        1 KLS     -0.099500
     12 CAG        -4.0340   -0.8890   -0.8570 ca        1 KLS     -0.150000
     13 CAH        -2.8430   -0.8920   -1.5820 ca        1 KLS     -0.099500
     14 CAI        -1.7290   -0.1990   -1.1190 ca        1 KLS     -0.168000
     15 HAM1        5.3960   -0.8430    0.8470 h1        1 KLS      0.047033
     16 HAM2        4.4300   -2.3810    0.6040 h1        1 KLS      0.047033
     17 HAM3        4.7930   -1.2970   -0.8180 h1        1 KLS      0.047033
     18 HAL         3.4040    0.4120    0.4210 hn        1 KLS      0.334500
     19 HAN         0.1060   -1.1330    0.6460 hn        1 KLS      0.342500
     20 HAA         1.3100    2.5330   -0.4300 hn        1 KLS      0.423400
     21 HAC        -0.8070    1.6270    1.4780 hn        1 KLS      0.409800
     22 HAE        -3.0830    1.0590    1.7760 ha        1 KLS      0.138500
     23 HAI        -0.8010   -0.2060   -1.7120 ha        1 KLS      0.138500
     24 HAF        -5.0450   -0.1770    0.9200 ha        1 KLS      0.136500
     25 HAG        -4.9100   -1.4390   -1.2300 ha        1 KLS      0.137000
     26 HAH        -2.7780   -1.4470   -2.5300 ha        1 KLS      0.136500
@<TRIPOS>BOND
     1    1    2 1   
     2    1   15 1   
     3    1   16 1   
     4    1   17 1   
     5    2    3 1   
     6    2   18 1   
     7    3    4 2   
     8    3    5 1   
     9    5    6 1   
    10    5   19 1   
    11    6    7 2   
    12    6    8 1   
    13    7   20 1   
    14    8    9 1   
    15    8   21 1   
    16    9   10 ar  
    17    9   14 ar  
    18   10   11 ar  
    19   10   22 1   
    20   11   12 ar  
    21   11   24 1   
    22   12   13 ar  
    23   12   25 1   
    24   13   14 ar  
    25   13   26 1   
    26   14   23 1   
@<TRIPOS>SUBSTRUCTURE
     1 KLS         1 TEMP              0 ****  ****    0 ROOT
