@<TRIPOS>MOLECULE
KLT
   34    36     1     0     0
SMALL
bcc


@<TRIPOS>ATOM
      1 O1          0.3760    0.7780    0.7950 o         1 KLT     -0.558800
      2 S1          1.7030    0.6510    0.4380 sy        1 KLT      1.483200
      3 O2          2.6600    0.4270    1.4000 o         1 KLT     -0.558800
      4 N1          1.6700   -1.0540   -0.4150 n4        1 KLT     -0.787500
      5 C1          2.1290    1.5320   -0.8430 ca        1 KLT     -0.541500
      6 C2          1.1910    2.4810   -1.3160 ca        1 KLT      0.038000
      7 C3          3.3850    1.4930   -1.4980 ca        1 KLT      0.133400
      8 CL1         4.5230    0.3170   -1.0580 cl        1 KLT     -0.040400
      9 C4          3.7020    2.3840   -2.5170 ca        1 KLT     -0.144000
     10 C5          2.7600    3.3260   -2.9430 ca        1 KLT      0.034000
     11 C6          1.4940    3.3650   -2.3470 ca        1 KLT     -0.084300
     12 C7          0.4350    4.3510   -2.8200 c3        1 KLT      0.387800
     13 O8          0.9910    5.0260   -3.9460 oh        1 KLT     -0.603800
     14 C9          0.0170    5.3200   -1.7100 ca        1 KLT     -0.156300
     15 C10         0.7630    6.2160   -0.9730 ca        1 KLT     -0.095000
     16 C11         0.0950    7.0050   -0.0190 ca        1 KLT     -0.104000
     17 C12        -1.2770    6.8880    0.1770 ca        1 KLT     -0.114000
     18 C13        -2.0410    5.9800   -0.5780 ca        1 KLT     -0.048000
     19 C14        -1.3850    5.2060   -1.5150 ca        1 KLT     -0.156600
     20 C15        -1.9210    4.2010   -2.4790 c         1 KLT      0.692100
     21 O3         -3.0900    3.8510   -2.6540 o         1 KLT     -0.550500
     22 N2         -0.8160    3.6380   -3.1740 n         1 KLT     -0.585900
     23 HN1         0.7380   -1.4620   -0.3540 hn        1 KLT      0.459800
     24 HN1A        2.3210   -1.6930    0.0410 hn        1 KLT      0.459800
     25 H2          0.1850    2.5250   -0.8470 ha        1 KLT      0.192000
     26 H4          4.6960    2.3490   -2.9990 ha        1 KLT      0.189000
     27 H5          3.0120    4.0320   -3.7580 ha        1 KLT      0.199000
     28 HO8         0.4930    5.8440   -4.0850 ho        1 KLT      0.442000
     29 H10         1.8460    6.3290   -1.1250 ha        1 KLT      0.149000
     30 H11         0.6740    7.7310    0.5740 ha        1 KLT      0.155000
     31 H12        -1.7800    7.5180    0.9280 ha        1 KLT      0.159000
     32 H13        -3.1290    5.8920   -0.4300 ha        1 KLT      0.171000
     33 HN2        -0.9260    3.3450   -4.1160 hn        1 KLT      0.327500
     34 H131        1.9230   -1.0040   -1.3990 hn        1 KLT      0.459800
@<TRIPOS>BOND
     1    1    2 2   
     2    2    3 2   
     3    2    4 1   
     4    2    5 1   
     5    4   23 1   
     6    4   24 1   
     7    4   34 1   
     8    5    6 ar  
     9    5    7 ar  
    10    6   11 ar  
    11    6   25 1   
    12    7    8 1   
    13    7    9 ar  
    14    9   10 ar  
    15    9   26 1   
    16   10   11 ar  
    17   10   27 1   
    18   11   12 1   
    19   12   13 1   
    20   12   14 1   
    21   12   22 1   
    22   13   28 1   
    23   14   15 ar  
    24   14   19 ar  
    25   15   16 ar  
    26   15   29 1   
    27   16   17 ar  
    28   16   30 1   
    29   17   18 ar  
    30   17   31 1   
    31   18   19 ar  
    32   18   32 1   
    33   19   20 1   
    34   20   21 2   
    35   20   22 1   
    36   22   33 1   
@<TRIPOS>SUBSTRUCTURE
     1 KLT         1 TEMP              0 ****  ****    0 ROOT
