@<TRIPOS>MOLECULE
KLT
   33    35     1     0     0
SMALL
bcc


@<TRIPOS>ATOM
      1 O1         -2.0400   -2.3590   -0.6750 o         1 KLT     -0.647300
      2 S1         -2.8010   -1.1710   -0.6790 sy        1 KLT      1.521200
      3 O2         -3.2500   -0.7090   -1.9280 o         1 KLT     -0.647300
      4 N1         -4.0280   -1.3250    0.3300 n3        1 KLT     -1.026700
      5 C1         -1.8440    0.0520    0.0500 ca        1 KLT     -0.360500
      6 C2         -0.5120   -0.2680    0.3550 ca        1 KLT      0.013000
      7 C3         -2.2830    1.3550    0.3180 ca        1 KLT      0.132400
      8 CL1        -3.8900    1.8110    0.0020 cl        1 KLT     -0.077400
      9 C4         -1.4200    2.3190    0.8500 ca        1 KLT     -0.155000
     10 C5         -0.1010    1.9800    1.1340 ca        1 KLT     -0.060000
     11 C6          0.3580    0.6780    0.8990 ca        1 KLT     -0.144300
     12 C7          1.8090    0.3480    1.2000 c3        1 KLT      0.387800
     13 O8          2.3260    1.2380    2.1930 oh        1 KLT     -0.591800
     14 C9          2.6900    0.5090   -0.0470 ca        1 KLT     -0.070300
     15 C10         2.8590    1.5880   -0.8910 ca        1 KLT     -0.093000
     16 C11         3.7350    1.4410   -1.9800 ca        1 KLT     -0.107000
     17 C12         4.4120    0.2460   -2.2030 ca        1 KLT     -0.132000
     18 C13         4.2440   -0.8510   -1.3420 ca        1 KLT     -0.056000
     19 C14         3.3860   -0.7070   -0.2690 ca        1 KLT     -0.148600
     20 C15         3.0270   -1.6650    0.8170 c         1 KLT      0.710100
     21 O3          3.4830   -2.7940    1.0270 o         1 KLT     -0.585500
     22 N2          2.0090   -1.0660    1.5970 n         1 KLT     -0.577900
     23 HN1        -4.8630   -0.7980    0.2670 hn        1 KLT      0.452300
     24 HN1A       -4.0420   -1.9760    1.0750 hn        1 KLT      0.452300
     25 H2         -0.1560   -1.2980    0.1490 ha        1 KLT      0.190000
     26 H4         -1.7790    3.3430    1.0390 ha        1 KLT      0.157000
     27 H5          0.5860    2.7420    1.5390 ha        1 KLT      0.155000
     28 HO8         1.7260    1.2180    2.9510 ho        1 KLT      0.410000
     29 H10         2.3310    2.5360   -0.7190 ha        1 KLT      0.145000
     30 H11         3.8840    2.2900   -2.6640 ha        1 KLT      0.140000
     31 H12         5.0900    0.1530   -3.0650 ha        1 KLT      0.142000
     32 H13         4.7800   -1.7960   -1.5150 ha        1 KLT      0.158000
     33 HN2         1.9140   -1.3060    2.5530 hn        1 KLT      0.315500
@<TRIPOS>BOND
     1    1    2 2   
     2    2    3 2   
     3    2    4 1   
     4    2    5 1   
     5    4   23 1   
     6    4   24 1   
     7    5    6 ar  
     8    5    7 ar  
     9    6   11 ar  
    10    6   25 1   
    11    7    8 1   
    12    7    9 ar  
    13    9   10 ar  
    14    9   26 1   
    15   10   11 ar  
    16   10   27 1   
    17   11   12 1   
    18   12   13 1   
    19   12   14 1   
    20   12   22 1   
    21   13   28 1   
    22   14   15 ar  
    23   14   19 ar  
    24   15   16 ar  
    25   15   29 1   
    26   16   17 ar  
    27   16   30 1   
    28   17   18 ar  
    29   17   31 1   
    30   18   19 ar  
    31   18   32 1   
    32   19   20 1   
    33   20   21 2   
    34   20   22 1   
    35   22   33 1   
@<TRIPOS>SUBSTRUCTURE
     1 KLT         1 TEMP              0 ****  ****    0 ROOT
