@<TRIPOS>MOLECULE
KLT
   34    36     1     0     0
SMALL
bcc


@<TRIPOS>ATOM
      1 O1          0.3570    0.7770    0.7920 o         1 KLT     -0.558800
      2 S1          1.6850    0.6450    0.4390 sy        1 KLT      1.483200
      3 O2          2.6370    0.4160    1.4030 o         1 KLT     -0.558800
      4 N1          1.6480   -1.0590   -0.4170 n4        1 KLT     -0.787500
      5 C1          2.1190    1.5250   -0.8400 ca        1 KLT     -0.541500
      6 C2          1.1860    2.4790   -1.3160 ca        1 KLT      0.038000
      7 C3          3.3770    1.4820   -1.4910 ca        1 KLT      0.133400
      8 CL1         4.5090    0.3000   -1.0480 cl        1 KLT     -0.040400
      9 C4          3.7010    2.3730   -2.5080 ca        1 KLT     -0.144000
     10 C5          2.7650    3.3190   -2.9360 ca        1 KLT      0.034000
     11 C6          1.4970    3.3630   -2.3440 ca        1 KLT     -0.084300
     12 C7          0.4430    4.3530   -2.8200 c3        1 KLT      0.387800
     13 O8          1.0050    5.0260   -3.9450 oh        1 KLT     -0.603800
     14 C9          0.0260    5.3240   -1.7120 ca        1 KLT     -0.156300
     15 C10         0.7750    6.2170   -0.9720 ca        1 KLT     -0.095000
     16 C11         0.1080    7.0090   -0.0200 ca        1 KLT     -0.104000
     17 C12        -1.2650    6.8980    0.1720 ca        1 KLT     -0.114000
     18 C13        -2.0310    5.9930   -0.5840 ca        1 KLT     -0.048000
     19 C14        -1.3760    5.2170   -1.5200 ca        1 KLT     -0.156600
     20 C15        -1.9140    4.2140   -2.4850 c         1 KLT      0.692100
     21 O3         -3.0840    3.8700   -2.6640 o         1 KLT     -0.550500
     22 N2         -0.8100    3.6460   -3.1770 n         1 KLT     -0.585900
     23 HN1         2.2940   -1.7010    0.0410 hn        1 KLT      0.459800
     24 HN1A        0.7130   -1.4630   -0.3590 hn        1 KLT      0.459800
     25 H2          0.1790    2.5270   -0.8500 ha        1 KLT      0.192000
     26 H4          4.6960    2.3330   -2.9860 ha        1 KLT      0.189000
     27 H5          3.0220    4.0250   -3.7500 ha        1 KLT      0.199000
     28 HO8         0.5110    5.8460   -4.0850 ho        1 KLT      0.442000
     29 H10         1.8590    6.3240   -1.1210 ha        1 KLT      0.149000
     30 H11         0.6880    7.7320    0.5750 ha        1 KLT      0.155000
     31 H12        -1.7680    7.5310    0.9220 ha        1 KLT      0.159000
     32 H13        -3.1200    5.9110   -0.4400 ha        1 KLT      0.171000
     33 HN2        -0.9190    3.3540   -4.1200 hn        1 KLT      0.327500
     34 H131        1.9040   -1.0090   -1.3990 hn        1 KLT      0.459800
@<TRIPOS>BOND
     1    1    2 2   
     2    2    3 2   
     3    2    4 1   
     4    2    5 1   
     5    4   23 1   
     6    4   24 1   
     7    4   34 1   
     8    5    6 ar  
     9    5    7 ar  
    10    6   11 ar  
    11    6   25 1   
    12    7    8 1   
    13    7    9 ar  
    14    9   10 ar  
    15    9   26 1   
    16   10   11 ar  
    17   10   27 1   
    18   11   12 1   
    19   12   13 1   
    20   12   14 1   
    21   12   22 1   
    22   13   28 1   
    23   14   15 ar  
    24   14   19 ar  
    25   15   16 ar  
    26   15   29 1   
    27   16   17 ar  
    28   16   30 1   
    29   17   18 ar  
    30   17   31 1   
    31   18   19 ar  
    32   18   32 1   
    33   19   20 1   
    34   20   21 2   
    35   20   22 1   
    36   22   33 1   
@<TRIPOS>SUBSTRUCTURE
     1 KLT         1 TEMP              0 ****  ****    0 ROOT
