@<TRIPOS>MOLECULE
KLT
   33    29     1     0     0
SMALL
bcc


@<TRIPOS>ATOM
      1 O1          0.4000    0.2950   -4.6250 o         1 KLT     -0.929500
      2 S1          0.5610    1.5510   -3.9460 ss        1 KLT      2.862000
      3 O2         -0.2560    2.4120   -4.7540 o         1 KLT     -0.929500
      4 N1          2.1300    2.0360   -3.9560 n2        1 KLT     -0.953000
      5 C1         -0.0450    1.4650   -2.2820 c1        1 KLT     -0.812000
      6 C2         -0.1670    0.2360   -1.6520 c2        1 KLT      0.007000
      7 C3         -0.4280    2.6220   -1.6240 c1        1 KLT      0.055000
      8 CL1        -0.2960    4.1650   -2.4250 cl        1 KLT     -0.003000
      9 C4         -0.9350    2.5520   -0.3360 c2        1 KLT     -0.159000
     10 C5         -1.0580    1.3230    0.2940 c1        1 KLT     -0.034000
     11 C6         -0.6740    0.1650   -0.3640 c1        1 KLT     -0.103000
     12 C7         -0.8610   -1.1660    0.2940 c3        1 KLT      0.283000
     13 O8         -0.6320   -2.1930   -0.6390 oh        1 KLT     -0.319000
     14 C9          0.1070   -1.3050    1.4560 c2        1 KLT     -0.122000
     15 C10         1.5070   -1.3160    1.5150 c2        1 KLT     -0.093000
     16 C11         2.1490   -1.5190    2.7260 c1        1 KLT     -0.111000
     17 C12         1.4050   -1.7110    3.8810 c1        1 KLT     -0.094500
     18 C13         0.0200   -1.7000    3.8240 c1        1 KLT     -0.094500
     19 C14        -0.6280   -1.4950    2.5990 c1        1 KLT     -0.131000
     20 C15        -2.1010   -1.4650    2.2190 c2        1 KLT      0.345000
     21 O3         -3.0380   -1.5990    2.9800 o         1 KLT     -0.321000
     22 N2         -2.1880   -1.2680    0.8070 n         1 KLT     -0.409000
     23 HN1         2.7920    1.4380   -4.1520 hn        1 KLT      0.246500
     24 HN1A        2.3390    2.9090   -3.7790 hn        1 KLT      0.246500
     25 H2          0.1030   -0.5790   -2.1160 ha        1 KLT      0.192000
     26 H4         -1.2050    3.3670    0.1280 ha        1 KLT      0.158000
     27 H5         -1.4140    1.2740    1.2010 ha        1 KLT      0.156000
     28 HO8        -1.1390   -2.8950   -0.4370 ho        1 KLT      0.221000
     29 H10         2.0310   -1.1800    0.7020 ha        1 KLT      0.151000
     30 H11         3.1240   -1.5270    2.7670 ha        1 KLT      0.141000
     31 H12         1.8570   -1.8540    4.7340 ha        1 KLT      0.151000
     32 H13        -0.5030   -1.8360    4.6370 ha        1 KLT      0.151000
     33 HN2        -2.9560   -1.2020    0.3220 hn        1 KLT      0.252000
@<TRIPOS>BOND
     1    1    2 1   
     2    2    3 1   
     3    4   23 1   
     4    4   24 1   
     5    5    6 1   
     6    5    7 1   
     7    6   11 1   
     8    6   25 1   
     9    7    9 1   
    10    9   10 1   
    11    9   26 1   
    12   10   27 1   
    13   11   12 1   
    14   12   13 1   
    15   12   14 1   
    16   12   22 1   
    17   13   28 1   
    18   14   15 1   
    19   14   19 1   
    20   15   16 1   
    21   15   29 1   
    22   16   30 1   
    23   17   18 1   
    24   17   31 1   
    25   18   32 1   
    26   19   20 1   
    27   20   21 1   
    28   20   22 1   
    29   22   33 1   
@<TRIPOS>SUBSTRUCTURE
     1 KLT         1 TEMP              0 ****  ****    0 ROOT
