@<TRIPOS>MOLECULE
KLT
   34    36     1     0     0
SMALL
bcc


@<TRIPOS>ATOM
      1 O1          0.3550    0.7700    0.7810 o         1 KLT     -0.558800
      2 S1          1.6830    0.6380    0.4280 sy        1 KLT      1.483200
      3 O2          2.6350    0.4050    1.3910 o         1 KLT     -0.558800
      4 N1          1.6450   -1.0620   -0.4350 nz        1 KLT     -0.787500
      5 C1          2.1180    1.5230   -0.8470 ca        1 KLT     -0.541500
      6 C2          1.1860    2.4790   -1.3200 ca        1 KLT      0.038000
      7 C3          3.3760    1.4810   -1.4990 ca        1 KLT      0.133400
      8 Cl1         4.5070    0.2970   -1.0600 cl        1 KLT     -0.040400
      9 C4          3.7010    2.3750   -2.5120 ca        1 KLT     -0.144000
     10 C5          2.7660    3.3250   -2.9360 ca        1 KLT      0.034000
     11 C6          1.4980    3.3670   -2.3440 ca        1 KLT     -0.084300
     12 C7          0.4450    4.3600   -2.8170 c3        1 KLT      0.387800
     13 O8          1.0080    5.0380   -3.9370 oh        1 KLT     -0.603800
     14 C9          0.0270    5.3260   -1.7040 ca        1 KLT     -0.156300
     15 C10         0.7750    6.2140   -0.9590 ca        1 KLT     -0.095000
     16 C11         0.1070    7.0020   -0.0040 ca        1 KLT     -0.104000
     17 C12        -1.2660    6.8900    0.1870 ca        1 KLT     -0.114000
     18 C13        -2.0310    5.9890   -0.5750 ca        1 KLT     -0.048000
     19 C14        -1.3750    5.2180   -1.5140 ca        1 KLT     -0.156600
     20 C15        -1.9130    4.2200   -2.4850 c         1 KLT      0.692100
     21 O3         -3.0830    3.8770   -2.6660 o         1 KLT     -0.550500
     22 N2         -0.8080    3.6550   -3.1790 ns        1 KLT     -0.585900
     23 HN1         0.7100   -1.4670   -0.3780 hn        1 KLT      0.459800
     24 HN1A        1.9010   -1.0090   -1.4170 hn        1 KLT      0.459800
     25 H2          0.1790    2.5260   -0.8540 ha        1 KLT      0.192000
     26 H4          4.6960    2.3370   -2.9910 ha        1 KLT      0.189000
     27 H5          3.0240    4.0330   -3.7470 ha        1 KLT      0.199000
     28 HO8         0.5150    5.8590   -4.0740 ho        1 KLT      0.442000
     29 H10         1.8600    6.3220   -1.1060 ha        1 KLT      0.149000
     30 H11         0.6870    7.7210    0.5960 ha        1 KLT      0.155000
     31 H12        -1.7690    7.5190    0.9400 ha        1 KLT      0.159000
     32 H13        -3.1200    5.9070   -0.4320 ha        1 KLT      0.171000
     33 HN2        -0.9160    3.3670   -4.1230 hn        1 KLT      0.327500
     34 H131        2.2910   -1.7070    0.0210 hn        1 KLT      0.459800
@<TRIPOS>BOND
     1    1    2 2   
     2    2    3 2   
     3    2    4 1   
     4    2    5 1   
     5    4   23 1   
     6    4   24 1   
     7    4   34 1   
     8    5    6 ar  
     9    5    7 ar  
    10    6   11 ar  
    11    6   25 1   
    12    7    8 1   
    13    7    9 ar  
    14    9   10 ar  
    15    9   26 1   
    16   10   11 ar  
    17   10   27 1   
    18   11   12 1   
    19   12   13 1   
    20   12   14 1   
    21   12   22 1   
    22   13   28 1   
    23   14   15 ar  
    24   14   19 ar  
    25   15   16 ar  
    26   15   29 1   
    27   16   17 ar  
    28   16   30 1   
    29   17   18 ar  
    30   17   31 1   
    31   18   19 ar  
    32   18   32 1   
    33   19   20 1   
    34   20   21 2   
    35   20   22 1   
    36   22   33 1   
@<TRIPOS>SUBSTRUCTURE
     1 KLT         1 TEMP              0 ****  ****    0 ROOT
