@<TRIPOS>MOLECULE
KLV
   24    24     1     0     0
SMALL
bcc


@<TRIPOS>ATOM
      1 C          -3.6070    2.5760    0.2860 c3        1 KLV     -0.179000
      2 O          -4.6830   -2.1480   -0.3820 o         1 KLV     -0.432000
      3 P           4.2950    0.1930   -0.0860 p3        1 KLV      2.464000
      4 C1         -3.2520    1.1490    0.0820 c2        1 KLV      0.101000
      5 O1         -2.5930   -1.5800   -0.3100 os        1 KLV     -0.213000
      6 C2         -4.2490    0.2060   -0.0490 c2        1 KLV     -0.426000
      7 C3         -3.9200   -1.1720   -0.2460 c2        1 KLV      0.358000
      8 O3          3.8310    1.5850    0.1140 o         1 KLV     -1.159667
      9 C4         -1.5880   -0.6280   -0.1780 ca        1 KLV      0.171000
     10 O4          4.7300   -0.5970    1.0860 o         1 KLV     -1.159667
     11 C5         -1.9050    0.7550    0.0200 ca        1 KLV     -0.298000
     12 O5          4.7200   -0.2380   -1.4350 o         1 KLV     -1.159667
     13 C6         -0.7950    1.6490    0.1420 ca        1 KLV     -0.059000
     14 C7          0.4890    1.2230    0.0770 ca        1 KLV     -0.264000
     15 C8          0.8200   -0.1870   -0.1250 ca        1 KLV      0.329000
     16 C9         -0.2990   -1.0980   -0.2500 ca        1 KLV     -0.357000
     17 H          -3.1860    3.1990   -0.5420 hc        1 KLV      0.070667
     18 HA         -4.7150    2.7200    0.3110 hc        1 KLV      0.070667
     19 HB         -3.1790    2.9430    1.2520 hc        1 KLV      0.070667
     20 H2         -5.3110    0.4630   -0.0080 ha        1 KLV      0.122000
     21 H6         -1.0180    2.7160    0.2950 ha        1 KLV      0.090000
     22 H7          1.3490    1.9100    0.1710 ha        1 KLV      0.180000
     23 H9         -0.0890   -2.1620   -0.4030 ha        1 KLV      0.137000
     24 O2          2.0150   -0.5800   -0.1860 o         1 KLV     -0.456000
@<TRIPOS>BOND
     1    1    4 1   
     2    1   17 1   
     3    1   18 1   
     4    1   19 1   
     5    2    7 1   
     6    3    8 1   
     7    3   10 1   
     8    3   12 1   
     9    4    6 1   
    10    4   11 1   
    11    5    7 1   
    12    5    9 1   
    13    6    7 1   
    14    6   20 1   
    15    9   11 1   
    16    9   16 1   
    17   11   13 1   
    18   13   14 1   
    19   13   21 1   
    20   14   15 1   
    21   14   22 1   
    22   15   16 1   
    23   15   24 1   
    24   16   23 1   
@<TRIPOS>SUBSTRUCTURE
     1 KLV         1 TEMP              0 ****  ****    0 ROOT
