@<TRIPOS>MOLECULE
KLV
   24    24     1     0     0
SMALL
bcc


@<TRIPOS>ATOM
      1 C           0.1610    0.2820    0.0470 c3        1 KLV     -0.182000
      2 O           4.1790   -0.7090    2.6260 o         1 KLV     -0.427000
      3 P           4.8770    1.8390   -6.0180 p5        1 KLV      1.490500
      4 C1          1.6170    0.0020    0.1700 c2        1 KLV      0.112000
      5 O1          4.3730   -0.5630    0.4780 os        1 KLV     -0.210000
      6 C2          2.1660   -0.1090    1.4290 c2        1 KLV     -0.439000
      7 C3          3.5440   -0.4520    1.5860 c2        1 KLV      0.371000
      8 O3          4.0900    2.1340   -7.2430 o         1 KLV     -0.864833
      9 C4          3.8470   -0.2810   -0.7900 c2        1 KLV     -0.141000
     10 O4          4.6950    2.7270   -4.8340 o         1 KLV     -0.864833
     11 C5          2.4130   -0.1470   -0.9840 c2        1 KLV     -0.316000
     12 O5          6.1260    1.0460   -6.1440 o         1 KLV     -0.864833
     13 C6          1.8190   -0.2460   -2.2640 c2        1 KLV      0.049000
     14 C7          2.2810   -0.0810   -3.5290 c2        1 KLV     -0.378000
     15 C8          3.4740    0.5580   -4.0320 c2        1 KLV      0.289000
     16 C9          4.7350   -0.1770   -1.8010 c1        1 KLV      0.104000
     17 H          -0.3750   -0.6310   -0.3140 hc        1 KLV      0.071000
     18 HA         -0.2760    0.5770    1.0320 hc        1 KLV      0.071000
     19 HB         -0.0180    1.1090   -0.6830 hc        1 KLV      0.071000
     20 H2          1.5830    0.0460    2.3400 ha        1 KLV      0.121000
     21 H6          0.7500   -0.5570   -2.2200 ha        1 KLV      0.075000
     22 H7          1.6050   -0.4120   -4.3420 ha        1 KLV      0.115000
     23 H9          4.1440    1.1830   -3.3890 h4        1 KLV      0.194000
     24 O2          3.7050    0.5050   -5.2730 os        1 KLV     -0.445000
@<TRIPOS>BOND
     1    1    4 1   
     2    1   17 1   
     3    1   18 1   
     4    1   19 1   
     5    2    7 1   
     6    3    8 1   
     7    3   10 1   
     8    3   12 1   
     9    3   24 1   
    10    4    6 1   
    11    4   11 1   
    12    5    7 1   
    13    5    9 1   
    14    6    7 1   
    15    6   20 1   
    16    9   11 1   
    17    9   16 1   
    18   11   13 1   
    19   13   14 1   
    20   13   21 1   
    21   14   15 1   
    22   14   22 1   
    23   15   23 1   
    24   15   24 1   
@<TRIPOS>SUBSTRUCTURE
     1 KLV         1 TEMP              0 ****  ****    0 ROOT
