@<TRIPOS>MOLECULE
KLV
   24    22     1     0     0
SMALL
bcc


@<TRIPOS>ATOM
      1 C          -2.7820   -0.3410    1.8930 c3        1 KLV     -0.179000
      2 O           1.5410   -0.4630    4.1770 o         1 KLV     -0.432000
      3 P           2.0850    1.0710   -3.6820 p3        1 KLV      2.464000
      4 C1         -1.2730   -0.2290    1.9010 c2        1 KLV      0.101000
      5 O1          1.6340   -0.1760    1.9000 os        1 KLV     -0.213000
      6 C2         -0.5490   -0.3050    3.1510 c1        1 KLV     -0.426000
      7 O2          1.6010   -0.2830   -3.0270 o         1 KLV     -0.456000
      8 C3          0.9260   -0.3020    3.1410 c1        1 KLV      0.358000
      9 O3          0.8830    1.8980   -4.0730 o         1 KLV     -1.159667
     10 C4          0.8890   -0.2190    0.6070 c2        1 KLV      0.171000
     11 O4          2.9100    0.7700   -4.9100 o         1 KLV     -1.159667
     12 C5         -0.5160   -0.1710    0.6020 c2        1 KLV     -0.298000
     13 O5          2.9230    1.8400   -2.6880 o         1 KLV     -1.159667
     14 C6         -1.2090   -0.1510   -0.6120 c2        1 KLV     -0.059000
     15 C7         -0.5070   -0.1780   -1.8170 c1        1 KLV     -0.264000
     16 C8          0.8970   -0.2260   -1.8120 c1        1 KLV      0.329000
     17 C9          1.5900   -0.2460   -0.6020 c2        1 KLV     -0.357000
     18 H          -3.0460   -1.1690    1.4400 hc        1 KLV      0.070667
     19 HA         -3.1140   -0.3530    2.8160 hc        1 KLV      0.070667
     20 HB         -3.1640    0.4270    1.4190 hc        1 KLV      0.070667
     21 H2         -1.0320   -0.2670    3.9980 ha        1 KLV      0.122000
     22 H6         -2.1850   -0.1480   -0.6160 ha        1 KLV      0.090000
     23 H7         -0.9920   -0.1640   -2.6650 ha        1 KLV      0.180000
     24 H9          2.4910   -0.6170   -0.5410 ha        1 KLV      0.137000
@<TRIPOS>BOND
     1    1    4 1   
     2    1   18 1   
     3    1   19 1   
     4    1   20 1   
     5    2    8 1   
     6    3    9 1   
     7    3   11 1   
     8    3   13 1   
     9    4    6 1   
    10    4   12 1   
    11    5    8 1   
    12    5   10 1   
    13    6   21 1   
    14    7   16 1   
    15   10   12 1   
    16   10   17 1   
    17   12   14 1   
    18   14   15 1   
    19   14   22 1   
    20   15   23 1   
    21   16   17 1   
    22   17   24 1   
@<TRIPOS>SUBSTRUCTURE
     1 KLV         1 TEMP              0 ****  ****    0 ROOT
