@<TRIPOS>MOLECULE
KLV
   24    24     1     0     0
SMALL
bcc


@<TRIPOS>ATOM
      1 C           0.1610    0.2310    0.0450 c3        1 KLV     -0.182000
      2 O           4.2030   -0.5940    2.6430 o         1 KLV     -0.427000
      3 P           4.8360    1.8400   -6.0380 p5        1 KLV      1.490500
      4 C1          1.6250   -0.0010    0.1730 c2        1 KLV      0.112000
      5 O1          4.3960   -0.4760    0.4930 os        1 KLV     -0.210000
      6 C2          2.1750   -0.0750    1.4340 c2        1 KLV     -0.439000
      7 C3          3.5620   -0.3730    1.5990 c2        1 KLV      0.371000
      8 O3          4.0410    2.0930   -7.2690 o         1 KLV     -0.864833
      9 C4          3.8630   -0.2300   -0.7800 c2        1 KLV     -0.141000
     10 O4          4.6250    2.7390   -4.8680 o         1 KLV     -0.864833
     11 C5          2.4270   -0.1430   -0.9770 c2        1 KLV     -0.316000
     12 O5          6.1080    1.0840   -6.1520 o         1 KLV     -0.864833
     13 C6          1.8380   -0.2800   -2.2560 c2        1 KLV      0.049000
     14 C7          2.2960   -0.1210   -3.5230 c2        1 KLV     -0.378000
     15 C8          3.4700    0.5470   -4.0350 c2        1 KLV      0.288000
     16 C9          4.7500   -0.1150   -1.7920 c1        1 KLV      0.104000
     17 H          -0.3470   -0.7030   -0.3020 hc        1 KLV      0.071000
     18 HA         -0.2870    0.5290    1.0240 hc        1 KLV      0.071000
     19 HB         -0.0420    1.0420   -0.6980 hc        1 KLV      0.071000
     20 H2          1.5850    0.0760    2.3430 ha        1 KLV      0.121000
     21 H6          0.7780   -0.6250   -2.2080 ha        1 KLV      0.075000
     22 H7          1.6320   -0.4850   -4.3320 ha        1 KLV      0.115000
     23 H9          4.1200    1.2020   -3.4010 h4        1 KLV      0.194000
     24 O2          3.7040    0.4820   -5.2750 os        1 KLV     -0.444000
@<TRIPOS>BOND
     1    1    4 1   
     2    1   17 1   
     3    1   18 1   
     4    1   19 1   
     5    2    7 1   
     6    3    8 1   
     7    3   10 1   
     8    3   12 1   
     9    3   24 1   
    10    4    6 1   
    11    4   11 1   
    12    5    7 1   
    13    5    9 1   
    14    6    7 1   
    15    6   20 1   
    16    9   11 1   
    17    9   16 1   
    18   11   13 1   
    19   13   14 1   
    20   13   21 1   
    21   14   15 1   
    22   14   22 1   
    23   15   23 1   
    24   15   24 1   
@<TRIPOS>SUBSTRUCTURE
     1 KLV         1 TEMP              0 ****  ****    0 ROOT
