@<TRIPOS>MOLECULE
KLW
   18    15     1     0     0
SMALL
bcc


@<TRIPOS>ATOM
      1 N          -0.6940   -1.8260    2.0290 n         1 KLW     -0.646000
      2 C1          0.3540   -0.5860   -2.2220 c1        1 KLW     -0.097000
      3 O1         -2.2540   -0.2460    1.4990 o         1 KLW     -0.671100
      4 C2          1.0420    0.6160   -2.1590 c1        1 KLW     -0.097000
      5 O2          1.1040    1.6150    2.2590 o         1 KLW     -0.820300
      6 C3          1.0140    1.3710   -0.9970 c1        1 KLW     -0.069500
      7 O3         -0.6700    2.6270    1.4960 o         1 KLW     -0.820300
      8 C4          0.2980    0.9240    0.1030 cg        1 KLW     -0.021200
      9 C5         -0.3900   -0.2780    0.0400 cg        1 KLW     -0.076200
     10 C6         -0.3620   -1.0320   -1.1220 c1        1 KLW     -0.040500
     11 C7         -1.1840   -0.7580    1.2350 c         1 KLW      0.617300
     12 C8          0.2380    1.7650    1.3590 c         1 KLW      0.853800
     13 HN         -1.2160   -2.1810    2.6910 hn        1 KLW      0.316500
     14 HNA         0.1430   -2.1610    1.8790 hn        1 KLW      0.316500
     15 H1          0.3740   -1.1170   -3.0400 ha        1 KLW      0.050000
     16 H2          1.5590    0.9230   -2.9280 ha        1 KLW      0.050000
     17 H3          1.4990    2.2170   -0.9530 ha        1 KLW      0.079500
     18 H6         -0.8540   -1.8740   -1.1690 ha        1 KLW      0.073500
@<TRIPOS>BOND
     1    1   11 1   
     2    1   13 1   
     3    1   14 1   
     4    2    4 3   
     5    2   15 1   
     6    3   11 2   
     7    4   16 1   
     8    5   12 1   
     9    6    8 3   
    10    6   17 1   
    11    7   12 1   
    12    8   12 1   
    13    9   10 3   
    14    9   11 1   
    15   10   18 1   
@<TRIPOS>SUBSTRUCTURE
     1 KLW         1 TEMP              0 ****  ****    0 ROOT
