@<TRIPOS>MOLECULE
KLW
   19    19     1     0     0
SMALL
bcc


@<TRIPOS>ATOM
      1 N          -0.3690   -0.6380   -0.3250 nt        1 KLW     -0.665000
      2 C1          3.1390   -0.7530   -3.0720 ca        1 KLW     -0.162000
      3 O1          1.0020    0.5140    1.0700 o         1 KLW     -0.611100
      4 C2          3.5060    0.4900   -3.4970 ca        1 KLW     -0.081000
      5 O2          4.8280    2.1900   -1.0520 o         1 KLW     -0.514000
      6 C3          2.6060    1.4420   -2.8260 ca        1 KLW      0.002000
      7 O3          3.7480    1.5810    0.7300 oh        1 KLW     -0.579100
      8 C4          2.6300    1.3030   -1.4440 ca        1 KLW     -0.237600
      9 C5          1.7970    0.1150   -1.1570 ca        1 KLW     -0.121600
     10 C6          2.1420   -0.9180   -1.9890 ca        1 KLW     -0.067000
     11 C7          0.8050    0.0240   -0.0630 c         1 KLW      0.679700
     12 HN          2.8850    1.2560    1.0330 ho        1 KLW      0.458000
     13 HNA        -1.0720   -0.6690    0.3730 hn        1 KLW      0.316500
     14 H1          1.7250   -1.9280   -1.8590 ha        1 KLW      0.146000
     15 H2          3.5660   -1.6700   -3.5000 ha        1 KLW      0.155000
     16 H3          4.2720    0.7370   -4.2340 ha        1 KLW      0.174000
     17 H6          1.6570    1.6530   -3.3520 ha        1 KLW      0.138000
     18 HN3        -0.5830   -0.9580   -1.2330 hn        1 KLW      0.316500
     19 C8          3.7790    1.6900   -0.6250 c         1 KLW      0.652700
@<TRIPOS>BOND
     1    1   11 1   
     2    1   13 1   
     3    1   18 1   
     4    2    4 ar  
     5    2   10 ar  
     6    2   15 1   
     7    3   11 2   
     8    4    6 ar  
     9    4   16 1   
    10    5   19 2   
    11    6    8 ar  
    12    6   17 1   
    13    7   12 1   
    14    7   19 1   
    15    8    9 ar  
    16    8   19 1   
    17    9   10 ar  
    18    9   11 1   
    19   10   14 1   
@<TRIPOS>SUBSTRUCTURE
     1 KLW         1 TEMP              0 ****  ****    0 ROOT
