@<TRIPOS>MOLECULE
KLW
   19    19     1     0     0
SMALL
bcc


@<TRIPOS>ATOM
      1 N          -0.2680   -0.7530   -0.2010 n         1 KLW     -0.665000
      2 C1          3.1230   -0.7330   -3.0940 ca        1 KLW     -0.162000
      3 O1          1.0960    0.4960    1.1150 o         1 KLW     -0.611100
      4 C2          3.4060    0.5200   -3.5530 ca        1 KLW     -0.081000
      5 O2          4.7370    2.3290   -1.1940 o         1 KLW     -0.514000
      6 C3          2.4850    1.4360   -2.8600 ca        1 KLW      0.002000
      7 O3          3.7660    1.6990    0.6420 oh        1 KLW     -0.579100
      8 C4          2.5740    1.3230   -1.4780 ca        1 KLW     -0.237600
      9 C5          1.8190    0.0980   -1.1370 ca        1 KLW     -0.121600
     10 C6          2.1830   -0.9300   -1.9660 ca        1 KLW     -0.067000
     11 C7          0.8790   -0.0250    0.0000 c         1 KLW      0.679700
     12 HN          2.9340    1.3360    0.9860 ho        1 KLW      0.458000
     13 HNA        -0.9380   -0.8080    0.5270 hn        1 KLW      0.316500
     14 H1          1.8260   -1.9580   -1.8030 ha        1 KLW      0.146000
     15 H2          3.5800   -1.6330   -3.5250 ha        1 KLW      0.155000
     16 H3          4.1260    0.7930   -4.3260 ha        1 KLW      0.174000
     17 H6          1.5050    1.5870   -3.3480 ha        1 KLW      0.138000
     18 HN3        -0.5010   -1.1010   -1.0940 hn        1 KLW      0.316500
     19 C8          3.7340    1.7840   -0.7150 c         1 KLW      0.652700
@<TRIPOS>BOND
     1    1   11 1   
     2    1   13 1   
     3    1   18 1   
     4    2    4 ar  
     5    2   10 ar  
     6    2   15 1   
     7    3   11 2   
     8    4    6 ar  
     9    4   16 1   
    10    5   19 2   
    11    6    8 ar  
    12    6   17 1   
    13    7   12 1   
    14    7   19 1   
    15    8    9 ar  
    16    8   19 1   
    17    9   10 ar  
    18    9   11 1   
    19   10   14 1   
@<TRIPOS>SUBSTRUCTURE
     1 KLW         1 TEMP              0 ****  ****    0 ROOT
