@<TRIPOS>MOLECULE
KLW
   19    19     1     0     0
SMALL
bcc


@<TRIPOS>ATOM
      1 N          -0.2990   -0.7310   -0.2470 n         1 KLW     -0.665000
      2 C1          3.1430   -0.7370   -3.0800 ca        1 KLW     -0.162000
      3 O1          1.0570    0.4960    1.0980 o         1 KLW     -0.611100
      4 C2          3.4440    0.5150   -3.5320 ca        1 KLW     -0.081000
      5 O2          4.7470    2.3120   -1.1450 o         1 KLW     -0.514000
      6 C3          2.5190    1.4360   -2.8520 ca        1 KLW      0.002000
      7 O3          3.7440    1.6770    0.6710 oh        1 KLW     -0.579100
      8 C4          2.5840    1.3200   -1.4690 ca        1 KLW     -0.237600
      9 C5          1.8120    0.1000   -1.1440 ca        1 KLW     -0.121600
     10 C6          2.1820   -0.9280   -1.9700 ca        1 KLW     -0.067000
     11 C7          0.8530   -0.0180   -0.0230 c         1 KLW      0.679700
     12 HN          2.9050    1.3180    1.0010 ho        1 KLW      0.458000
     13 HNA        -0.9820   -0.7830    0.4690 hn        1 KLW      0.316500
     14 H1          1.8130   -1.9540   -1.8150 ha        1 KLW      0.146000
     15 H2          3.6000   -1.6400   -3.5050 ha        1 KLW      0.155000
     16 H3          4.1800    0.7830   -4.2910 ha        1 KLW      0.174000
     17 H6          1.5490    1.5960   -3.3570 ha        1 KLW      0.138000
     18 HN3        -0.5210   -1.0720   -1.1450 hn        1 KLW      0.316500
     19 C8          3.7340    1.7700   -0.6860 c         1 KLW      0.652700
@<TRIPOS>BOND
     1    1   11 1   
     2    1   13 1   
     3    1   18 1   
     4    2    4 ar  
     5    2   10 ar  
     6    2   15 1   
     7    3   11 2   
     8    4    6 ar  
     9    4   16 1   
    10    5   19 2   
    11    6    8 ar  
    12    6   17 1   
    13    7   12 1   
    14    7   19 1   
    15    8    9 ar  
    16    8   19 1   
    17    9   10 ar  
    18    9   11 1   
    19   10   14 1   
@<TRIPOS>SUBSTRUCTURE
     1 KLW         1 TEMP              0 ****  ****    0 ROOT
