@<TRIPOS>MOLECULE
KLW
   18    18     1     0     0
SMALL
bcc


@<TRIPOS>ATOM
      1 N           1.8860    1.5850   -0.6570 n         1 KLW     -0.646000
      2 C1         -2.7530    1.0090    0.3630 ca        1 KLW     -0.176000
      3 O1          1.1430    2.3920    1.3390 o         1 KLW     -0.671100
      4 C2         -2.8350   -0.3150   -0.0770 ca        1 KLW     -0.133000
      5 O2          1.1000   -2.2080    0.1910 o         1 KLW     -0.820300
      6 C3         -1.6760   -1.0190   -0.3780 ca        1 KLW     -0.127000
      7 O3          1.3980   -1.0630   -1.7000 o         1 KLW     -0.820300
      8 C4         -0.4110   -0.4180   -0.2660 ca        1 KLW     -0.072600
      9 C5         -0.3370    0.9100    0.1690 ca        1 KLW     -0.127600
     10 C6         -1.5080    1.6130    0.4920 ca        1 KLW     -0.098000
     11 C7          0.9490    1.6470    0.3460 c         1 KLW      0.668700
     12 HN          2.7940    1.9220   -0.4470 hn        1 KLW      0.316500
     13 HNA         1.8200    0.8500   -1.3350 hn        1 KLW      0.316500
     14 H1         -3.6660    1.5670    0.6110 ha        1 KLW      0.108000
     15 H2         -3.8170   -0.7980   -0.1770 ha        1 KLW      0.107000
     16 H3         -1.7290   -2.0680   -0.7050 ha        1 KLW      0.137000
     17 H6         -1.4240    2.6470    0.8600 ha        1 KLW      0.131000
     18 C8          0.7920   -1.2880   -0.6090 c         1 KLW      0.905200
@<TRIPOS>BOND
     1    1   11 1   
     2    1   12 1   
     3    1   13 1   
     4    2    4 ar  
     5    2   10 ar  
     6    2   14 1   
     7    3   11 2   
     8    4    6 ar  
     9    4   15 1   
    10    5   18 1   
    11    6    8 ar  
    12    6   16 1   
    13    7   18 1   
    14    8    9 ar  
    15    8   18 1   
    16    9   10 ar  
    17    9   11 1   
    18   10   17 1   
@<TRIPOS>SUBSTRUCTURE
     1 KLW         1 TEMP              0 ****  ****    0 ROOT
