@<TRIPOS>MOLECULE
KM0
   31    33     1     0     0
SMALL
bcc


@<TRIPOS>ATOM
      1 C1         -3.6000    0.7430   -0.3320 ca        1 KM0     -0.113500
      2 C2         -4.9070    1.2090   -0.4730 ca        1 KM0     -0.131000
      3 C3         -5.9820    0.4180   -0.0690 ca        1 KM0     -0.126000
      4 C4         -5.7500   -0.8440    0.4810 ca        1 KM0     -0.131000
      5 C5         -4.4470   -1.3130    0.6260 ca        1 KM0     -0.113500
      6 C6         -3.3660   -0.5200    0.2180 ca        1 KM0     -0.096300
      7 C7         -1.9900   -1.0750    0.3810 c3        1 KM0      0.171700
      8 O8         -1.0490   -0.0280    0.0950 os        1 KM0     -0.295900
      9 C9          0.2790   -0.3770    0.1590 ca        1 KM0      0.106800
     10 C10         0.7340   -1.6290    0.5270 ca        1 KM0     -0.222000
     11 C11         2.1140   -1.9070    0.5770 ca        1 KM0     -0.079000
     12 C12         3.0330   -0.9320    0.2600 ca        1 KM0     -0.006600
     13 C13         2.6120    0.3710   -0.1260 ca        1 KM0     -0.113300
     14 C14         1.2150    0.6750   -0.1860 ca        1 KM0      0.384600
     15 N15         0.7590    1.9240   -0.5580 nb        1 KM0     -0.630000
     16 C16         1.6500    2.8500   -0.8610 ca        1 KM0      0.402200
     17 C17         3.0630    2.6430   -0.8290 ca        1 KM0     -0.235300
     18 C18         3.5320    1.4070   -0.4630 ca        1 KM0     -0.086000
     19 CL19        4.6920   -1.3100    0.3340 cl        1 KM0     -0.094400
     20 H1         -2.7490    1.3690   -0.6480 ha        1 KM0      0.144500
     21 H2         -5.0870    2.2040   -0.9050 ha        1 KM0      0.133000
     22 H3         -7.0120    0.7870   -0.1820 ha        1 KM0      0.131000
     23 H4         -6.5960   -1.4690    0.8010 ha        1 KM0      0.133000
     24 H5         -4.2650   -2.3060    1.0630 ha        1 KM0      0.144500
     25 H7         -1.8330   -1.4330    1.4350 h1        1 KM0      0.050200
     26 H7A        -1.8270   -1.9250   -0.3370 h1        1 KM0      0.050200
     27 H10         0.0360   -2.4370    0.7910 ha        1 KM0      0.146000
     28 H11         2.4400   -2.9160    0.8750 ha        1 KM0      0.150000
     29 H16         1.2450    3.8370   -1.1540 h4        1 KM0      0.026100
     30 H17         3.7400    3.4660   -1.0950 ha        1 KM0      0.147000
     31 H18         4.6130    1.2000   -0.4230 ha        1 KM0      0.153000
@<TRIPOS>BOND
     1    1    2 ar  
     2    1    6 ar  
     3    1   20 1   
     4    2    3 ar  
     5    2   21 1   
     6    3    4 ar  
     7    3   22 1   
     8    4    5 ar  
     9    4   23 1   
    10    5    6 ar  
    11    5   24 1   
    12    6    7 1   
    13    7    8 1   
    14    7   25 1   
    15    7   26 1   
    16    8    9 1   
    17    9   10 ar  
    18    9   14 ar  
    19   10   11 ar  
    20   10   27 1   
    21   11   12 ar  
    22   11   28 1   
    23   12   13 ar  
    24   12   19 1   
    25   13   14 ar  
    26   13   18 ar  
    27   14   15 ar  
    28   15   16 ar  
    29   16   17 ar  
    30   16   29 1   
    31   17   18 ar  
    32   17   30 1   
    33   18   31 1   
@<TRIPOS>SUBSTRUCTURE
     1 KM0         1 TEMP              0 ****  ****    0 ROOT
