@<TRIPOS>MOLECULE
KM0
   31    33     1     0     0
SMALL
bcc


@<TRIPOS>ATOM
      1 C1          0.0560    1.0040    0.4130 ca        1 KM0     -0.113500
      2 C2          1.4400    1.0190    0.5580 ca        1 KM0     -0.131000
      3 C3          2.0900   -0.0450    1.1860 ca        1 KM0     -0.126000
      4 C4          1.3510   -1.1240    1.6690 ca        1 KM0     -0.131000
      5 C5         -0.0370   -1.1430    1.5280 ca        1 KM0     -0.113500
      6 C6         -0.6890   -0.0790    0.9000 ca        1 KM0     -0.096300
      7 C7         -2.1720   -0.0390    0.7370 c3        1 KM0      0.171700
      8 O8         -2.6930   -1.3320    1.0850 os        1 KM0     -0.295900
      9 C9         -4.0610   -1.4640    1.0320 ca        1 KM0      0.106800
     10 C10        -4.9200   -0.4640    0.6150 ca        1 KM0     -0.222000
     11 C11        -6.3110   -0.6810    0.5790 ca        1 KM0     -0.079000
     12 C12        -6.8380   -1.8940    0.9590 ca        1 KM0     -0.006600
     13 C13        -5.9930   -2.9520    1.3960 ca        1 KM0     -0.113300
     14 C14        -4.5770   -2.7540    1.4430 ca        1 KM0      0.384600
     15 N15        -3.7170   -3.7500    1.8650 nb        1 KM0     -0.630000
     16 C16        -4.2350   -4.9100    2.2270 ca        1 KM0      0.402200
     17 C17        -5.6330   -5.2030    2.2120 ca        1 KM0     -0.235300
     18 C18        -6.4990   -4.2240    1.7980 ca        1 KM0     -0.086000
     19 Cl19       -8.5260   -2.1140    0.8990 cl        1 KM0     -0.094400
     20 H1         -0.4550    1.8410   -0.0850 ha        1 KM0      0.144500
     21 H2          2.0220    1.8700    0.1760 ha        1 KM0      0.133000
     22 H3          3.1840   -0.0310    1.2990 ha        1 KM0      0.131000
     23 H4          1.8600   -1.9650    2.1620 ha        1 KM0      0.133000
     24 H5         -0.6230   -1.9980    1.9050 ha        1 KM0      0.144500
     25 H7         -2.4440    0.1920   -0.3290 h1        1 KM0      0.050200
     26 H7A        -2.6170    0.7360    1.4190 h1        1 KM0      0.050200
     27 H10        -4.5440    0.5200    0.3010 ha        1 KM0      0.146000
     28 H11        -6.9660    0.1390    0.2420 ha        1 KM0      0.150000
     29 H16        -3.5140   -5.6810    2.5580 h4        1 KM0      0.026100
     30 H17        -5.9840   -6.1940    2.5290 ha        1 KM0      0.147000
     31 H18        -7.5850   -4.4030    1.7700 ha        1 KM0      0.153000
@<TRIPOS>BOND
     1    1    2 ar  
     2    1    6 ar  
     3    1   20 1   
     4    2    3 ar  
     5    2   21 1   
     6    3    4 ar  
     7    3   22 1   
     8    4    5 ar  
     9    4   23 1   
    10    5    6 ar  
    11    5   24 1   
    12    6    7 1   
    13    7    8 1   
    14    7   25 1   
    15    7   26 1   
    16    8    9 1   
    17    9   10 ar  
    18    9   14 ar  
    19   10   11 ar  
    20   10   27 1   
    21   11   12 ar  
    22   11   28 1   
    23   12   13 ar  
    24   12   19 1   
    25   13   14 ar  
    26   13   18 ar  
    27   14   15 ar  
    28   15   16 ar  
    29   16   17 ar  
    30   16   29 1   
    31   17   18 ar  
    32   17   30 1   
    33   18   31 1   
@<TRIPOS>SUBSTRUCTURE
     1 KM0         1 TEMP              0 ****  ****    0 ROOT
