@<TRIPOS>MOLECULE
KM0
   31    33     1     0     0
SMALL
bcc


@<TRIPOS>ATOM
      1 C1         -0.0310   -1.1790    0.8790 ca        1 KM0     -0.113500
      2 C2          1.3570   -1.1690    0.7450 ca        1 KM0     -0.131000
      3 C3          2.0940   -0.0550    1.1460 ca        1 KM0     -0.126000
      4 C4          1.4400    1.0540    1.6870 ca        1 KM0     -0.131000
      5 C5          0.0540    1.0480    1.8250 ca        1 KM0     -0.113500
      6 C6         -0.6870   -0.0690    1.4200 ca        1 KM0     -0.096300
      7 C7         -2.1710   -0.0180    1.5750 c3        1 KM0      0.171700
      8 O8         -2.6940   -1.3260    1.2910 os        1 KM0     -0.295900
      9 C9         -4.0620   -1.4530    1.3480 ca        1 KM0      0.106800
     10 C10        -4.9200   -0.4310    1.7090 ca        1 KM0     -0.222000
     11 C11        -6.3110   -0.6430    1.7520 ca        1 KM0     -0.079000
     12 C12        -6.8400   -1.8740    1.4370 ca        1 KM0     -0.006600
     13 C13        -5.9960   -2.9560    1.0590 ca        1 KM0     -0.113300
     14 C14        -4.5790   -2.7630    1.0060 ca        1 KM0      0.384600
     15 N15        -3.7200   -3.7810    0.6410 nb        1 KM0     -0.630000
     16 C16        -4.2390   -4.9580    0.3400 ca        1 KM0      0.402200
     17 C17        -5.6380   -5.2470    0.3660 ca        1 KM0     -0.235300
     18 C18        -6.5030   -4.2460    0.7250 ca        1 KM0     -0.086000
     19 CL19       -8.5280   -2.0870    1.5040 cl        1 KM0     -0.094400
     20 H1         -0.6140   -2.0600    0.5660 ha        1 KM0      0.144500
     21 H2          1.8700   -2.0450    0.3210 ha        1 KM0      0.133000
     22 H3          3.1880   -0.0490    1.0390 ha        1 KM0      0.131000
     23 H4          2.0190    1.9330    2.0050 ha        1 KM0      0.133000
     24 H5         -0.4590    1.9210    2.2540 ha        1 KM0      0.144500
     25 H7         -2.6110    0.7220    0.8520 h1        1 KM0      0.050200
     26 H7A        -2.4460    0.2670    2.6270 h1        1 KM0      0.050200
     27 H10        -4.5430    0.5680    1.9710 ha        1 KM0      0.146000
     28 H11        -6.9650    0.1940    2.0440 ha        1 KM0      0.150000
     29 H16        -3.5180   -5.7470    0.0530 h4        1 KM0      0.026100
     30 H17        -5.9900   -6.2530    0.1020 ha        1 KM0      0.147000
     31 H18        -7.5900   -4.4210    0.7590 ha        1 KM0      0.153000
@<TRIPOS>BOND
     1    1    2 ar  
     2    1    6 ar  
     3    1   20 1   
     4    2    3 ar  
     5    2   21 1   
     6    3    4 ar  
     7    3   22 1   
     8    4    5 ar  
     9    4   23 1   
    10    5    6 ar  
    11    5   24 1   
    12    6    7 1   
    13    7    8 1   
    14    7   25 1   
    15    7   26 1   
    16    8    9 1   
    17    9   10 ar  
    18    9   14 ar  
    19   10   11 ar  
    20   10   27 1   
    21   11   12 ar  
    22   11   28 1   
    23   12   13 ar  
    24   12   19 1   
    25   13   14 ar  
    26   13   18 ar  
    27   14   15 ar  
    28   15   16 ar  
    29   16   17 ar  
    30   16   29 1   
    31   17   18 ar  
    32   17   30 1   
    33   18   31 1   
@<TRIPOS>SUBSTRUCTURE
     1 KM0         1 TEMP              0 ****  ****    0 ROOT
