@<TRIPOS>MOLECULE
KM1
   31    33     1     0     0
SMALL
bcc


@<TRIPOS>ATOM
      1 C1         -0.0190   -1.2500    1.0180 ca        1 KM1     -0.098000
      2 C2          1.3700   -1.2420    0.8830 ca        1 KM1     -0.123000
      3 C3          2.1070   -0.1060    1.2100 ca        1 KM1     -0.121000
      4 C4          1.4400    1.0310    1.6780 ca        1 KM1      0.016400
      5 C5          0.0510    1.0370    1.8180 ca        1 KM1     -0.126000
      6 C6         -0.6790   -0.1110    1.4860 ca        1 KM1     -0.086300
      7 C7         -2.1630   -0.0600    1.6520 c3        1 KM1      0.169700
      8 O8         -2.6980   -1.3310    1.2550 os        1 KM1     -0.296900
      9 C9         -4.0650   -1.4650    1.3450 ca        1 KM1      0.104800
     10 C10        -4.9120   -0.4660    1.7840 ca        1 KM1     -0.220000
     11 C11        -6.3030   -0.6820    1.8470 ca        1 KM1     -0.080000
     12 C12        -6.8390   -1.8930    1.4730 ca        1 KM1     -0.004600
     13 C13        -6.0040   -2.9510    1.0160 ca        1 KM1     -0.113300
     14 C14        -4.5880   -2.7550    0.9430 ca        1 KM1      0.385600
     15 N15        -3.7380   -3.7510    0.5050 nb        1 KM1     -0.631000
     16 C16        -4.2640   -4.9090    0.1490 ca        1 KM1      0.403200
     17 C17        -5.6630   -5.1990    0.1870 ca        1 KM1     -0.235300
     18 C18        -6.5190   -4.2200    0.6190 ca        1 KM1     -0.086000
     19 CL19       -8.5260   -2.1110    1.5660 cl        1 KM1     -0.092400
     20 CL20        2.3300    2.4250    2.0810 cl        1 KM1     -0.096400
     21 H1         -0.5980   -2.1510    0.7580 ha        1 KM1      0.167000
     22 H2          1.8870   -2.1400    0.5140 ha        1 KM1      0.140000
     23 H3          3.2020   -0.1030    1.1020 ha        1 KM1      0.147000
     24 H5         -0.4670    1.9350    2.1870 ha        1 KM1      0.144000
     25 H7         -2.4270    0.1340    2.7280 h1        1 KM1      0.053700
     26 H7A        -2.5990    0.7460    1.0010 h1        1 KM1      0.053700
     27 H10        -4.5290    0.5170    2.0920 ha        1 KM1      0.146000
     28 H11        -6.9500    0.1370    2.2010 ha        1 KM1      0.151000
     29 H16        -3.5500   -5.6810   -0.1960 h4        1 KM1      0.026100
     30 H17        -6.0210   -6.1890   -0.1270 ha        1 KM1      0.148000
     31 H18        -7.6050   -4.3970    0.6650 ha        1 KM1      0.153000
@<TRIPOS>BOND
     1    1    2 ar  
     2    1    6 ar  
     3    1   21 1   
     4    2    3 ar  
     5    2   22 1   
     6    3    4 ar  
     7    3   23 1   
     8    4    5 ar  
     9    4   20 1   
    10    5    6 ar  
    11    5   24 1   
    12    6    7 1   
    13    7    8 1   
    14    7   25 1   
    15    7   26 1   
    16    8    9 1   
    17    9   10 ar  
    18    9   14 ar  
    19   10   11 ar  
    20   10   27 1   
    21   11   12 ar  
    22   11   28 1   
    23   12   13 ar  
    24   12   19 1   
    25   13   14 ar  
    26   13   18 ar  
    27   14   15 ar  
    28   15   16 ar  
    29   16   17 ar  
    30   16   29 1   
    31   17   18 ar  
    32   17   30 1   
    33   18   31 1   
@<TRIPOS>SUBSTRUCTURE
     1 KM1         1 TEMP              0 ****  ****    0 ROOT
