@<TRIPOS>MOLECULE
KM1
   31    33     1     0     0
SMALL
bcc


@<TRIPOS>ATOM
      1 C1         -0.0230   -1.2370    0.9780 ca        1 KM1     -0.098000
      2 C2          1.3650   -1.2300    0.8370 ca        1 KM1     -0.123000
      3 C3          2.1080   -0.1100    1.2040 ca        1 KM1     -0.121000
      4 C4          1.4480    1.0110    1.7180 ca        1 KM1      0.016400
      5 C5          0.0590    1.0160    1.8650 ca        1 KM1     -0.126000
      6 C6         -0.6770   -0.1150    1.4920 ca        1 KM1     -0.086300
      7 C7         -2.1600   -0.0640    1.6620 c3        1 KM1      0.169700
      8 O8         -2.6960   -1.3390    1.2770 os        1 KM1     -0.296900
      9 C9         -4.0640   -1.4670    1.3570 ca        1 KM1      0.104800
     10 C10        -4.9100   -0.4670    1.7950 ca        1 KM1     -0.220000
     11 C11        -6.3020   -0.6790    1.8500 ca        1 KM1     -0.080000
     12 C12        -6.8400   -1.8870    1.4680 ca        1 KM1     -0.004600
     13 C13        -6.0060   -2.9450    1.0100 ca        1 KM1     -0.113300
     14 C14        -4.5900   -2.7530    0.9450 ca        1 KM1      0.385600
     15 N15        -3.7400   -3.7500    0.5060 nb        1 KM1     -0.631000
     16 C16        -4.2680   -4.9050    0.1420 ca        1 KM1      0.403200
     17 C17        -5.6680   -5.1910    0.1730 ca        1 KM1     -0.235300
     18 C18        -6.5230   -4.2110    0.6050 ca        1 KM1     -0.086000
     19 Cl19       -8.5280   -2.1000    1.5510 cl        1 KM1     -0.092400
     20 Cl20        2.3440    2.3850    2.1710 cl        1 KM1     -0.096400
     21 H1         -0.6070   -2.1270    0.6870 ha        1 KM1      0.167000
     22 H2          1.8770   -2.1150    0.4320 ha        1 KM1      0.140000
     23 H3          3.2030   -0.1070    1.0910 ha        1 KM1      0.147000
     24 H5         -0.4550    1.9010    2.2710 ha        1 KM1      0.144000
     25 H7         -2.4220    0.1390    2.7360 h1        1 KM1      0.053700
     26 H7A        -2.5990    0.7370    1.0050 h1        1 KM1      0.053700
     27 H10        -4.5260    0.5130    2.1100 ha        1 KM1      0.146000
     28 H11        -6.9480    0.1400    2.2040 ha        1 KM1      0.151000
     29 H16        -3.5550   -5.6770   -0.2030 h4        1 KM1      0.026100
     30 H17        -6.0270   -6.1780   -0.1470 ha        1 KM1      0.148000
     31 H18        -7.6100   -4.3850    0.6460 ha        1 KM1      0.153000
@<TRIPOS>BOND
     1    1    2 ar  
     2    1    6 ar  
     3    1   21 1   
     4    2    3 ar  
     5    2   22 1   
     6    3    4 ar  
     7    3   23 1   
     8    4    5 ar  
     9    4   20 1   
    10    5    6 ar  
    11    5   24 1   
    12    6    7 1   
    13    7    8 1   
    14    7   25 1   
    15    7   26 1   
    16    8    9 1   
    17    9   10 ar  
    18    9   14 ar  
    19   10   11 ar  
    20   10   27 1   
    21   11   12 ar  
    22   11   28 1   
    23   12   13 ar  
    24   12   19 1   
    25   13   14 ar  
    26   13   18 ar  
    27   14   15 ar  
    28   15   16 ar  
    29   16   17 ar  
    30   16   29 1   
    31   17   18 ar  
    32   17   30 1   
    33   18   31 1   
@<TRIPOS>SUBSTRUCTURE
     1 KM1         1 TEMP              0 ****  ****    0 ROOT
