@<TRIPOS>MOLECULE
KM1
   31    26     1     0     0
SMALL
bcc


@<TRIPOS>ATOM
      1 C1          2.8520    1.1180   -1.4570 c1        1 KM1     -0.098000
      2 C2          4.2380    1.0910   -1.4970 c1        1 KM1     -0.119000
      3 C3          4.9690    1.3080   -0.3390 c1        1 KM1     -0.119000
      4 C4          4.3150    1.5520    0.8580 c1        1 KM1     -0.072500
      5 C5          2.9290    1.5790    0.8990 c1        1 KM1     -0.103000
      6 C6          2.1980    1.3620   -0.2590 c1        1 KM1     -0.079000
      7 C7          0.6900    1.4740   -0.2310 c3        1 KM1      0.012000
      8 O8          0.1340    0.2260    0.1040 os        1 KM1     -0.180000
      9 C9         -1.2680    0.2300    0.1770 c2        1 KM1      0.125000
     10 C10        -2.1780    1.2730    0.0540 c1        1 KM1     -0.220000
     11 C11        -3.5410    1.0020   -0.0090 c1        1 KM1     -0.103000
     12 C12        -3.9930   -0.3100    0.0510 c1        1 KM1     -0.072500
     13 C13        -3.0710   -1.3670    0.1750 c1        1 KM1     -0.048000
     14 C14        -1.7240   -1.1000    0.2370 c2        1 KM1     -0.008000
     15 N15        -0.8190   -2.1370    0.3780 n1        1 KM1     -0.105000
     16 C16        -1.2610   -3.4250    0.4560 c1        1 KM1     -0.119000
     17 C17        -2.6240   -3.6990    0.3930 c1        1 KM1     -0.119000
     18 C18        -3.5210   -2.6760    0.2540 c1        1 KM1     -0.086000
     19 CL19       -5.7190   -0.4680    0.2350 cl        1 KM1     -0.016000
     20 CL20        5.2350    1.8680    2.3050 cl        1 KM1     -0.016000
     21 H1          2.3370    0.9650   -2.2730 ha        1 KM1      0.167000
     22 H2          4.6980    0.9190   -2.3410 ha        1 KM1      0.149500
     23 H3          5.9440    1.2880   -0.3680 ha        1 KM1      0.149500
     24 H5          2.4690    1.7510    1.7430 ha        1 KM1      0.147500
     25 H7          0.3670    1.7490   -1.1130 h1        1 KM1      0.093000
     26 H7A         0.4240    2.1390    0.4360 h1        1 KM1      0.093000
     27 H10        -1.8610    2.1940    0.0120 ha        1 KM1      0.146000
     28 H11        -4.1800    1.7350   -0.0950 ha        1 KM1      0.147500
     29 H16        -0.6220   -4.1560    0.5550 ha        1 KM1      0.149500
     30 H17        -2.9400   -4.6200    0.4490 ha        1 KM1      0.149500
     31 H18        -4.4770   -2.8670    0.2100 ha        1 KM1      0.153000
@<TRIPOS>BOND
     1    1    6 1   
     2    1   21 1   
     3    2    3 1   
     4    2   22 1   
     5    3   23 1   
     6    4    5 1   
     7    4   20 1   
     8    5   24 1   
     9    6    7 1   
    10    7    8 1   
    11    7   25 1   
    12    7   26 1   
    13    8    9 1   
    14    9   10 1   
    15    9   14 1   
    16   10   27 1   
    17   11   12 1   
    18   11   28 1   
    19   12   19 1   
    20   13   14 1   
    21   13   18 1   
    22   14   15 1   
    23   16   17 1   
    24   16   29 1   
    25   17   30 1   
    26   18   31 1   
@<TRIPOS>SUBSTRUCTURE
     1 KM1         1 TEMP              0 ****  ****    0 ROOT
