@<TRIPOS>MOLECULE
KM1
   31    33     1     0     0
SMALL
bcc


@<TRIPOS>ATOM
      1 C1         -2.8250    0.6190   -0.9120 ca        1 KM1     -0.098000
      2 C2         -4.1130    1.0270   -1.2590 ca        1 KM1     -0.123000
      3 C3         -5.2120    0.2170   -0.9800 ca        1 KM1     -0.121000
      4 C4         -5.0110   -1.0140   -0.3470 ca        1 KM1      0.016400
      5 C5         -3.7270   -1.4350    0.0050 ca        1 KM1     -0.126000
      6 C6         -2.6310   -0.6120   -0.2800 ca        1 KM1     -0.086300
      7 C7         -1.2760   -1.1020    0.1140 c3        1 KM1      0.169700
      8 O8         -0.3140   -0.1080   -0.2730 os        1 KM1     -0.296900
      9 C9          1.0000   -0.3960    0.0180 ca        1 KM1      0.104800
     10 C10         1.4190   -1.5560    0.6410 ca        1 KM1     -0.220000
     11 C11         2.7850   -1.7760    0.9030 ca        1 KM1     -0.080000
     12 C12         3.7250   -0.8380    0.5420 ca        1 KM1     -0.004600
     13 C13         3.3400    0.3710   -0.1020 ca        1 KM1     -0.113300
     14 C14         1.9570    0.6170   -0.3790 ca        1 KM1      0.385600
     15 N15         1.5360    1.7750   -1.0020 nb        1 KM1     -0.631000
     16 C16         2.4460    2.6680   -1.3440 ca        1 KM1      0.403200
     17 C17         3.8480    2.5130   -1.1100 ca        1 KM1     -0.235300
     18 C18         4.2820    1.3680   -0.4920 ca        1 KM1     -0.086000
     19 CL19        5.3660   -1.1450    0.8780 cl        1 KM1     -0.092400
     20 CL20       -6.3450   -2.0120   -0.0010 cl        1 KM1     -0.096400
     21 H1         -1.9580    1.2630   -1.1350 ha        1 KM1      0.167000
     22 H2         -4.2630    1.9970   -1.7570 ha        1 KM1      0.140000
     23 H3         -6.2270    0.5420   -1.2550 ha        1 KM1      0.147000
     24 H5         -3.5760   -2.4040    0.5030 ha        1 KM1      0.144000
     25 H7         -1.2260   -1.2520    1.2270 h1        1 KM1      0.053700
     26 H7A        -1.0430   -2.0680   -0.4120 h1        1 KM1      0.053700
     27 H10         0.7040   -2.3330    0.9470 ha        1 KM1      0.146000
     28 H11         3.0840   -2.7120    1.4020 ha        1 KM1      0.151000
     29 H16         2.0690    3.5820   -1.8400 h4        1 KM1      0.026100
     30 H17         4.5420    3.3030   -1.4250 ha        1 KM1      0.148000
     31 H18         5.3520    1.2040   -0.2910 ha        1 KM1      0.153000
@<TRIPOS>BOND
     1    1    2 ar  
     2    1    6 ar  
     3    1   21 1   
     4    2    3 ar  
     5    2   22 1   
     6    3    4 ar  
     7    3   23 1   
     8    4    5 ar  
     9    4   20 1   
    10    5    6 ar  
    11    5   24 1   
    12    6    7 1   
    13    7    8 1   
    14    7   25 1   
    15    7   26 1   
    16    8    9 1   
    17    9   10 ar  
    18    9   14 ar  
    19   10   11 ar  
    20   10   27 1   
    21   11   12 ar  
    22   11   28 1   
    23   12   13 ar  
    24   12   19 1   
    25   13   14 ar  
    26   13   18 ar  
    27   14   15 ar  
    28   15   16 ar  
    29   16   17 ar  
    30   16   29 1   
    31   17   18 ar  
    32   17   30 1   
    33   18   31 1   
@<TRIPOS>SUBSTRUCTURE
     1 KM1         1 TEMP              0 ****  ****    0 ROOT
