@<TRIPOS>MOLECULE
KMB
   40    42     1     0     0
SMALL
bcc


@<TRIPOS>ATOM
      1 C4         -0.4340    1.0280    0.4180 c3        1 KMB      0.161100
      2 N4          0.9150    0.6120   -0.0810 n4        1 KMB     -0.841600
      3 C6         -0.6720    0.6210    1.8350 ca        1 KMB     -0.163300
      4 C1         -0.5400    1.5640    2.8630 ca        1 KMB     -0.070000
      5 C2         -0.8490    1.2510    4.1910 ca        1 KMB      0.010700
      6 C3         -1.2950   -0.0670    4.4900 ca        1 KMB      0.193400
      7 N3         -1.6330   -0.4070    5.8090 nc        1 KMB     -0.552100
      8 C8         -2.1030   -1.6230    6.0320 cd        1 KMB      0.558800
      9 N2         -2.4970   -1.9230    7.4510 n4        1 KMB     -0.804600
     10 N1         -2.2630   -2.6400    5.0900 n         1 KMB     -0.498400
     11 C7         -1.9050   -2.3790    3.7370 c         1 KMB      0.720100
     12 O1         -2.0240   -3.2950    2.9220 o         1 KMB     -0.517500
     13 C41        -1.4180   -1.0150    3.4400 ca        1 KMB     -0.153600
     14 C5         -1.1120   -0.6720    2.1210 ca        1 KMB     -0.046000
     15 C9         -0.7370    2.2860    5.2430 c3        1 KMB     -0.018000
     16 S1         -2.3450    2.7810    5.8010 ss        1 KMB     -0.192000
     17 C10        -2.5760    4.3280    5.1290 ca        1 KMB     -0.063100
     18 C11        -1.6900    5.3870    5.3600 ca        1 KMB     -0.093500
     19 C12        -1.9850    6.6630    4.8860 ca        1 KMB     -0.128000
     20 C13        -3.1750    6.8940    4.1930 ca        1 KMB     -0.085000
     21 C14        -4.0640    5.8430    3.9660 ca        1 KMB     -0.128000
     22 C15        -3.7610    4.5610    4.4230 ca        1 KMB     -0.093500
     23 H41        -1.2070    0.5530   -0.2590 hx        1 KMB      0.128200
     24 H42        -0.5060    2.1510    0.3090 hx        1 KMB      0.128200
     25 HN41        1.0210   -0.4070   -0.0130 hn        1 KMB      0.467133
     26 HN42        1.0250    0.8930   -1.0630 hn        1 KMB      0.467133
     27 H1         -0.2100    2.5920    2.6280 ha        1 KMB      0.168000
     28 HN21       -3.4970   -2.1630    7.4860 hn        1 KMB      0.493133
     29 HN22       -1.9350   -2.7040    7.8110 hn        1 KMB      0.493133
     30 HN1        -2.6300   -3.5420    5.3160 hn        1 KMB      0.368500
     31 H5         -1.2470   -1.4290    1.3280 ha        1 KMB      0.177000
     32 H91        -0.1980    1.8800    6.1390 h1        1 KMB      0.104200
     33 H92        -0.1540    3.1700    4.8780 h1        1 KMB      0.104200
     34 H11        -0.7670    5.2180    5.9360 ha        1 KMB      0.140000
     35 H12        -1.2880    7.4940    5.0760 ha        1 KMB      0.153500
     36 H13        -3.4150    7.9080    3.8340 ha        1 KMB      0.157000
     37 H14        -5.0090    6.0260    3.4300 ha        1 KMB      0.153500
     38 H15        -4.4650    3.7340    4.2440 ha        1 KMB      0.140000
     39 H43         1.6550    1.0530    0.4760 hn        1 KMB      0.467133
     40 H23        -2.3330   -1.0880    8.0410 hn        1 KMB      0.493133
@<TRIPOS>BOND
     1    1    2 1   
     2    1    3 1   
     3    1   23 1   
     4    1   24 1   
     5    2   25 1   
     6    2   26 1   
     7    2   39 1   
     8    3    4 ar  
     9    3   14 ar  
    10    4    5 ar  
    11    4   27 1   
    12    5    6 ar  
    13    5   15 1   
    14    6    7 1   
    15    6   13 ar  
    16    7    8 2   
    17    8    9 1   
    18    8   10 1   
    19    9   28 1   
    20    9   29 1   
    21    9   40 1   
    22   10   11 1   
    23   10   30 1   
    24   11   12 2   
    25   11   13 1   
    26   13   14 ar  
    27   14   31 1   
    28   15   16 1   
    29   15   32 1   
    30   15   33 1   
    31   16   17 1   
    32   17   18 ar  
    33   17   22 ar  
    34   18   19 ar  
    35   18   34 1   
    36   19   20 ar  
    37   19   35 1   
    38   20   21 ar  
    39   20   36 1   
    40   21   22 ar  
    41   21   37 1   
    42   22   38 1   
@<TRIPOS>SUBSTRUCTURE
     1 KMB         1 TEMP              0 ****  ****    0 ROOT
