@<TRIPOS>MOLECULE
KMB
   38    40     1     0     0
SMALL
bcc


@<TRIPOS>ATOM
      1 C4          3.5580   -0.3900    2.7610 c3        1 KMB      0.210100
      2 N4          3.8750    0.2590    4.0130 n3        1 KMB     -0.917800
      3 C6          2.1590   -0.1290    2.2850 ca        1 KMB     -0.131300
      4 C1          1.9360    0.2330    0.9500 ca        1 KMB     -0.067000
      5 C2          0.6540    0.4500    0.4480 ca        1 KMB     -0.089300
      6 C3         -0.4680    0.3110    1.3180 ca        1 KMB      0.235400
      7 N3         -1.7560    0.5290    0.8390 nc        1 KMB     -0.685100
      8 C8         -2.7870    0.3990    1.6880 cd        1 KMB      0.675800
      9 N2         -4.0910    0.7340    1.2480 nh        1 KMB     -0.887800
     10 N1         -2.6430   -0.0020    3.0340 n         1 KMB     -0.507400
     11 C7         -1.3660   -0.2190    3.5810 c         1 KMB      0.720100
     12 O1         -1.2940   -0.5360    4.7820 o         1 KMB     -0.616500
     13 C41        -0.2230   -0.0600    2.6680 ca        1 KMB     -0.215600
     14 C5          1.0750   -0.2770    3.1440 ca        1 KMB     -0.020000
     15 C9          0.4950    0.8310   -0.9730 c3        1 KMB      0.029000
     16 S1          0.4650   -0.6830   -1.9060 ss        1 KMB     -0.179000
     17 C10         0.2540   -0.2180   -3.5190 ca        1 KMB      0.000900
     18 C11         0.1350    1.0960   -3.9830 ca        1 KMB     -0.136000
     19 C12        -0.0340    1.3520   -5.3440 ca        1 KMB     -0.113500
     20 C13        -0.0840    0.3000   -6.2550 ca        1 KMB     -0.143000
     21 C14         0.0340   -1.0150   -5.8000 ca        1 KMB     -0.113500
     22 C15         0.2010   -1.2740   -4.4450 ca        1 KMB     -0.136000
     23 H41         4.2780   -0.1050    1.9350 h1        1 KMB      0.035200
     24 H42         3.6720   -1.5020    2.9260 h1        1 KMB      0.035200
     25 HN41        4.8520    0.1710    4.2100 hn        1 KMB      0.353800
     26 HN42        3.6240    1.2270    3.9960 hn        1 KMB      0.353800
     27 H1          2.7980    0.3450    0.2700 ha        1 KMB      0.141000
     28 HN21       -4.1590    0.9090    0.2680 hn        1 KMB      0.417300
     29 HN22       -4.8160    0.1490    1.6000 hn        1 KMB      0.417300
     30 HN1        -3.4310   -0.0490    3.6410 hn        1 KMB      0.336500
     31 H5          1.2220   -0.5640    4.2000 ha        1 KMB      0.175000
     32 H91        -0.4380    1.4200   -1.1490 h1        1 KMB      0.079200
     33 H92         1.3570    1.4620   -1.3070 h1        1 KMB      0.079200
     34 H11         0.1710    1.9400   -3.2780 ha        1 KMB      0.135500
     35 H12        -0.1260    2.3900   -5.6940 ha        1 KMB      0.131000
     36 H13        -0.2160    0.5030   -7.3280 ha        1 KMB      0.131000
     37 H14        -0.0050   -1.8500   -6.5160 ha        1 KMB      0.131000
     38 H15         0.2930   -2.3110   -4.0870 ha        1 KMB      0.135500
@<TRIPOS>BOND
     1    1    2 1   
     2    1    3 1   
     3    1   23 1   
     4    1   24 1   
     5    2   25 1   
     6    2   26 1   
     7    3    4 ar  
     8    3   14 ar  
     9    4    5 ar  
    10    4   27 1   
    11    5    6 ar  
    12    5   15 1   
    13    6    7 1   
    14    6   13 ar  
    15    7    8 2   
    16    8    9 1   
    17    8   10 1   
    18    9   28 1   
    19    9   29 1   
    20   10   11 1   
    21   10   30 1   
    22   11   12 2   
    23   11   13 1   
    24   13   14 ar  
    25   14   31 1   
    26   15   16 1   
    27   15   32 1   
    28   15   33 1   
    29   16   17 1   
    30   17   18 ar  
    31   17   22 ar  
    32   18   19 ar  
    33   18   34 1   
    34   19   20 ar  
    35   19   35 1   
    36   20   21 ar  
    37   20   36 1   
    38   21   22 ar  
    39   21   37 1   
    40   22   38 1   
@<TRIPOS>SUBSTRUCTURE
     1 KMB         1 TEMP              0 ****  ****    0 ROOT
