@<TRIPOS>MOLECULE
KMB
   38    34     1     0     0
SMALL
bcc


@<TRIPOS>ATOM
      1 C4          0.1730    0.0690   -4.3880 c3        1 KMB     -0.036000
      2 N4          0.8490    1.3230   -4.6270 n3        1 KMB     -0.351000
      3 C6         -0.4390    0.0830   -3.0040 c2        1 KMB     -0.121000
      4 C1          0.1980   -0.3310   -1.8380 c2        1 KMB     -0.050000
      5 C2         -0.4160   -0.1440   -0.6100 c1        1 KMB     -0.083000
      6 C3         -1.7020    0.4740   -0.5400 c1        1 KMB      0.095000
      7 N3         -2.3130    0.6390    0.6700 n1        1 KMB     -0.254000
      8 C8         -3.5600    1.2160    0.7410 c1        1 KMB      0.227000
      9 N2         -4.3700    1.4370    1.8940 n3        1 KMB     -0.325000
     10 N1         -4.1970    1.6290   -0.4090 n2        1 KMB     -0.346000
     11 C7         -3.5980    1.4670   -1.6100 c1        1 KMB      0.357000
     12 O1         -4.2120    1.7520   -2.6500 o         1 KMB     -0.348000
     13 C41        -2.3300    0.8810   -1.6830 c1        1 KMB     -0.193000
     14 C5         -1.7060    0.6910   -2.9360 c1        1 KMB     -0.042000
     15 C9          0.8160   -0.8010    0.1440 c3        1 KMB     -0.239000
     16 S1          0.4590   -0.9040    1.9060 ss        1 KMB      0.232000
     17 C10         1.9930   -1.1480    2.8140 c2        1 KMB     -0.225000
     18 C11         2.6650   -0.0530    3.3550 c2        1 KMB     -0.126000
     19 C12         3.8270   -0.2460    4.0920 c1        1 KMB     -0.114000
     20 C13         4.3210   -1.5360    4.2890 c1        1 KMB     -0.128000
     21 C14         3.6530   -2.6260    3.7510 c1        1 KMB     -0.128000
     22 C15         2.4850   -2.4320    3.0110 c1        1 KMB     -0.147000
     23 H41        -0.5340   -0.0560   -5.0580 h1        1 KMB      0.075500
     24 H42         0.8130   -0.6610   -4.4520 h1        1 KMB      0.075500
     25 HN41        0.4040    1.7920   -5.2960 hn        1 KMB      0.150000
     26 HN42        1.7270    1.1590   -4.8950 hn        1 KMB      0.150000
     27 H1          1.0420   -0.8450   -1.8940 ha        1 KMB      0.159000
     28 HN21       -4.0260    1.3010    2.7190 hn        1 KMB      0.212000
     29 HN22       -5.2380    1.7680    1.7990 hn        1 KMB      0.212000
     30 HN1        -5.0310    2.0140   -0.3580 hn        1 KMB      0.250000
     31 H5         -2.1150    1.0710   -3.7530 ha        1 KMB      0.158000
     32 H91         0.9760   -1.7130   -0.2160 h1        1 KMB      0.119000
     33 H92         1.6070   -0.2550    0.0070 h1        1 KMB      0.119000
     34 H11         2.3130    0.8640    3.2150 ha        1 KMB      0.140000
     35 H12         4.2990    0.5230    4.4730 ha        1 KMB      0.131000
     36 H13         5.1400   -1.6730    4.8080 ha        1 KMB      0.130500
     37 H14         4.0040   -3.5410    3.8910 ha        1 KMB      0.130500
     38 H15         2.0220   -3.1880    2.6370 ha        1 KMB      0.130000
@<TRIPOS>BOND
     1    1    2 1   
     2    1    3 1   
     3    1   23 1   
     4    1   24 1   
     5    2   25 1   
     6    2   26 1   
     7    3    4 1   
     8    3   14 1   
     9    4    5 1   
    10    4   27 1   
    11    5   15 1   
    12    6    7 1   
    13    6   13 1   
    14    8    9 1   
    15    8   10 1   
    16    9   28 1   
    17    9   29 1   
    18   10   30 1   
    19   11   12 1   
    20   11   13 1   
    21   14   31 1   
    22   15   16 1   
    23   15   32 1   
    24   15   33 1   
    25   16   17 1   
    26   17   18 1   
    27   17   22 1   
    28   18   19 1   
    29   18   34 1   
    30   19   35 1   
    31   20   21 1   
    32   20   36 1   
    33   21   37 1   
    34   22   38 1   
@<TRIPOS>SUBSTRUCTURE
     1 KMB         1 TEMP              0 ****  ****    0 ROOT
