@<TRIPOS>MOLECULE
KMB
   39    41     1     0     0
SMALL
bcc


@<TRIPOS>ATOM
      1 C4         -1.0540   -0.0750    0.0320 c3        1 KMB      0.192100
      2 N4          0.1560    0.7340   -0.3620 nz        1 KMB     -0.849600
      3 C6         -1.1650   -0.1500    1.5060 ca        1 KMB     -0.268300
      4 C1         -1.6990    0.9460    2.2180 ca        1 KMB     -0.068000
      5 C2         -1.8260    0.9330    3.5950 ca        1 KMB     -0.072300
      6 C3         -1.4470   -0.2470    4.3280 ca        1 KMB      0.304400
      7 N3         -1.6070   -0.2960    5.6890 nc        1 KMB     -0.715100
      8 C8         -1.2410   -1.4350    6.3480 cd        1 KMB      0.759800
      9 N2         -1.4060   -1.4820    7.7150 nv        1 KMB     -0.920800
     10 N1         -0.7010   -2.5620    5.6970 ns        1 KMB     -0.508400
     11 C7         -0.5120   -2.5610    4.3010 c         1 KMB      0.725100
     12 O1         -0.0190   -3.5690    3.7700 o         1 KMB     -0.596500
     13 C41        -0.9190   -1.3440    3.5830 ca        1 KMB     -0.253600
     14 C5         -0.7800   -1.2940    2.1950 ca        1 KMB      0.017000
     15 C9         -2.3650    2.1270    4.2860 c3        1 KMB      0.027000
     16 S1         -1.6580    3.5500    3.4800 ss        1 KMB     -0.256000
     17 C10        -2.2250    4.9020    4.3440 ca        1 KMB      0.003900
     18 C11        -3.1710    4.8660    5.3700 ca        1 KMB     -0.127500
     19 C12        -3.5710    6.0470    5.9960 ca        1 KMB     -0.109500
     20 C13        -3.0320    7.2690    5.5990 ca        1 KMB     -0.122000
     21 C14        -2.0850    7.3090    4.5730 ca        1 KMB     -0.109500
     22 C15        -1.6810    6.1330    3.9500 ca        1 KMB     -0.127500
     23 H41        -0.9400   -1.0980   -0.4280 hx        1 KMB      0.109200
     24 H42        -1.9530    0.4370   -0.4190 hx        1 KMB      0.109200
     25 HN41        0.2130    0.8250   -1.3780 hn        1 KMB      0.455467
     26 HN42        0.0950    1.6660    0.0610 hn        1 KMB      0.455467
     27 H1         -2.0300    1.8430    1.6610 ha        1 KMB      0.152000
     28 HN21       -1.1700   -2.2910    8.2360 hn        1 KMB      0.467300
     29 HN22       -1.7900   -0.6970    8.1870 hn        1 KMB      0.467300
     30 HN1        -0.4400   -3.3820    6.2040 hn        1 KMB      0.349500
     31 H5         -0.3750   -2.1780    1.6710 ha        1 KMB      0.161000
     32 H91        -2.1080    2.1430    5.3750 h1        1 KMB      0.098200
     33 H92        -3.4810    2.1470    4.2020 h1        1 KMB      0.098200
     34 H11        -3.6090    3.9110    5.6940 ha        1 KMB      0.133000
     35 H12        -4.3170    6.0090    6.8040 ha        1 KMB      0.141500
     36 H13        -3.3490    8.2000    6.0930 ha        1 KMB      0.144000
     37 H14        -1.6550    8.2720    4.2580 ha        1 KMB      0.141500
     38 H15        -0.9300    6.1670    3.1460 ha        1 KMB      0.133000
     39 H43         1.0050    0.2800   -0.0130 hn        1 KMB      0.455467
@<TRIPOS>BOND
     1    1    2 1   
     2    1    3 1   
     3    1   23 1   
     4    1   24 1   
     5    2   25 1   
     6    2   26 1   
     7    2   39 1   
     8    3    4 ar  
     9    3   14 ar  
    10    4    5 ar  
    11    4   27 1   
    12    5    6 ar  
    13    5   15 1   
    14    6    7 1   
    15    6   13 ar  
    16    7    8 2   
    17    8    9 1   
    18    8   10 1   
    19    9   28 1   
    20    9   29 1   
    21   10   11 1   
    22   10   30 1   
    23   11   12 2   
    24   11   13 1   
    25   13   14 ar  
    26   14   31 1   
    27   15   16 1   
    28   15   32 1   
    29   15   33 1   
    30   16   17 1   
    31   17   18 ar  
    32   17   22 ar  
    33   18   19 ar  
    34   18   34 1   
    35   19   20 ar  
    36   19   35 1   
    37   20   21 ar  
    38   20   36 1   
    39   21   22 ar  
    40   21   37 1   
    41   22   38 1   
@<TRIPOS>SUBSTRUCTURE
     1 KMB         1 TEMP              0 ****  ****    0 ROOT
