@<TRIPOS>MOLECULE
KME
   39    39     1     0     0
SMALL
bcc


@<TRIPOS>ATOM
      1 C1          1.5380   -0.2660   -0.5010 c         1 KME      0.937600
      2 C2          0.0390   -0.3720    0.0080 c3        1 KME      0.204600
      3 O2         -0.1860   -0.8990    1.3270 os        1 KME     -0.375900
      4 C3         -0.6390    0.9950   -0.1370 c3        1 KME     -0.157400
      5 C4         -2.1580    0.9300   -0.2250 c3        1 KME      0.113100
      6 O4         -2.6940    2.1700   -0.6560 oh        1 KME     -0.609800
      7 C5         -2.5850   -0.1990   -1.1810 c3        1 KME      0.088100
      8 O5         -2.1730    0.1060   -2.5030 oh        1 KME     -0.620800
      9 C6         -1.9620   -1.5050   -0.6720 c3        1 KME      0.109100
     10 O6         -0.5380   -1.4050   -0.7680 os        1 KME     -0.391600
     11 C7         -2.3520   -2.6990   -1.5560 c3        1 KME      0.110100
     12 O7         -3.7640   -2.8710   -1.3770 os        1 KME     -0.426600
     13 C8         -1.6090   -3.9730   -1.1370 c3        1 KME      0.099400
     14 O8         -1.2820   -4.7640   -2.2660 oh        1 KME     -0.621800
     15 C9         -4.3510   -3.6440   -2.4100 c3        1 KME      0.116700
     16 C10         0.5820   -0.3750    2.3380 c2        1 KME      0.086100
     17 C11         0.2430   -0.6260    3.6180 c2        1 KME     -0.316200
     18 C12        -0.9200   -1.4160    4.0510 c3        1 KME     -0.024900
     19 O1A         2.4590   -0.5740    0.2920 o         1 KME     -0.798300
     20 O1B         1.6620    0.1600   -1.6760 o         1 KME     -0.798300
     21 H3         -0.2320    1.4710   -1.0700 hc        1 KME      0.073700
     22 H3A        -0.3420    1.6310    0.7350 hc        1 KME      0.073700
     23 H4         -2.6110    0.7600    0.7900 h1        1 KME      0.076700
     24 HO4        -2.4340    2.2750   -1.5810 ho        1 KME      0.407000
     25 H5         -3.7030   -0.2830   -1.2380 h1        1 KME      0.085700
     26 HO5        -1.2060    0.0060   -2.5280 ho        1 KME      0.434000
     27 H6         -2.2690   -1.6890    0.3920 h1        1 KME      0.073700
     28 H7         -2.1270   -2.4510   -2.6300 h1        1 KME      0.063700
     29 H8         -0.6830   -3.7070   -0.5600 h1        1 KME      0.070700
     30 H8A        -2.2760   -4.6260   -0.5130 h1        1 KME      0.070700
     31 HO8        -0.5740   -4.3050   -2.7330 ho        1 KME      0.406000
     32 H9         -3.8120   -4.6170   -2.5330 h1        1 KME      0.031367
     33 H9A        -4.3360   -3.0770   -3.3740 h1        1 KME      0.031367
     34 H9B        -5.4030   -3.8130   -2.0720 h1        1 KME      0.031367
     35 H10         1.4740    0.2020    2.0390 h4        1 KME      0.173000
     36 H11         0.8880   -0.2330    4.4160 ha        1 KME      0.111000
     37 H12        -1.5440   -0.8310    4.7730 hc        1 KME      0.021033
     38 H12A       -0.5860   -2.3530    4.5650 hc        1 KME      0.021033
     39 H12B       -1.5610   -1.7040    3.1820 hc        1 KME      0.021033
@<TRIPOS>BOND
     1    1    2 1   
     2    1   19 1   
     3    1   20 1   
     4    2    3 1   
     5    2    4 1   
     6    2   10 1   
     7    3   16 1   
     8    4    5 1   
     9    4   21 1   
    10    4   22 1   
    11    5    6 1   
    12    5    7 1   
    13    5   23 1   
    14    6   24 1   
    15    7    8 1   
    16    7    9 1   
    17    7   25 1   
    18    8   26 1   
    19    9   10 1   
    20    9   11 1   
    21    9   27 1   
    22   11   12 1   
    23   11   13 1   
    24   11   28 1   
    25   12   15 1   
    26   13   14 1   
    27   13   29 1   
    28   13   30 1   
    29   14   31 1   
    30   15   32 1   
    31   15   33 1   
    32   15   34 1   
    33   16   17 2   
    34   16   35 1   
    35   17   18 1   
    36   17   36 1   
    37   18   37 1   
    38   18   38 1   
    39   18   39 1   
@<TRIPOS>SUBSTRUCTURE
     1 KME         1 TEMP              0 ****  ****    0 ROOT
