@<TRIPOS>MOLECULE
KME
   39    39     1     0     0
SMALL
bcc


@<TRIPOS>ATOM
      1 C1          2.1490    0.5800   -1.4780 c         1 KME      0.938600
      2 C2          1.3030    0.5650   -0.1330 c3        1 KME      0.197600
      3 O2          1.7870   -0.2440    0.9430 os        1 KME     -0.372900
      4 C3          1.2240    1.9880    0.4290 c3        1 KME     -0.129400
      5 C4          0.0020    2.2520    1.2980 c3        1 KME      0.112100
      6 O4         -0.1790    3.6430    1.5060 oh        1 KME     -0.609800
      7 C5         -1.2530    1.6430    0.6480 c3        1 KME      0.088100
      8 O5         -1.5330    2.2960   -0.5770 oh        1 KME     -0.620800
      9 C6         -0.9940    0.1440    0.4540 c3        1 KME      0.110100
     10 O6          0.0660   -0.0290   -0.4880 os        1 KME     -0.429600
     11 C7         -2.2150   -0.5620   -0.1540 c3        1 KME      0.110100
     12 O7         -3.2390   -0.4990    0.8460 os        1 KME     -0.426600
     13 C8         -1.9080   -2.0240   -0.5000 c3        1 KME      0.101400
     14 O8         -2.5860   -2.4220   -1.6790 oh        1 KME     -0.619800
     15 C9         -4.5330   -0.7220    0.3120 c3        1 KME      0.116700
     16 C10         2.1110   -1.5470    0.6340 c2        1 KME      0.096100
     17 C11         2.4430   -2.3690    1.6470 c2        1 KME     -0.324200
     18 C12         2.8290   -3.7730    1.4300 c3        1 KME     -0.019900
     19 O1A         3.0770   -0.2520   -1.6000 o         1 KME     -0.798300
     20 O1B         1.8000    1.4560   -2.3070 o         1 KME     -0.798300
     21 H3          2.1530    2.1870    1.0200 hc        1 KME      0.081200
     22 H3A         1.2150    2.6880   -0.4520 hc        1 KME      0.081200
     23 H4          0.1440    1.8260    2.3290 h1        1 KME      0.076700
     24 HO4        -0.4310    4.0190    0.6510 ho        1 KME      0.407000
     25 H5         -2.1630    1.8130    1.2820 h1        1 KME      0.085700
     26 HO5        -0.8400    2.0310   -1.2060 ho        1 KME      0.436000
     27 H6         -0.7160   -0.3270    1.4350 h1        1 KME      0.067700
     28 H7         -2.5400   -0.0030   -1.0750 h1        1 KME      0.063700
     29 H8         -0.8010   -2.1690   -0.6170 h1        1 KME      0.068700
     30 H8A        -2.3010   -2.7050    0.3010 h1        1 KME      0.068700
     31 HO8        -2.1630   -1.9620   -2.4140 ho        1 KME      0.405000
     32 H9         -5.2000   -0.7800    1.2080 h1        1 KME      0.031700
     33 H9A        -4.8340    0.1330   -0.3440 h1        1 KME      0.031700
     34 H9B        -4.5640   -1.6760   -0.2710 h1        1 KME      0.031700
     35 H10         2.0920   -1.8220   -0.4340 h4        1 KME      0.173000
     36 H11         2.4550   -2.0130    2.6860 ha        1 KME      0.115000
     37 H12         3.8670   -3.9540    1.8070 hc        1 KME      0.018033
     38 H12A        2.1380   -4.4580    1.9860 hc        1 KME      0.018033
     39 H12B        2.7990   -4.0500    0.3470 hc        1 KME      0.018033
@<TRIPOS>BOND
     1    1    2 1   
     2    1   19 1   
     3    1   20 1   
     4    2    3 1   
     5    2    4 1   
     6    2   10 1   
     7    3   16 1   
     8    4    5 1   
     9    4   21 1   
    10    4   22 1   
    11    5    6 1   
    12    5    7 1   
    13    5   23 1   
    14    6   24 1   
    15    7    8 1   
    16    7    9 1   
    17    7   25 1   
    18    8   26 1   
    19    9   10 1   
    20    9   11 1   
    21    9   27 1   
    22   11   12 1   
    23   11   13 1   
    24   11   28 1   
    25   12   15 1   
    26   13   14 1   
    27   13   29 1   
    28   13   30 1   
    29   14   31 1   
    30   15   32 1   
    31   15   33 1   
    32   15   34 1   
    33   16   17 2   
    34   16   35 1   
    35   17   18 1   
    36   17   36 1   
    37   18   37 1   
    38   18   38 1   
    39   18   39 1   
@<TRIPOS>SUBSTRUCTURE
     1 KME         1 TEMP              0 ****  ****    0 ROOT
