@<TRIPOS>MOLECULE
KME
   39    39     1     0     0
SMALL
bcc


@<TRIPOS>ATOM
      1 C1          1.5540   -0.3240   -0.5300 c         1 KME      0.937600
      2 C2          0.0580   -0.4000   -0.0060 c3        1 KME      0.204600
      3 O2         -0.1660   -0.9200    1.3160 os        1 KME     -0.375900
      4 C3         -0.5960    0.9800   -0.1470 c3        1 KME     -0.157400
      5 C4         -2.1160    0.9440   -0.2210 c3        1 KME      0.113100
      6 O4         -2.6320    2.1940   -0.6490 oh        1 KME     -0.609800
      7 C5         -2.5740   -0.1770   -1.1720 c3        1 KME      0.088100
      8 O5         -2.1680    0.1170   -2.4970 oh        1 KME     -0.620800
      9 C6         -1.9720   -1.4940   -0.6660 c3        1 KME      0.109100
     10 O6         -0.5470   -1.4220   -0.7760 os        1 KME     -0.391600
     11 C7         -2.3940   -2.6820   -1.5440 c3        1 KME      0.110100
     12 O7         -3.8070   -2.8260   -1.3530 os        1 KME     -0.426600
     13 C8         -1.6720   -3.9700   -1.1300 c3        1 KME      0.099400
     14 O8         -1.3710   -4.7690   -2.2610 oh        1 KME     -0.621800
     15 C9         -4.4180   -3.5890   -2.3790 c3        1 KME      0.116700
     16 C10         0.6220   -0.4100    2.3190 c2        1 KME      0.086100
     17 C11         0.2910   -0.6520    3.6020 c2        1 KME     -0.316200
     18 C12        -0.8830   -1.4190    4.0470 c3        1 KME     -0.024900
     19 O1A         2.4750   -0.6480    0.2550 o         1 KME     -0.798300
     20 O1B         1.6740    0.0980   -1.7070 o         1 KME     -0.798300
     21 H3         -0.1880    1.4470   -1.0850 hc        1 KME      0.073700
     22 H3A        -0.2780    1.6120    0.7200 hc        1 KME      0.073700
     23 H4         -2.5630    0.7850    0.7990 h1        1 KME      0.076700
     24 HO4        -2.3790    2.2930   -1.5770 ho        1 KME      0.407000
     25 H5         -3.6940   -0.2390   -1.2180 h1        1 KME      0.085700
     26 HO5        -1.2040   -0.0010   -2.5310 ho        1 KME      0.434000
     27 H6         -2.2720   -1.6700    0.4010 h1        1 KME      0.073700
     28 H7         -2.1740   -2.4400   -2.6210 h1        1 KME      0.063700
     29 H8         -2.3450   -4.6080   -0.4980 h1        1 KME      0.070700
     30 H8A        -0.7350   -3.7210   -0.5620 h1        1 KME      0.070700
     31 HO8        -0.6570   -4.3240   -2.7340 ho        1 KME      0.406000
     32 H9         -3.8990   -4.5720   -2.5050 h1        1 KME      0.031367
     33 H9A        -4.4010   -3.0240   -3.3440 h1        1 KME      0.031367
     34 H9B        -5.4700   -3.7360   -2.0300 h1        1 KME      0.031367
     35 H10         1.5210    0.1500    2.0100 h4        1 KME      0.173000
     36 H11         0.9510   -0.2700    4.3930 ha        1 KME      0.111000
     37 H12        -1.5380   -1.6960    3.1840 hc        1 KME      0.021033
     38 H12A       -0.5630   -2.3620    4.5590 hc        1 KME      0.021033
     39 H12B       -1.4890   -0.8220    4.7750 hc        1 KME      0.021033
@<TRIPOS>BOND
     1    1    2 1   
     2    1   19 1   
     3    1   20 1   
     4    2    3 1   
     5    2    4 1   
     6    2   10 1   
     7    3   16 1   
     8    4    5 1   
     9    4   21 1   
    10    4   22 1   
    11    5    6 1   
    12    5    7 1   
    13    5   23 1   
    14    6   24 1   
    15    7    8 1   
    16    7    9 1   
    17    7   25 1   
    18    8   26 1   
    19    9   10 1   
    20    9   11 1   
    21    9   27 1   
    22   11   12 1   
    23   11   13 1   
    24   11   28 1   
    25   12   15 1   
    26   13   14 1   
    27   13   29 1   
    28   13   30 1   
    29   14   31 1   
    30   15   32 1   
    31   15   33 1   
    32   15   34 1   
    33   16   17 2   
    34   16   35 1   
    35   17   18 1   
    36   17   36 1   
    37   18   37 1   
    38   18   38 1   
    39   18   39 1   
@<TRIPOS>SUBSTRUCTURE
     1 KME         1 TEMP              0 ****  ****    0 ROOT
