@<TRIPOS>MOLECULE
KME
   39    37     1     0     0
SMALL
bcc


@<TRIPOS>ATOM
      1 C1          1.3100    0.4810    1.0840 c1        1 KME      0.346000
      2 C2         -0.2050    0.4880    1.0930 c3        1 KME      0.111000
      3 O2         -0.4620    0.4550    2.4180 os        1 KME     -0.186000
      4 C3         -0.7660    1.7640    0.4390 c3        1 KME     -0.232000
      5 C4         -0.5990    1.7820   -1.0410 c3        1 KME      0.020000
      6 O4          0.8200    1.8930   -1.3540 oh        1 KME     -0.371000
      7 C5         -1.1350    0.5680   -1.6890 c3        1 KME     -0.007000
      8 O5         -0.7720    0.5920   -3.0970 oh        1 KME     -0.329000
      9 C6         -0.6180   -0.7040   -1.0770 c3        1 KME      0.022000
     10 O6         -0.7840   -0.7450    0.3720 os        1 KME     -0.290000
     11 C7          0.8530   -0.8430   -1.4020 c3        1 KME     -0.043000
     12 O7          1.0820   -0.4260   -2.7200 os        1 KME     -0.286000
     13 C8          1.2730   -2.3050   -1.2510 c3        1 KME     -0.009000
     14 O8          0.7170   -3.0690   -2.3130 oh        1 KME     -0.353000
     15 C9          2.4160   -0.6030   -3.1520 c3        1 KME     -0.079000
     16 C10        -1.6690   -0.1790    2.7460 c2        1 KME      0.005000
     17 C11        -2.1340   -0.1280    4.0110 c1        1 KME     -0.279000
     18 C12        -1.3400    0.6270    5.0920 c2        1 KME     -0.157000
     19 O1A         1.9340   -0.5580    1.3990 o         1 KME     -0.511000
     20 O1B         1.9390    1.5370    0.8320 os        1 KME     -0.565000
     21 H3         -0.3030    2.5430    0.8180 hc        1 KME      0.108500
     22 H3A        -1.7140    1.8300    0.6470 hc        1 KME      0.108500
     23 H4         -1.0640    2.5620   -1.4010 h1        1 KME      0.086000
     24 HO4         0.9940    2.7150   -1.6640 ho        1 KME      0.255000
     25 H5         -2.1060    0.5780   -1.6150 h1        1 KME      0.099000
     26 HO5        -1.5100    0.6540   -3.5930 ho        1 KME      0.224000
     27 H6         -1.1000   -1.4600   -1.4710 h1        1 KME      0.121000
     28 H7          1.3780   -0.2870   -0.7870 h1        1 KME      0.128000
     29 H8          2.2450   -2.3680   -1.2800 h1        1 KME      0.068000
     30 H8A         0.9470   -2.6520   -0.3910 h1        1 KME      0.068000
     31 HO8         0.8680   -3.9480   -2.1630 ho        1 KME      0.260000
     32 H9          3.0200   -0.6070   -2.3670 h1        1 KME      0.073333
     33 H9A         2.4940   -1.4500   -3.6250 h1        1 KME      0.073333
     34 H9B         2.6680    0.1380   -3.7580 h1        1 KME      0.073333
     35 H10        -2.1810   -0.6660    2.0470 h4        1 KME      0.130000
     36 H11        -2.9820   -0.5730    4.2420 ha        1 KME      0.106000
     37 H12        -1.8010    0.5420    5.9580 ha        1 KME      0.069333
     38 H12A       -1.2740    1.5800    4.8470 ha        1 KME      0.069333
     39 H12B       -0.4380    0.2450    5.1630 ha        1 KME      0.069333
@<TRIPOS>BOND
     1    1    2 1   
     2    1   19 1   
     3    2    3 1   
     4    2    4 1   
     5    2   10 1   
     6    3   16 1   
     7    4    5 1   
     8    4   21 1   
     9    4   22 1   
    10    5    6 1   
    11    5    7 1   
    12    5   23 1   
    13    6   24 1   
    14    7    8 1   
    15    7    9 1   
    16    7   25 1   
    17    8   26 1   
    18    9   10 1   
    19    9   11 1   
    20    9   27 1   
    21   11   12 1   
    22   11   13 1   
    23   11   28 1   
    24   12   15 1   
    25   13   14 1   
    26   13   29 1   
    27   13   30 1   
    28   14   31 1   
    29   15   32 1   
    30   15   33 1   
    31   15   34 1   
    32   16   17 1   
    33   16   35 1   
    34   17   36 1   
    35   18   37 1   
    36   18   38 1   
    37   18   39 1   
@<TRIPOS>SUBSTRUCTURE
     1 KME         1 TEMP              0 ****  ****    0 ROOT
