@<TRIPOS>MOLECULE
KMH
   21    20     1     0     0
SMALL
bcc


@<TRIPOS>ATOM
      1 N           0.4270    0.6090   -0.6070 n3        1 KMH     -0.938800
      2 CB          1.6340    0.0650   -0.0030 c3        1 KMH      0.180500
      3 CG          1.4310   -0.4110    1.4330 c3        1 KMH     -0.105100
      4 CE          0.8390   -2.7380   -2.9630 c         1 KMH      0.633100
      5 OF1         0.8020   -3.9610   -3.1090 o         1 KMH     -0.491000
      6 OF2        -0.3330   -2.2030   -2.5170 oh        1 KMH     -0.576100
      7 CA          2.1640   -1.1190   -0.8350 c3        1 KMH     -0.186400
      8 C           2.2810   -0.7650   -2.2880 c         1 KMH      0.575100
      9 C2          2.0110   -1.8620   -3.2820 c3        1 KMH     -0.293400
     10 O           2.6140    0.3600   -2.6750 o         1 KMH     -0.525100
     11 HN1        -0.2300   -1.2540   -2.3480 ho        1 KMH      0.447000
     12 HN2         0.6650    1.3180   -1.2720 hn        1 KMH      0.363800
     13 HB          2.4580    0.8460    0.0060 h1        1 KMH      0.037700
     14 HG1C        2.3850   -0.8440    1.8170 hc        1 KMH      0.045700
     15 HG2C        0.6360   -1.1930    1.4890 hc        1 KMH      0.045700
     16 HG3C        1.1380    0.4430    2.0910 hc        1 KMH      0.045700
     17 HA1C        1.4900   -2.0060   -0.7020 hc        1 KMH      0.079200
     18 HA2C        3.1820   -1.3980   -0.4540 hc        1 KMH      0.079200
     19 H21C        2.9310   -2.5060   -3.3470 hc        1 KMH      0.110200
     20 H22C        1.8420   -1.4150   -4.3010 hc        1 KMH      0.110200
     21 HN3        -0.1840    0.9870    0.0870 hn        1 KMH      0.363800
@<TRIPOS>BOND
     1    1    2 1   
     2    1   12 1   
     3    1   21 1   
     4    2    3 1   
     5    2    7 1   
     6    2   13 1   
     7    3   14 1   
     8    3   15 1   
     9    3   16 1   
    10    4    5 2   
    11    4    6 1   
    12    4    9 1   
    13    6   11 1   
    14    7    8 1   
    15    7   17 1   
    16    7   18 1   
    17    8    9 1   
    18    8   10 2   
    19    9   19 1   
    20    9   20 1   
@<TRIPOS>SUBSTRUCTURE
     1 KMH         1 TEMP              0 ****  ****    0 ROOT
