@<TRIPOS>MOLECULE
KMH
   20    19     1     0     0
SMALL
bcc


@<TRIPOS>ATOM
      1 N          -2.3970    1.4410    0.1290 n3        1 KMH     -0.908800
      2 CB         -2.4650   -0.0010    0.3040 c3        1 KMH      0.174500
      3 CG         -3.5950   -0.6210   -0.5190 c3        1 KMH     -0.086100
      4 CE          1.8550   -0.4500   -0.9440 c         1 KMH      0.926600
      5 OF1         1.0640   -0.3870   -1.9280 o         1 KMH     -0.830800
      6 OF2         3.0810   -0.1680   -0.9930 o         1 KMH     -0.830800
      7 CA         -1.1680   -0.7510   -0.0260 c3        1 KMH     -0.245400
      8 C           0.0130   -0.3270    0.7980 c         1 KMH      0.601100
      9 C2          1.3080   -0.9560    0.4190 c3        1 KMH     -0.314400
     10 O          -0.0900    0.4930    1.7260 o         1 KMH     -0.613100
     11 HN1        -1.7080    1.8120    0.7600 hn        1 KMH      0.353300
     12 HN2        -2.1100    1.6550   -0.8080 hn        1 KMH      0.353300
     13 HB         -2.6930   -0.1730    1.3990 h1        1 KMH      0.046700
     14 HG1C       -3.3880   -0.5200   -1.6120 hc        1 KMH      0.027367
     15 HG2C       -3.6770   -1.7060   -0.2720 hc        1 KMH      0.027367
     16 HG3C       -4.5690   -0.1270   -0.2920 hc        1 KMH      0.027367
     17 HA1C       -1.3290   -1.8490    0.1280 hc        1 KMH      0.092700
     18 HA2C       -0.8810   -0.6010   -1.1100 hc        1 KMH      0.092700
     19 H21C        1.1700   -2.0620    0.3160 hc        1 KMH      0.053200
     20 H22C        2.0810   -0.7560    1.2030 hc        1 KMH      0.053200
@<TRIPOS>BOND
     1    1    2 1   
     2    1   11 1   
     3    1   12 1   
     4    2    3 1   
     5    2    7 1   
     6    2   13 1   
     7    3   14 1   
     8    3   15 1   
     9    3   16 1   
    10    4    5 1   
    11    4    6 1   
    12    4    9 1   
    13    7    8 1   
    14    7   17 1   
    15    7   18 1   
    16    8    9 1   
    17    8   10 2   
    18    9   19 1   
    19    9   20 1   
@<TRIPOS>SUBSTRUCTURE
     1 KMH         1 TEMP              0 ****  ****    0 ROOT
