@<TRIPOS>MOLECULE
KMH
   21    20     1     0     0
SMALL
bcc


@<TRIPOS>ATOM
      1 N           0.0460   -0.3770   -0.7040 n4        1 KMH     -0.877600
      2 CB          1.4320   -0.2790   -0.1410 c3        1 KMH      0.146500
      3 CG          1.4320   -0.5490    1.3590 c3        1 KMH     -0.128100
      4 CE          0.6670   -1.6590   -3.1090 c         1 KMH      0.898600
      5 OF1         0.2320   -2.6100   -2.3870 o         1 KMH     -0.839300
      6 OF2        -0.0830   -0.6990   -3.4620 o         1 KMH     -0.839300
      7 CA          2.4010   -1.2420   -0.8370 c3        1 KMH     -0.223400
      8 C           2.7730   -0.7770   -2.2310 c         1 KMH      0.574100
      9 C2          2.1720   -1.5540   -3.3610 c3        1 KMH     -0.289400
     10 O           3.5250    0.1910   -2.3820 o         1 KMH     -0.533100
     11 HN1         0.0010    0.0730   -1.6460 hn        1 KMH      0.476133
     12 HN2        -0.6250    0.0560   -0.0780 hn        1 KMH      0.476133
     13 HB          1.7820    0.7830   -0.3290 hx        1 KMH      0.101700
     14 HG1C        2.4620   -0.3660    1.7530 hc        1 KMH      0.064700
     15 HG2C        0.7280    0.1310    1.8970 hc        1 KMH      0.064700
     16 HG3C        1.1540   -1.6090    1.5760 hc        1 KMH      0.064700
     17 HA1C        1.9650   -2.2780   -0.8900 hc        1 KMH      0.104200
     18 HA2C        3.3370   -1.2860   -0.2180 hc        1 KMH      0.104200
     19 H21C        2.3670   -1.0420   -4.3370 hc        1 KMH      0.089700
     20 H22C        2.6220   -2.5790   -3.3870 hc        1 KMH      0.089700
     21 HN3        -0.2070   -1.3770   -0.8690 hn        1 KMH      0.476133
@<TRIPOS>BOND
     1    1    2 1   
     2    1   11 1   
     3    1   12 1   
     4    1   21 1   
     5    2    3 1   
     6    2    7 1   
     7    2   13 1   
     8    3   14 1   
     9    3   15 1   
    10    3   16 1   
    11    4    5 1   
    12    4    6 1   
    13    4    9 1   
    14    7    8 1   
    15    7   17 1   
    16    7   18 1   
    17    8    9 1   
    18    8   10 2   
    19    9   19 1   
    20    9   20 1   
@<TRIPOS>SUBSTRUCTURE
     1 KMH         1 TEMP              0 ****  ****    0 ROOT
