@<TRIPOS>MOLECULE
KMH
   21    20     1     0     0
SMALL
bcc


@<TRIPOS>ATOM
      1 N           0.2570   -0.0470   -0.7190 n8        1 KMH     -0.931800
      2 CB          1.5000   -0.1900    0.0180 c3        1 KMH      0.173500
      3 CG          1.3510   -0.6610    1.4640 c3        1 KMH     -0.133100
      4 CE          0.6880   -1.9560   -2.9280 c         1 KMH      0.648100
      5 OF1         0.3200   -2.9770   -2.3440 o         1 KMH     -0.506000
      6 OF2        -0.3390   -1.1800   -3.3790 oh        1 KMH     -0.573100
      7 CA          2.4660   -1.1490   -0.7010 c3        1 KMH     -0.186400
      8 C           2.7010   -0.6990   -2.1140 c         1 KMH      0.593100
      9 C2          2.1040   -1.5510   -3.2060 c3        1 KMH     -0.287400
     10 O           3.3730    0.2960   -2.3960 o         1 KMH     -0.519100
     11 HN1        -0.2290   -0.9220   -0.7850 hn        1 KMH      0.361300
     12 HN2        -0.3350    0.6240   -0.2720 hn        1 KMH      0.361300
     13 HB          1.9850    0.8340    0.0280 h1        1 KMH      0.071700
     14 HG1C        0.9070   -1.6850    1.5070 hc        1 KMH      0.043033
     15 HG2C        2.3510   -0.6870    1.9580 hc        1 KMH      0.043033
     16 HG3C        0.6930    0.0370    2.0370 hc        1 KMH      0.043033
     17 HA1C        3.4430   -1.1430   -0.1490 hc        1 KMH      0.079200
     18 HA2C        2.0580   -2.1940   -0.6870 hc        1 KMH      0.079200
     19 H21C        2.7280   -2.4840   -3.2910 hc        1 KMH      0.099700
     20 H22C        2.1610   -1.0060   -4.1870 hc        1 KMH      0.099700
     21 HN3        -0.0040   -0.3090   -3.6400 ho        1 KMH      0.440000
@<TRIPOS>BOND
     1    1    2 1   
     2    1   11 1   
     3    1   12 1   
     4    2    3 1   
     5    2    7 1   
     6    2   13 1   
     7    3   14 1   
     8    3   15 1   
     9    3   16 1   
    10    4    5 2   
    11    4    6 1   
    12    4    9 1   
    13    6   21 1   
    14    7    8 1   
    15    7   17 1   
    16    7   18 1   
    17    8    9 1   
    18    8   10 2   
    19    9   19 1   
    20    9   20 1   
@<TRIPOS>SUBSTRUCTURE
     1 KMH         1 TEMP              0 ****  ****    0 ROOT
