@<TRIPOS>MOLECULE
KMN
   64    66     1     0     0
SMALL
bcc


@<TRIPOS>ATOM
      1 C           6.3610    0.5160   -6.7080 c1        1 KMN     -0.101500
      2 O           0.4170   -0.5720    0.1960 os        1 KMN     -0.329900
      3 C01         2.3460   -0.2070   -4.0660 ca        1 KMN     -0.007000
      4 C1          1.7180   -0.9790   -6.2860 ca        1 KMN     -0.137300
      5 N1          0.7390   -2.9920   -7.3250 n3        1 KMN     -0.736600
      6 C02         3.6290    0.1110   -4.5340 ca        1 KMN     -0.037000
      7 C2          0.6930   -1.5360   -7.2280 c3        1 KMN      0.234100
      8 N2         -0.0210   -7.2580   -7.5090 nx        1 KMN     -0.689400
      9 C03         0.0500   -3.5050   -8.4960 c3        1 KMN      0.172800
     10 C3          1.3980   -0.7470   -4.9500 ca        1 KMN     -0.069000
     11 C04         2.0050    0.0050   -2.7180 cg        1 KMN     -0.103000
     12 C4          3.9720   -0.1060   -5.8750 ca        1 KMN     -0.051000
     13 C05         1.7140    0.1890   -1.5710 c1        1 KMN     -0.104100
     14 C06         1.3790    0.4250   -0.1940 c3        1 KMN      0.209500
     15 C07        -0.0800   -0.4410    1.4810 ca        1 KMN      0.118100
     16 C7          3.0090   -0.6570   -6.7510 ca        1 KMN      0.177100
     17 C08        -1.0930   -1.3620    1.8080 ca        1 KMN     -0.178500
     18 C8          0.2440   -5.0150   -8.6690 c3        1 KMN     -0.102400
     19 C09        -1.6530   -1.3270    3.0800 ca        1 KMN     -0.094500
     20 C10        -0.2160   -5.7540   -7.4070 c3        1 KMN      0.129500
     21 C11        -0.7670   -7.9710   -6.4190 c3        1 KMN      0.107800
     22 C12        -0.3070   -9.3970   -6.1990 c3        1 KMN     -0.129100
     23 C13        -0.3700   -7.8190   -8.8550 c3        1 KMN      0.107800
     24 C14        -1.8090   -7.6360   -9.2880 c3        1 KMN     -0.129100
     25 C15         0.5410   -5.1860   -6.1970 c3        1 KMN     -0.102400
     26 C16         0.3240   -3.6730   -6.1140 c3        1 KMN      0.172800
     27 C17        -1.2190   -0.3910    4.0210 ca        1 KMN     -0.156000
     28 C18        -0.2160    0.5160    3.6870 ca        1 KMN     -0.094500
     29 C19         0.3630    0.5000    2.4170 ca        1 KMN     -0.178500
     30 C20         5.2600    0.2250   -6.3350 cg        1 KMN     -0.158000
     31 H           7.3360    0.7770   -7.0360 ha        1 KMN      0.177500
     32 H061        0.9280    1.4500   -0.0700 h1        1 KMN      0.066200
     33 H062        2.2940    0.3280    0.4550 h1        1 KMN      0.066200
     34 H02         4.3750    0.5380   -3.8450 ha        1 KMN      0.158000
     35 H3          0.3860   -0.9790   -4.5820 ha        1 KMN      0.143000
     36 H21C       -0.3310   -1.1830   -6.9030 h1        1 KMN      0.057200
     37 H22C        0.8960   -1.1190   -8.2580 h1        1 KMN      0.057200
     38 H031       -1.0590   -3.2880   -8.4670 h1        1 KMN      0.056700
     39 H032        0.4790   -2.9960   -9.4060 h1        1 KMN      0.056700
     40 H161       -0.7630   -3.4820   -5.8670 h1        1 KMN      0.056700
     41 H162        0.9460   -3.2740   -5.2610 h1        1 KMN      0.056700
     42 H1          4.1580   -0.5830   -8.2800 ho        1 KMN      0.439000
     43 H10        -1.3260   -5.5900   -7.2680 hx        1 KMN      0.099700
     44 H111       -1.8630   -7.9480   -6.6810 hx        1 KMN      0.100450
     45 H112       -0.6250   -7.3900   -5.4620 hx        1 KMN      0.100450
     46 H131       -0.1320   -8.9230   -8.8190 hx        1 KMN      0.100450
     47 H132        0.3210   -7.3420   -9.6090 hx        1 KMN      0.100450
     48 H81C        1.3250   -5.2320   -8.8740 hc        1 KMN      0.068950
     49 H82C       -0.3620   -5.3260   -9.5600 hc        1 KMN      0.068950
     50 H08        -1.4240   -2.0920    1.0570 ha        1 KMN      0.140000
     51 H19         1.1530    1.2220    2.1740 ha        1 KMN      0.140000
     52 H09        -2.4460   -2.0430    3.3440 ha        1 KMN      0.137000
     53 H17        -1.6690   -0.3710    5.0240 ha        1 KMN      0.139000
     54 H151        0.1760   -5.6300   -5.2360 hc        1 KMN      0.068950
     55 H152        1.6390   -5.4010   -6.2920 hc        1 KMN      0.068950
     56 H121       -0.5620  -10.0570   -7.0630 hc        1 KMN      0.075033
     57 H122        0.7920   -9.4570   -6.0070 hc        1 KMN      0.075033
     58 H123       -0.8390   -9.7930   -5.2950 hc        1 KMN      0.075033
     59 H141       -2.5070   -8.2630   -8.6820 hc        1 KMN      0.075033
     60 H142       -1.8890   -7.9650  -10.3560 hc        1 KMN      0.075033
     61 H143       -2.1370   -6.5700   -9.2260 hc        1 KMN      0.075033
     62 H18         0.1270    1.2550    4.4280 ha        1 KMN      0.137000
     63 O1          3.2610   -0.8970   -8.0780 oh        1 KMN     -0.493100
     64 H21         0.9830   -7.4380   -7.3680 hn        1 KMN      0.441800
@<TRIPOS>BOND
     1    1   30 3   
     2    1   31 1   
     3    2   14 1   
     4    2   15 1   
     5    3    6 ar  
     6    3   10 ar  
     7    3   11 1   
     8    4    7 1   
     9    4   10 ar  
    10    4   16 ar  
    11    5    7 1   
    12    5    9 1   
    13    5   26 1   
    14    6   12 ar  
    15    6   34 1   
    16    7   36 1   
    17    7   37 1   
    18    8   20 1   
    19    8   21 1   
    20    8   23 1   
    21    8   64 1   
    22    9   18 1   
    23    9   38 1   
    24    9   39 1   
    25   10   35 1   
    26   11   13 3   
    27   12   16 ar  
    28   12   30 1   
    29   13   14 1   
    30   14   32 1   
    31   14   33 1   
    32   15   17 ar  
    33   15   29 ar  
    34   16   63 1   
    35   17   19 ar  
    36   17   50 1   
    37   18   20 1   
    38   18   48 1   
    39   18   49 1   
    40   19   27 ar  
    41   19   52 1   
    42   20   25 1   
    43   20   43 1   
    44   21   22 1   
    45   21   44 1   
    46   21   45 1   
    47   22   56 1   
    48   22   57 1   
    49   22   58 1   
    50   23   24 1   
    51   23   46 1   
    52   23   47 1   
    53   24   59 1   
    54   24   60 1   
    55   24   61 1   
    56   25   26 1   
    57   25   54 1   
    58   25   55 1   
    59   26   40 1   
    60   26   41 1   
    61   27   28 ar  
    62   27   53 1   
    63   28   29 ar  
    64   28   62 1   
    65   29   51 1   
    66   42   63 1   
@<TRIPOS>SUBSTRUCTURE
     1 KMN         1 TEMP              0 ****  ****    0 ROOT
