@<TRIPOS>MOLECULE
KMN
   64    66     1     0     0
SMALL
bcc


@<TRIPOS>ATOM
      1 C           7.0180    1.0510   -6.1860 c1        1 KMN     -0.101500
      2 O           0.2520   -0.4370   -0.1690 os        1 KMN     -0.329900
      3 C01         2.6780    0.6380   -4.0380 ca        1 KMN     -0.007000
      4 C1          2.1380    0.7310   -6.4080 ca        1 KMN     -0.136300
      5 N1          0.8400   -0.5730   -8.0530 n3        1 KMN     -0.736600
      6 C02         4.0430    0.7410   -4.3400 ca        1 KMN     -0.037000
      7 C2          1.1220    0.7530   -7.5110 c3        1 KMN      0.234100
      8 N2         -0.8650   -4.2600   -9.5730 n4        1 KMN     -0.689400
      9 C03         0.1840   -0.5300   -9.3470 c3        1 KMN      0.172800
     10 C3          1.7350    0.6390   -5.0780 ca        1 KMN     -0.069000
     11 C04         2.2490    0.5290   -2.7040 cg        1 KMN     -0.103000
     12 C4          4.4730    0.8430   -5.6700 ca        1 KMN     -0.051000
     13 C05         1.8830    0.4390   -1.5670 c1        1 KMN     -0.104100
     14 C06         1.4610    0.3420   -0.1960 c3        1 KMN      0.209500
     15 C07        -0.3440   -0.5560    1.0750 ca        1 KMN      0.118100
     16 C7          3.5110    0.8350   -6.7070 ca        1 KMN      0.177100
     17 C08        -1.5820   -1.2260    1.0630 ca        1 KMN     -0.178500
     18 C8          0.0400   -1.9210   -9.9720 c3        1 KMN     -0.102400
     19 C09        -2.2600   -1.4140    2.2620 ca        1 KMN     -0.094500
     20 C10        -0.7150   -2.8530   -9.0170 c3        1 KMN      0.129500
     21 C11        -1.8720   -5.0440   -8.7820 c3        1 KMN      0.107800
     22 C12        -1.7820   -6.5410   -8.9980 c3        1 KMN     -0.129100
     23 C13        -1.1840   -4.2970  -11.0370 c3        1 KMN      0.107800
     24 C14        -2.4840   -3.6350  -11.4420 c3        1 KMN     -0.129100
     25 C15         0.0150   -2.8740   -7.6660 c3        1 KMN     -0.102400
     26 C16         0.1460   -1.4480   -7.1260 c3        1 KMN      0.172800
     27 C17        -1.7220   -0.9430    3.4620 ca        1 KMN     -0.156000
     28 C18        -0.4970   -0.2810    3.4630 ca        1 KMN     -0.094500
     29 C19         0.2030   -0.0820    2.2720 ca        1 KMN     -0.178500
     30 C20         5.8460    0.9540   -5.9600 cg        1 KMN     -0.158000
     31 H           8.0580    1.1390   -6.3840 ha        1 KMN      0.177500
     32 H061        1.2580    1.3670    0.2250 h1        1 KMN      0.066200
     33 H062        2.2480   -0.1760    0.4210 h1        1 KMN      0.066200
     34 H02         4.7880    0.7440   -3.5280 ha        1 KMN      0.158000
     35 H3          0.6620    0.5750   -4.8360 ha        1 KMN      0.143000
     36 H21C        0.1790    1.2450   -7.1290 h1        1 KMN      0.057200
     37 H22C        1.5290    1.3850   -8.3550 h1        1 KMN      0.057200
     38 H031       -0.8410   -0.0560   -9.2910 h1        1 KMN      0.056700
     39 H032        0.8170    0.0950  -10.0400 h1        1 KMN      0.056700
     40 H161        0.7460   -1.4860   -6.1710 h1        1 KMN      0.056700
     41 H162       -0.8870   -1.0660   -6.8700 h1        1 KMN      0.056700
     42 H1          4.8080    1.0550   -8.0970 ho        1 KMN      0.439000
     43 H10        -1.7650   -2.4600   -8.8730 hx        1 KMN      0.099700
     44 H111       -1.7060   -4.8230   -7.6890 hx        1 KMN      0.100450
     45 H112       -2.8970   -4.6690   -9.0630 hx        1 KMN      0.100450
     46 H131       -0.3210   -3.8140  -11.5820 hx        1 KMN      0.100450
     47 H132       -1.2140   -5.3860  -11.3360 hx        1 KMN      0.100450
     48 H81C       -0.5190   -1.7950  -10.9360 hc        1 KMN      0.068950
     49 H82C        1.0570   -2.3370  -10.1970 hc        1 KMN      0.068950
     50 H08        -1.9910   -1.5900    0.1110 ha        1 KMN      0.140000
     51 H19         1.1690    0.4410    2.2930 ha        1 KMN      0.140000
     52 H09        -3.2280   -1.9370    2.2630 ha        1 KMN      0.137000
     53 H17        -2.2670   -1.0950    4.4050 ha        1 KMN      0.139000
     54 H151       -0.5470   -3.4700   -6.9020 hc        1 KMN      0.068950
     55 H152        1.0360   -3.3240   -7.7850 hc        1 KMN      0.068950
     56 H121       -2.0840   -6.8340  -10.0320 hc        1 KMN      0.075033
     57 H122       -0.7550   -6.9310   -8.7950 hc        1 KMN      0.075033
     58 H123       -2.4880   -7.0340   -8.2800 hc        1 KMN      0.075033
     59 H141       -3.3710   -4.2120  -11.0840 hc        1 KMN      0.075033
     60 H142       -2.5600   -2.5870  -11.0650 hc        1 KMN      0.075033
     61 H143       -2.5190   -3.6080  -12.5620 hc        1 KMN      0.075033
     62 H18        -0.0720    0.0910    4.4080 ha        1 KMN      0.137000
     63 O1          3.8470    0.9350   -8.0330 oh        1 KMN     -0.493100
     64 H21         0.0490   -4.7230   -9.4600 hn        1 KMN      0.441800
@<TRIPOS>BOND
     1    1   30 3   
     2    1   31 1   
     3    2   14 1   
     4    2   15 1   
     5    3    6 ar  
     6    3   10 ar  
     7    3   11 1   
     8    4    7 1   
     9    4   10 ar  
    10    4   16 ar  
    11    5    7 1   
    12    5    9 1   
    13    5   26 1   
    14    6   12 ar  
    15    6   34 1   
    16    7   36 1   
    17    7   37 1   
    18    8   20 1   
    19    8   21 1   
    20    8   23 1   
    21    8   64 1   
    22    9   18 1   
    23    9   38 1   
    24    9   39 1   
    25   10   35 1   
    26   11   13 3   
    27   12   16 ar  
    28   12   30 1   
    29   13   14 1   
    30   14   32 1   
    31   14   33 1   
    32   15   17 ar  
    33   15   29 ar  
    34   16   63 1   
    35   17   19 ar  
    36   17   50 1   
    37   18   20 1   
    38   18   48 1   
    39   18   49 1   
    40   19   27 ar  
    41   19   52 1   
    42   20   25 1   
    43   20   43 1   
    44   21   22 1   
    45   21   44 1   
    46   21   45 1   
    47   22   56 1   
    48   22   57 1   
    49   22   58 1   
    50   23   24 1   
    51   23   46 1   
    52   23   47 1   
    53   24   59 1   
    54   24   60 1   
    55   24   61 1   
    56   25   26 1   
    57   25   54 1   
    58   25   55 1   
    59   26   40 1   
    60   26   41 1   
    61   27   28 ar  
    62   27   53 1   
    63   28   29 ar  
    64   28   62 1   
    65   29   51 1   
    66   42   63 1   
@<TRIPOS>SUBSTRUCTURE
     1 KMN         1 TEMP              0 ****  ****    0 ROOT
