@<TRIPOS>MOLECULE
KMP
   31    33     1     0     0
SMALL
bcc


@<TRIPOS>ATOM
      1 C1         -0.0640   -0.1170    0.1170 ca        1 KMP     -0.353000
      2 C2          1.3320   -0.1430    0.0220 ca        1 KMP      0.254100
      3 C3          2.1500   -0.1000    1.1770 ca        1 KMP     -0.280600
      4 C4          1.5060   -0.0300    2.4280 ca        1 KMP      0.220100
      5 C5          0.1080   -0.0030    2.5570 ca        1 KMP     -0.236000
      6 C6         -0.6590   -0.0470    1.3870 ca        1 KMP      0.224100
      7 C9          3.6040   -0.1230    1.1130 c         1 KMP      0.584900
      8 C10         4.2670   -0.0800    2.4330 cc        1 KMP     -0.069100
      9 C11         3.5790   -0.0090    3.6050 cd        1 KMP      0.139900
     10 C14         4.1160    0.0540    4.9600 ca        1 KMP     -0.092800
     11 C15         5.3710   -0.4980    5.2540 ca        1 KMP     -0.054000
     12 C16         5.8850   -0.4290    6.5450 ca        1 KMP     -0.196000
     13 C17         5.1380    0.1950    7.5530 ca        1 KMP      0.142100
     14 C18         3.8760    0.7490    7.2750 ca        1 KMP     -0.196000
     15 C19         3.3760    0.6730    5.9820 ca        1 KMP     -0.054000
     16 O12         2.1840    0.0150    3.6270 os        1 KMP     -0.212200
     17 O13         4.2830   -0.1690    0.0760 o         1 KMP     -0.539100
     18 O24         5.5820    0.3020    8.8500 oh        1 KMP     -0.494100
     19 O27         5.6440   -0.1120    2.4570 oh        1 KMP     -0.492100
     20 O29        -2.0190   -0.0170    1.5530 oh        1 KMP     -0.483100
     21 O30         1.9710   -0.2120   -1.1830 oh        1 KMP     -0.451100
     22 H1         -0.6850   -0.1510   -0.7880 ha        1 KMP      0.144000
     23 H5         -0.3670    0.0500    3.5450 ha        1 KMP      0.176000
     24 H15         5.9580   -0.9890    4.4600 ha        1 KMP      0.154500
     25 H16         6.8700   -0.8600    6.7700 ha        1 KMP      0.146000
     26 H18         3.3050    1.2330    8.0800 ha        1 KMP      0.146000
     27 H19         2.3870    1.1010    5.7530 ha        1 KMP      0.154500
     28 H24         6.4560   -0.1110    8.9020 ho        1 KMP      0.422000
     29 H27         5.9470   -0.0630    1.5320 ho        1 KMP      0.445000
     30 H29        -2.4340   -0.0550    0.6780 ho        1 KMP      0.428000
     31 H30         1.2990   -0.2350   -1.8840 ho        1 KMP      0.424000
@<TRIPOS>BOND
     1    1    2 ar  
     2    1    6 ar  
     3    1   22 1   
     4    2    3 ar  
     5    2   21 1   
     6    3    4 ar  
     7    3    7 1   
     8    4    5 ar  
     9    4   16 1   
    10    5    6 ar  
    11    5   23 1   
    12    6   20 1   
    13    7    8 1   
    14    7   17 2   
    15    8    9 2   
    16    8   19 1   
    17    9   10 1   
    18    9   16 1   
    19   10   11 ar  
    20   10   15 ar  
    21   11   12 ar  
    22   11   24 1   
    23   12   13 ar  
    24   12   25 1   
    25   13   14 ar  
    26   13   18 1   
    27   14   15 ar  
    28   14   26 1   
    29   15   27 1   
    30   18   28 1   
    31   19   29 1   
    32   20   30 1   
    33   21   31 1   
@<TRIPOS>SUBSTRUCTURE
     1 KMP         1 TEMP              0 ****  ****    0 ROOT
