@<TRIPOS>MOLECULE
KMP
   31    33     1     0     0
SMALL
bcc


@<TRIPOS>ATOM
      1 C1         -0.0640   -0.1170    0.1170 ca        1 KMP     -0.353000
      2 C2          1.3310   -0.1380    0.0220 ca        1 KMP      0.254100
      3 C3          2.1490   -0.0960    1.1770 ca        1 KMP     -0.280600
      4 C4          1.5050   -0.0320    2.4290 ca        1 KMP      0.220100
      5 C5          0.1080   -0.0090    2.5580 ca        1 KMP     -0.236000
      6 C6         -0.6590   -0.0520    1.3880 ca        1 KMP      0.224100
      7 C9          3.6030   -0.1140    1.1120 c         1 KMP      0.584900
      8 C10         4.2670   -0.0730    2.4320 cc        1 KMP     -0.069100
      9 C11         3.5790   -0.0080    3.6050 cd        1 KMP      0.139900
     10 C14         4.1170    0.0530    4.9600 ca        1 KMP     -0.092800
     11 C15         5.3730   -0.4960    5.2510 ca        1 KMP     -0.054000
     12 C16         5.8880   -0.4290    6.5430 ca        1 KMP     -0.196000
     13 C17         5.1380    0.1900    7.5530 ca        1 KMP      0.142100
     14 C18         3.8740    0.7410    7.2770 ca        1 KMP     -0.196000
     15 C19         3.3740    0.6670    5.9840 ca        1 KMP     -0.054000
     16 O12         2.1840    0.0120    3.6270 os        1 KMP     -0.212200
     17 O13         4.2820   -0.1540    0.0750 o         1 KMP     -0.539100
     18 O24         5.5820    0.2940    8.8500 oh        1 KMP     -0.494100
     19 O27         5.6440   -0.1000    2.4560 oh        1 KMP     -0.492100
     20 O29        -2.0190   -0.0280    1.5550 oh        1 KMP     -0.483100
     21 O30         1.9700   -0.2010   -1.1840 oh        1 KMP     -0.451100
     22 H1         -0.6850   -0.1500   -0.7870 ha        1 KMP      0.144000
     23 H5         -0.3670    0.0390    3.5460 ha        1 KMP      0.176000
     24 H15         5.9620   -0.9820    4.4560 ha        1 KMP      0.154500
     25 H16         6.8740   -0.8580    6.7670 ha        1 KMP      0.146000
     26 H18         3.3030    1.2210    8.0840 ha        1 KMP      0.146000
     27 H19         2.3840    1.0920    5.7570 ha        1 KMP      0.154500
     28 H24         6.4580   -0.1160    8.9000 ho        1 KMP      0.422000
     29 H27         5.9470   -0.0470    1.5310 ho        1 KMP      0.445000
     30 H29        -2.4340   -0.0640    0.6800 ho        1 KMP      0.428000
     31 H30         1.2980   -0.2250   -1.8840 ho        1 KMP      0.424000
@<TRIPOS>BOND
     1    1    2 ar  
     2    1    6 ar  
     3    1   22 1   
     4    2    3 ar  
     5    2   21 1   
     6    3    4 ar  
     7    3    7 1   
     8    4    5 ar  
     9    4   16 1   
    10    5    6 ar  
    11    5   23 1   
    12    6   20 1   
    13    7    8 1   
    14    7   17 2   
    15    8    9 2   
    16    8   19 1   
    17    9   10 1   
    18    9   16 1   
    19   10   11 ar  
    20   10   15 ar  
    21   11   12 ar  
    22   11   24 1   
    23   12   13 ar  
    24   12   25 1   
    25   13   14 ar  
    26   13   18 1   
    27   14   15 ar  
    28   14   26 1   
    29   15   27 1   
    30   18   28 1   
    31   19   29 1   
    32   20   30 1   
    33   21   31 1   
@<TRIPOS>SUBSTRUCTURE
     1 KMP         1 TEMP              0 ****  ****    0 ROOT
