@<TRIPOS>MOLECULE
KMP
   31    33     1     0     0
SMALL
bcc


@<TRIPOS>ATOM
      1 C1          0.6650    0.1390   -4.2350 ca        1 KMP     -0.302000
      2 C2         -0.5370    0.1540   -3.5110 ca        1 KMP      0.271100
      3 C3         -0.5360    0.1190   -2.0940 ca        1 KMP     -0.334600
      4 C4          0.7150    0.0700   -1.4420 ca        1 KMP      0.221100
      5 C5          1.9290    0.0530   -2.1380 ca        1 KMP     -0.238000
      6 C6          1.8810    0.0890   -3.5390 ca        1 KMP      0.223100
      7 C9         -1.7480    0.1320   -1.2950 c         1 KMP      0.588900
      8 C10        -1.5350    0.0990    0.1600 cc        1 KMP     -0.074100
      9 C11        -0.2930    0.0460    0.7190 cd        1 KMP      0.160900
     10 C14         0.0500   -0.0070    2.1360 ca        1 KMP     -0.100800
     11 C15        -0.8140    0.5320    3.0990 ca        1 KMP     -0.050500
     12 C16        -0.4870    0.4720    4.4500 ca        1 KMP     -0.197000
     13 C17         0.7170   -0.1290    4.8430 ca        1 KMP      0.146100
     14 C18         1.5970   -0.6690    3.8880 ca        1 KMP     -0.197000
     15 C19         1.2580   -0.6020    2.5440 ca        1 KMP     -0.050500
     16 O12         0.8530    0.0340   -0.0700 os        1 KMP     -0.211200
     17 O13        -2.9060    0.1610   -1.7580 o         1 KMP     -0.604100
     18 O24         1.1050   -0.2250    6.1570 oh        1 KMP     -0.493100
     19 O27        -2.6460    0.1220    0.9750 oh        1 KMP     -0.491100
     20 O29         3.0880    0.0720   -4.1860 oh        1 KMP     -0.483100
     21 O30        -1.6630    0.2030   -4.2750 oh        1 KMP     -0.493100
     22 H1          0.6340    0.1660   -5.3320 ha        1 KMP      0.162000
     23 H5          2.8890    0.0170   -1.6060 ha        1 KMP      0.176000
     24 H15        -1.7610    1.0050    2.7900 ha        1 KMP      0.155000
     25 H16        -1.1690    0.8930    5.2020 ha        1 KMP      0.147000
     26 H18         2.5360   -1.1350    4.2170 ha        1 KMP      0.147000
     27 H19         1.9410   -1.0190    1.7870 ha        1 KMP      0.155000
     28 H24         0.4150    0.1770    6.7050 ho        1 KMP      0.423000
     29 H27        -3.4270    0.0440    0.3980 ho        1 KMP      0.445000
     30 H29         2.9230    0.1010   -5.1410 ho        1 KMP      0.431000
     31 H30        -2.4570    0.2100   -3.7100 ho        1 KMP      0.467000
@<TRIPOS>BOND
     1    1    2 ar  
     2    1    6 ar  
     3    1   22 1   
     4    2    3 ar  
     5    2   21 1   
     6    3    4 ar  
     7    3    7 1   
     8    4    5 ar  
     9    4   16 1   
    10    5    6 ar  
    11    5   23 1   
    12    6   20 1   
    13    7    8 1   
    14    7   17 2   
    15    8    9 2   
    16    8   19 1   
    17    9   10 1   
    18    9   16 1   
    19   10   11 ar  
    20   10   15 ar  
    21   11   12 ar  
    22   11   24 1   
    23   12   13 ar  
    24   12   25 1   
    25   13   14 ar  
    26   13   18 1   
    27   14   15 ar  
    28   14   26 1   
    29   15   27 1   
    30   18   28 1   
    31   19   29 1   
    32   20   30 1   
    33   21   31 1   
@<TRIPOS>SUBSTRUCTURE
     1 KMP         1 TEMP              0 ****  ****    0 ROOT
