@<TRIPOS>MOLECULE
KMP
   31    25     1     0     0
SMALL
bcc


@<TRIPOS>ATOM
      1 C1         -2.8690    0.0430   -3.3050 c1        1 KMP     -0.288500
      2 C2         -1.4800    0.0460   -3.3220 c1        1 KMP      0.209000
      3 C3         -0.7610    0.0010   -2.1120 c1        1 KMP     -0.260000
      4 C4         -1.4350   -0.0470   -0.9140 c1        1 KMP      0.175000
      5 C5         -2.8420   -0.0510   -0.8980 c1        1 KMP     -0.236000
      6 C6         -3.5510   -0.0060   -2.0920 c1        1 KMP      0.138000
      7 C9          0.6320   -0.0000   -2.1270 c2        1 KMP      0.305000
      8 C10         1.3310   -0.0490   -0.9450 c1        1 KMP     -0.092000
      9 C11         0.6480   -0.0970    0.2660 c1        1 KMP      0.083000
     10 C14         1.2210   -0.0370    1.5270 c1        1 KMP     -0.081000
     11 C15         1.5000    1.1920    2.1040 c1        1 KMP     -0.110500
     12 C16         2.0520    1.2530    3.3730 c1        1 KMP     -0.110500
     13 C17         2.3270    0.0840    4.0670 c1        1 KMP      0.138000
     14 C18         2.0480   -1.1450    3.4900 c1        1 KMP     -0.288500
     15 C19         1.4950   -1.2060    2.2200 c1        1 KMP     -0.055000
     16 O12        -0.7240   -0.0960    0.2820 os        1 KMP     -0.124000
     17 O13         1.2280    0.0420   -3.1840 o         1 KMP     -0.299000
     18 O24         2.9110    0.1450    5.3450 oh        1 KMP     -0.242500
     19 O27         2.6390    0.3560   -1.2680 oh        1 KMP     -0.246000
     20 O29        -4.9570    0.0050   -2.0750 oh        1 KMP     -0.242500
     21 O30        -0.7920    0.0570   -4.5490 oh        1 KMP     -0.204000
     22 H1         -3.3680    0.0740   -4.1430 ha        1 KMP      0.140500
     23 H5         -3.3210   -0.0850   -0.0480 ha        1 KMP      0.175000
     24 H15         1.3070    2.0150    1.6160 ha        1 KMP      0.158500
     25 H16         2.2490    2.1180    3.7790 ha        1 KMP      0.158500
     26 H18         2.2410   -1.9680    3.9780 ha        1 KMP      0.140500
     27 H19         1.2990   -2.0720    1.8140 ha        1 KMP      0.146000
     28 H24         2.2940   -0.0240    5.9620 ho        1 KMP      0.223500
     29 H27         3.1640   -0.3590   -1.3330 ho        1 KMP      0.244000
     30 H29        -5.2630   -0.7710   -2.3830 ho        1 KMP      0.223500
     31 H30        -1.2210    0.5810   -5.1250 ho        1 KMP      0.223000
@<TRIPOS>BOND
     1    1    6 1   
     2    1   22 1   
     3    2    3 1   
     4    2   21 1   
     5    3    7 1   
     6    4    5 1   
     7    4   16 1   
     8    5   23 1   
     9    6   20 1   
    10    7    8 1   
    11    7   17 1   
    12    8   19 1   
    13    9   16 1   
    14   10   15 1   
    15   11   12 1   
    16   11   24 1   
    17   12   25 1   
    18   13   14 1   
    19   13   18 1   
    20   14   26 1   
    21   15   27 1   
    22   18   28 1   
    23   19   29 1   
    24   20   30 1   
    25   21   31 1   
@<TRIPOS>SUBSTRUCTURE
     1 KMP         1 TEMP              0 ****  ****    0 ROOT
