@<TRIPOS>MOLECULE
KMT
   16    15     1     0     0
SMALL
bcc


@<TRIPOS>ATOM
      1 C1         -0.0720    0.0730    0.0640 c         1 KMT      0.857600
      2 O1          0.4210   -1.0550    0.3270 o         1 KMT     -0.810300
      3 O2         -0.1520    1.0520    0.8510 o         1 KMT     -0.810300
      4 C2         -0.6770    0.2570   -1.3390 c         1 KMT      0.471100
      5 O5         -0.0620    0.6700   -2.3280 o         1 KMT     -0.594100
      6 C3         -2.1380   -0.1230   -1.4160 c3        1 KMT     -0.192400
      7 C4         -2.7160    0.0580   -2.7910 c3        1 KMT      0.016700
      8 S1         -4.4280   -0.4140   -2.7500 ss        1 KMT     -0.334200
      9 C5         -4.9140   -0.1380   -4.4110 c3        1 KMT     -0.037000
     10 H31        -2.6870    0.5090   -0.6670 hc        1 KMT      0.078700
     11 H32        -2.2230   -1.1930   -1.0860 hc        1 KMT      0.078700
     12 H41        -2.6190    1.1230   -3.1150 h1        1 KMT      0.061700
     13 H42        -2.1620   -0.5700   -3.5300 h1        1 KMT      0.061700
     14 H51        -4.3320   -0.7670   -5.1200 h1        1 KMT      0.051033
     15 H52        -4.7880    0.9280   -4.7050 h1        1 KMT      0.051033
     16 H53        -5.9910   -0.4110   -4.4800 h1        1 KMT      0.051033
@<TRIPOS>BOND
     1    1    2 1   
     2    1    3 1   
     3    1    4 1   
     4    4    5 2   
     5    4    6 1   
     6    6    7 1   
     7    6   10 1   
     8    6   11 1   
     9    7    8 1   
    10    7   12 1   
    11    7   13 1   
    12    8    9 1   
    13    9   14 1   
    14    9   15 1   
    15    9   16 1   
@<TRIPOS>SUBSTRUCTURE
     1 KMT         1 TEMP              0 ****  ****    0 ROOT
