@<TRIPOS>MOLECULE
KMT
   16    15     1     0     0
SMALL
bcc


@<TRIPOS>ATOM
      1 C1          0.3680    0.0350   -2.5300 c         1 KMT      0.857600
      2 O1          0.4340   -1.1090   -3.0510 o         1 KMT     -0.810300
      3 O2          0.9480    1.0730   -2.9400 o         1 KMT     -0.810300
      4 C2         -0.4620    0.1650   -1.2410 c         1 KMT      0.471100
      5 O5         -1.6650    0.4460   -1.1980 o         1 KMT     -0.594100
      6 C3          0.3390   -0.0880    0.0160 c3        1 KMT     -0.192400
      7 C4         -0.4830    0.0430    1.2670 c3        1 KMT      0.016700
      8 S1          0.5640   -0.2750    2.6660 ss        1 KMT     -0.334200
      9 C5         -0.5540   -0.0790    4.0010 c3        1 KMT     -0.037000
     10 H31         1.1900    0.6440    0.0220 hc        1 KMT      0.078700
     11 H32         0.7750   -1.1190   -0.0680 hc        1 KMT      0.078700
     12 H41        -1.3320   -0.6830    1.2500 h1        1 KMT      0.061700
     13 H42        -0.9190    1.0690    1.3390 h1        1 KMT      0.061700
     14 H51         0.0240   -0.2630    4.9340 h1        1 KMT      0.051033
     15 H52        -0.9820    0.9480    4.0330 h1        1 KMT      0.051033
     16 H53        -1.3950   -0.8060    3.9440 h1        1 KMT      0.051033
@<TRIPOS>BOND
     1    1    2 1   
     2    1    3 1   
     3    1    4 1   
     4    4    5 2   
     5    4    6 1   
     6    6    7 1   
     7    6   10 1   
     8    6   11 1   
     9    7    8 1   
    10    7   12 1   
    11    7   13 1   
    12    8    9 1   
    13    9   14 1   
    14    9   15 1   
    15    9   16 1   
@<TRIPOS>SUBSTRUCTURE
     1 KMT         1 TEMP              0 ****  ****    0 ROOT
