@<TRIPOS>MOLECULE
KMT
   16    14     1     0     0
SMALL
bcc


@<TRIPOS>ATOM
      1 C1          2.2140   -1.2440    2.1430 c1        1 KMT      0.560500
      2 O1          3.4610   -1.4060    2.0740 os        1 KMT     -0.545000
      3 O2          1.6610   -1.0810    3.2620 o         1 KMT     -0.778500
      4 C2          1.3800   -1.2470    0.8810 c2        1 KMT      0.497300
      5 O5          0.9990   -2.2980    0.4060 o         1 KMT     -0.620300
      6 C3          1.0190    0.0600    0.2100 c3        1 KMT     -0.192400
      7 C4         -0.3990   -0.0140   -0.3110 c3        1 KMT      0.016700
      8 S1         -0.8510    1.5460   -1.0210 ss        1 KMT     -0.334200
      9 C5         -2.4630    1.4200   -1.7490 c3        1 KMT     -0.037000
     10 H31         1.0910    0.7900    0.8570 hc        1 KMT      0.078700
     11 H32         1.6320    0.2240   -0.5350 hc        1 KMT      0.078700
     12 H41        -1.0060   -0.2260    0.4260 h1        1 KMT      0.061700
     13 H42        -0.4590   -0.7130   -0.9940 h1        1 KMT      0.061700
     14 H51        -2.4490    0.7430   -2.4580 h1        1 KMT      0.051033
     15 H52        -3.1120    1.1600   -1.0620 h1        1 KMT      0.051033
     16 H53        -2.7190    2.2860   -2.1290 h1        1 KMT      0.051033
@<TRIPOS>BOND
     1    1    3 2   
     2    1    4 2   
     3    4    5 1   
     4    4    6 1   
     5    6    7 1   
     6    6   10 1   
     7    6   11 1   
     8    7    8 1   
     9    7   12 1   
    10    7   13 1   
    11    8    9 1   
    12    9   14 1   
    13    9   15 1   
    14    9   16 1   
@<TRIPOS>SUBSTRUCTURE
     1 KMT         1 TEMP              0 ****  ****    0 ROOT
