@<TRIPOS>MOLECULE
KMT
   16    15     1     0     0
SMALL
bcc


@<TRIPOS>ATOM
      1 C1         -0.0830   -0.0380    0.0760 c         1 KMT      0.857600
      2 O1          0.3080    1.1050    0.4280 o         1 KMT     -0.810300
      3 O2         -0.0800   -1.0770    0.7870 o         1 KMT     -0.810300
      4 C2         -0.6650   -0.1670   -1.3430 c         1 KMT      0.471100
      5 O5         -0.0120   -0.4500   -2.3530 o         1 KMT     -0.594100
      6 C3         -2.1530    0.0870   -1.4060 c3        1 KMT     -0.192400
      7 C4         -2.7090   -0.0420   -2.7960 c3        1 KMT      0.016700
      8 S1         -4.4550    0.2780   -2.7390 ss        1 KMT     -0.334200
      9 C5         -4.9090    0.0830   -4.4190 c3        1 KMT     -0.037000
     10 H31        -2.3330    1.1190   -1.0000 hc        1 KMT      0.078700
     11 H32        -2.6470   -0.6440   -0.7110 hc        1 KMT      0.078700
     12 H41        -2.2080    0.6830   -3.4820 h1        1 KMT      0.061700
     13 H42        -2.5190   -1.0680   -3.1950 h1        1 KMT      0.061700
     14 H51        -4.6920   -0.9450   -4.7880 h1        1 KMT      0.051033
     15 H52        -4.3800    0.8090   -5.0760 h1        1 KMT      0.051033
     16 H53        -6.0050    0.2670   -4.4800 h1        1 KMT      0.051033
@<TRIPOS>BOND
     1    1    2 1   
     2    1    3 1   
     3    1    4 1   
     4    4    5 2   
     5    4    6 1   
     6    6    7 1   
     7    6   10 1   
     8    6   11 1   
     9    7    8 1   
    10    7   12 1   
    11    7   13 1   
    12    8    9 1   
    13    9   14 1   
    14    9   15 1   
    15    9   16 1   
@<TRIPOS>SUBSTRUCTURE
     1 KMT         1 TEMP              0 ****  ****    0 ROOT
