@<TRIPOS>MOLECULE
KMY
   21    22     1     0     0
SMALL
bcc


@<TRIPOS>ATOM
      1 O01        -0.0930   -0.2770    0.2470 o         1 KMY     -0.394100
      2 C02         1.0830   -0.2400   -0.0570 c         1 KMY      0.651300
      3 N03         2.0140   -0.4400    1.2120 ny        1 KMY     -0.483300
      4 O04         2.2500    0.7840    1.7340 oh        1 KMY     -0.349300
      5 C05         1.7940   -0.1140   -1.2830 cc        1 KMY     -0.285600
      6 S06         3.4580    0.2220   -1.4180 ss        1 KMY      0.081500
      7 C07         3.4480    0.1950   -3.0960 ca        1 KMY     -0.016100
      8 C08         4.5160    0.3940   -3.9780 ca        1 KMY     -0.115000
      9 C09         4.2780    0.3440   -5.3430 ca        1 KMY     -0.050000
     10 C10         2.9850    0.0980   -5.8480 ca        1 KMY     -0.122000
     11 C11         1.9170   -0.1000   -4.9920 ca        1 KMY     -0.046000
     12 C12         2.1390   -0.0540   -3.6020 ca        1 KMY     -0.125800
     13 C13         1.1880   -0.2270   -2.5430 cd        1 KMY      0.172200
     14 Cl         -0.4200   -0.5390   -2.8220 cl        1 KMY      0.042600
     15 H03         2.9050   -0.8850    0.9330 hn        1 KMY      0.456800
     16 H04         2.5480    0.6880    2.6670 ho        1 KMY      0.467000
     17 H08         5.5280    0.5900   -3.5920 ha        1 KMY      0.162000
     18 H09         5.1110    0.5000   -6.0500 ha        1 KMY      0.165000
     19 H10         2.8300    0.0670   -6.9390 ha        1 KMY      0.166000
     20 H11         0.9030   -0.2900   -5.3810 ha        1 KMY      0.165000
     21 H032        1.5090   -1.0460    1.8810 hn        1 KMY      0.456800
@<TRIPOS>BOND
     1    1    2 2   
     2    2    3 1   
     3    2    5 1   
     4    3    4 1   
     5    3   15 1   
     6    3   21 1   
     7    4   16 1   
     8    5    6 1   
     9    5   13 2   
    10    6    7 1   
    11    7    8 ar  
    12    7   12 ar  
    13    8    9 ar  
    14    8   17 1   
    15    9   10 ar  
    16    9   18 1   
    17   10   11 ar  
    18   10   19 1   
    19   11   12 ar  
    20   11   20 1   
    21   12   13 1   
    22   13   14 1   
@<TRIPOS>SUBSTRUCTURE
     1 KMY         1 TEMP              0 ****  ****    0 ROOT
