@<TRIPOS>MOLECULE
KMY
   20    21     1     0     0
SMALL
bcc


@<TRIPOS>ATOM
      1 O01         2.8580   -0.4740    1.1620 o         1 KMY     -0.524100
      2 C02         2.2590    0.2620    0.3660 c         1 KMY      0.628300
      3 N03         2.9780    1.2290   -0.4160 n         1 KMY     -0.345400
      4 O04         4.2720    0.9420   -0.5820 oh        1 KMY     -0.435100
      5 C05         0.7920    0.3280    0.2600 cc        1 KMY     -0.193600
      6 S06        -0.0590    1.7710    0.4690 ss        1 KMY      0.111500
      7 C07        -1.5610    1.0480    0.2470 ca        1 KMY     -0.078100
      8 C08        -2.8340    1.6350    0.2780 ca        1 KMY     -0.100000
      9 C09        -3.9480    0.8410    0.0660 ca        1 KMY     -0.106000
     10 C10        -3.8180   -0.5400   -0.1770 ca        1 KMY     -0.133000
     11 C11        -2.5700   -1.1380   -0.2100 ca        1 KMY     -0.075000
     12 C12        -1.4300   -0.3470    0.0020 ca        1 KMY     -0.088800
     13 C13        -0.0420   -0.7430    0.0180 cd        1 KMY      0.067200
     14 CL          0.4480   -2.3220   -0.2500 cl        1 KMY     -0.032400
     15 H03         2.5750    1.3490   -1.3400 hn        1 KMY      0.301500
     16 H04         4.6950    1.1010    0.2850 ho        1 KMY      0.435000
     17 H08        -2.9390    2.7130    0.4690 ha        1 KMY      0.142000
     18 H09        -4.9530    1.2900    0.0880 ha        1 KMY      0.138000
     19 H10        -4.7230   -1.1440   -0.3400 ha        1 KMY      0.139000
     20 H11        -2.4600   -2.2160   -0.3970 ha        1 KMY      0.148000
@<TRIPOS>BOND
     1    1    2 2   
     2    2    3 1   
     3    2    5 1   
     4    3    4 1   
     5    3   15 1   
     6    4   16 1   
     7    5    6 1   
     8    5   13 2   
     9    6    7 1   
    10    7    8 ar  
    11    7   12 ar  
    12    8    9 ar  
    13    8   17 1   
    14    9   10 ar  
    15    9   18 1   
    16   10   11 ar  
    17   10   19 1   
    18   11   12 ar  
    19   11   20 1   
    20   12   13 1   
    21   13   14 1   
@<TRIPOS>SUBSTRUCTURE
     1 KMY         1 TEMP              0 ****  ****    0 ROOT
