@<TRIPOS>MOLECULE
KMY
   21    22     1     0     0
SMALL
bcc


@<TRIPOS>ATOM
      1 O01        -0.0800    0.0060    0.2200 o         1 KMY     -0.355100
      2 C02         1.0960   -0.0010   -0.0690 c         1 KMY      0.631300
      3 N03         2.0810   -0.0020    1.1720 n4        1 KMY     -0.483300
      4 O04         1.3250    0.0010    2.2900 oh        1 KMY     -0.335300
      5 C05         1.8150   -0.0080   -1.3050 cc        1 KMY     -0.289600
      6 S06         3.5140   -0.0090   -1.4390 ss        1 KMY      0.016500
      7 C07         3.5000   -0.0180   -3.1230 ca        1 KMY      0.000900
      8 C08         4.5840   -0.0230   -4.0030 ca        1 KMY     -0.113000
      9 C09         4.3380   -0.0300   -5.3710 ca        1 KMY     -0.050000
     10 C10         3.0220   -0.0340   -5.8710 ca        1 KMY     -0.121000
     11 C11         1.9360   -0.0290   -5.0110 ca        1 KMY     -0.043000
     12 C12         2.1670   -0.0210   -3.6240 ca        1 KMY     -0.128800
     13 C13         1.1990   -0.0150   -2.5610 cd        1 KMY      0.183200
     14 CL         -0.4380   -0.0170   -2.8430 cl        1 KMY      0.048600
     15 H03         2.6720   -0.8480    1.1240 hn        1 KMY      0.457300
     16 H04         1.9150    0.0010    3.0770 ho        1 KMY      0.461000
     17 H08         5.6170   -0.0200   -3.6210 ha        1 KMY      0.163000
     18 H09         5.1850   -0.0340   -6.0780 ha        1 KMY      0.166000
     19 H10         2.8600   -0.0400   -6.9620 ha        1 KMY      0.167000
     20 H11         0.9050   -0.0310   -5.3990 ha        1 KMY      0.167000
     21 H032        2.6760    0.8410    1.1220 hn        1 KMY      0.457300
@<TRIPOS>BOND
     1    1    2 2   
     2    2    3 1   
     3    2    5 1   
     4    3    4 1   
     5    3   15 1   
     6    3   21 1   
     7    4   16 1   
     8    5    6 1   
     9    5   13 2   
    10    6    7 1   
    11    7    8 ar  
    12    7   12 ar  
    13    8    9 ar  
    14    8   17 1   
    15    9   10 ar  
    16    9   18 1   
    17   10   11 ar  
    18   10   19 1   
    19   11   12 ar  
    20   11   20 1   
    21   12   13 1   
    22   13   14 1   
@<TRIPOS>SUBSTRUCTURE
     1 KMY         1 TEMP              0 ****  ****    0 ROOT
