@<TRIPOS>MOLECULE
KMY
   21    22     1     0     0
SMALL
bcc


@<TRIPOS>ATOM
      1 O01         0.1050   -0.0530    0.3520 o         1 KMY     -0.427100
      2 C02         1.2780   -0.0110    0.0140 c         1 KMY      0.606300
      3 N03         2.2540    0.0540    1.2280 n4        1 KMY     -0.469300
      4 O04         1.6790   -0.1730    2.4280 oh        1 KMY     -0.362300
      5 C05         1.9330   -0.0040   -1.2480 cc        1 KMY     -0.294600
      6 S06         3.6240    0.0630   -1.4580 ss        1 KMY      0.040500
      7 C07         3.5370    0.0190   -3.1360 ca        1 KMY      0.000900
      8 C08         4.5820    0.0400   -4.0630 ca        1 KMY     -0.115000
      9 C09         4.2790   -0.0030   -5.4180 ca        1 KMY     -0.044000
     10 C10         2.9440   -0.0680   -5.8620 ca        1 KMY     -0.122000
     11 C11         1.8970   -0.0900   -4.9580 ca        1 KMY     -0.041000
     12 C12         2.1840   -0.0460   -3.5800 ca        1 KMY     -0.131800
     13 C13         1.2640   -0.0590   -2.4800 cd        1 KMY      0.190200
     14 CL         -0.3820   -0.1320   -2.6880 cl        1 KMY      0.052600
     15 H03         2.7040    0.9880    1.2560 hn        1 KMY      0.478800
     16 H04         0.6990   -0.0450    2.3560 ho        1 KMY      0.489000
     17 H08         5.6300    0.0900   -3.7250 ha        1 KMY      0.165000
     18 H09         5.0950    0.0120   -6.1610 ha        1 KMY      0.167000
     19 H10         2.7380   -0.1010   -6.9450 ha        1 KMY      0.169000
     20 H11         0.8510   -0.1400   -5.3010 ha        1 KMY      0.167000
     21 H032        2.9910   -0.6700    1.1200 hn        1 KMY      0.478800
@<TRIPOS>BOND
     1    1    2 2   
     2    2    3 1   
     3    2    5 1   
     4    3    4 1   
     5    3   15 1   
     6    3   21 1   
     7    4   16 1   
     8    5    6 1   
     9    5   13 2   
    10    6    7 1   
    11    7    8 ar  
    12    7   12 ar  
    13    8    9 ar  
    14    8   17 1   
    15    9   10 ar  
    16    9   18 1   
    17   10   11 ar  
    18   10   19 1   
    19   11   12 ar  
    20   11   20 1   
    21   12   13 1   
    22   13   14 1   
@<TRIPOS>SUBSTRUCTURE
     1 KMY         1 TEMP              0 ****  ****    0 ROOT
