@<TRIPOS>MOLECULE
KN0
   43    46     1     0     0
SMALL
bcc


@<TRIPOS>ATOM
      1 CAA         1.5160    3.1310    1.0210 ca        1 KN0     -0.051000
      2 CAB         0.2030    3.3290    1.4630 ca        1 KN0     -0.170000
      3 CAC        -0.8180    2.4770    1.0590 ca        1 KN0     -0.030000
      4 CAD        -0.4970    1.4060    0.2370 ca        1 KN0     -0.214900
      5 CAE         0.8680    1.1580   -0.1900 ca        1 KN0      0.002800
      6 CAF         1.8690    2.0710    0.1820 ca        1 KN0     -0.183300
      7 CAG        -1.2780    0.3400   -0.3950 cc        1 KN0      0.416500
      8 NAH        -0.4530   -0.4540   -1.1080 nd        1 KN0     -0.516100
      9 NAI         0.8140    0.0210   -1.0340 na        1 KN0      0.108900
     10 CAJ        -2.7220    0.2030   -0.3100 ca        1 KN0     -0.224900
     11 CAK         1.9210   -0.8900   -1.3220 c3        1 KN0      0.095600
     12 CAL        -3.5190    1.3390   -0.5300 ca        1 KN0     -0.045000
     13 CAM        -4.9020    1.2780   -0.4710 ca        1 KN0     -0.196000
     14 CAN        -5.5170    0.0440   -0.1840 ca        1 KN0      0.171100
     15 CAO        -4.7600   -1.1060    0.0450 ca        1 KN0     -0.258000
     16 CAP        -3.3560   -1.0220   -0.0230 ca        1 KN0      0.205100
     17 OAQ        -2.7040   -2.2010    0.2210 oh        1 KN0     -0.493100
     18 OAR        -6.8900    0.0420   -0.1390 oh        1 KN0     -0.492100
     19 CAS         1.9920   -2.0980   -0.4340 ca        1 KN0     -0.130300
     20 CAT         2.9340   -2.1590    0.5970 ca        1 KN0     -0.107500
     21 CAU         3.0230   -3.2990    1.3950 ca        1 KN0     -0.135500
     22 CAV         2.1690   -4.3790    1.1710 ca        1 KN0     -0.116000
     23 CAW         1.2260   -4.3190    0.1440 ca        1 KN0     -0.135500
     24 CAX         1.1360   -3.1820   -0.6570 ca        1 KN0     -0.107500
     25 CAY         3.3090    2.0000   -0.3030 c3        1 KN0      0.694200
     26 FAZ         3.4540    1.8310   -1.6590 f         1 KN0     -0.238300
     27 FBA         4.0600    3.1210   -0.0380 f         1 KN0     -0.238300
     28 FBB         4.0550    0.9820    0.2460 f         1 KN0     -0.238300
     29 HAA         2.2970    3.8430    1.3390 ha        1 KN0      0.154000
     30 HAB        -0.0170    4.1780    2.1270 ha        1 KN0      0.146000
     31 HAC        -1.8590    2.6410    1.3760 ha        1 KN0      0.152000
     32 HAK         1.7950   -1.2270   -2.3930 h1        1 KN0      0.081700
     33 HAKA        2.8760   -0.3010   -1.2480 h1        1 KN0      0.081700
     34 HAL        -3.0260    2.2970   -0.7620 ha        1 KN0      0.142000
     35 HAM        -5.5240    2.1650   -0.6480 ha        1 KN0      0.155000
     36 HAO        -5.2310   -2.0720    0.2710 ha        1 KN0      0.155000
     37 HOAQ       -1.7480   -2.0480    0.2200 ho        1 KN0      0.440000
     38 HOAR       -7.1840   -0.8610    0.0540 ho        1 KN0      0.425000
     39 HAT         3.6100   -1.3070    0.7770 ha        1 KN0      0.145000
     40 HAU         3.7670   -3.3430    2.2040 ha        1 KN0      0.136000
     41 HAV         2.2400   -5.2770    1.8020 ha        1 KN0      0.134000
     42 HAW         0.5520   -5.1700   -0.0340 ha        1 KN0      0.136000
     43 HAX         0.3920   -3.1360   -1.4680 ha        1 KN0      0.145000
@<TRIPOS>BOND
     1    1    2 ar  
     2    1    6 ar  
     3    1   29 1   
     4    2    3 ar  
     5    2   30 1   
     6    3    4 ar  
     7    3   31 1   
     8    4    5 ar  
     9    4    7 1   
    10    5    6 ar  
    11    5    9 1   
    12    6   25 1   
    13    7    8 2   
    14    7   10 1   
    15    8    9 1   
    16    9   11 1   
    17   10   12 ar  
    18   10   16 ar  
    19   11   19 1   
    20   11   32 1   
    21   11   33 1   
    22   12   13 ar  
    23   12   34 1   
    24   13   14 ar  
    25   13   35 1   
    26   14   15 ar  
    27   14   18 1   
    28   15   16 ar  
    29   15   36 1   
    30   16   17 1   
    31   17   37 1   
    32   18   38 1   
    33   19   20 ar  
    34   19   24 ar  
    35   20   21 ar  
    36   20   39 1   
    37   21   22 ar  
    38   21   40 1   
    39   22   23 ar  
    40   22   41 1   
    41   23   24 ar  
    42   23   42 1   
    43   24   43 1   
    44   25   26 1   
    45   25   27 1   
    46   25   28 1   
@<TRIPOS>SUBSTRUCTURE
     1 KN0         1 TEMP              0 ****  ****    0 ROOT
