@<TRIPOS>MOLECULE
KN0
   43    46     1     0     0
SMALL
bcc


@<TRIPOS>ATOM
      1 CAA        -0.0510   -0.1870    0.0130 ca        1 KN0     -0.054000
      2 CAB         1.3350   -0.3760    0.0180 ca        1 KN0     -0.172000
      3 CAC         2.0550   -0.3110    1.2060 ca        1 KN0     -0.033000
      4 CAD         1.3610   -0.0900    2.3860 ca        1 KN0     -0.212900
      5 CAE        -0.0830    0.0560    2.4050 ca        1 KN0      0.003800
      6 CAF        -0.7760    0.0510    1.1820 ca        1 KN0     -0.184300
      7 CAG         1.7620    0.0610    3.7870 cc        1 KN0      0.425500
      8 NAH         0.6680    0.2580    4.5490 nd        1 KN0     -0.480100
      9 NAI        -0.4330    0.2960    3.7560 na        1 KN0      0.101900
     10 CAJ         3.1340    0.0370    4.2650 ca        1 KN0     -0.165900
     11 CAK        -1.7440    0.0700    4.3590 c3        1 KN0      0.098600
     12 CAL         4.1010    0.8230    3.6220 ca        1 KN0     -0.049000
     13 CAM         5.4240    0.8350    4.0400 ca        1 KN0     -0.196000
     14 CAN         5.8000    0.0400    5.1380 ca        1 KN0      0.175100
     15 CAO         4.8640   -0.7600    5.8030 ca        1 KN0     -0.311000
     16 CAP         3.5320   -0.7560    5.3620 ca        1 KN0      0.196100
     17 OAQ         2.5780   -1.5340    5.9660 oh        1 KN0     -0.473100
     18 OAR         7.1200    0.0930    5.5090 oh        1 KN0     -0.491100
     19 CAS        -1.9230   -1.2650    5.0200 ca        1 KN0     -0.127300
     20 CAT        -2.6770   -2.2640    4.3950 ca        1 KN0     -0.100000
     21 CAU        -2.8820   -3.4870    5.0330 ca        1 KN0     -0.138000
     22 CAV        -2.3320   -3.7190    6.2930 ca        1 KN0     -0.117000
     23 CAW        -1.5760   -2.7260    6.9170 ca        1 KN0     -0.138000
     24 CAX        -1.3700   -1.5010    6.2830 ca        1 KN0     -0.100000
     25 CAY        -2.2640    0.3340    1.0460 c3        1 KN0      0.694200
     26 FAZ        -2.7030    1.4580    1.7040 f         1 KN0     -0.239300
     27 FBA        -2.6940    0.5340   -0.2450 f         1 KN0     -0.239300
     28 FBB        -3.0910   -0.6670    1.5000 f         1 KN0     -0.239300
     29 HAA        -0.5870   -0.2170   -0.9520 ha        1 KN0      0.152000
     30 HAB         1.8550   -0.5660   -0.9330 ha        1 KN0      0.144000
     31 HAC         3.1490   -0.4270    1.2170 ha        1 KN0      0.148000
     32 HAK        -1.8920    0.8820    5.1310 h1        1 KN0      0.078200
     33 HAKA       -2.5170    0.2050    3.5530 h1        1 KN0      0.078200
     34 HAL         3.7960    1.4470    2.7660 ha        1 KN0      0.145000
     35 HAM         6.1780    1.4550    3.5370 ha        1 KN0      0.156000
     36 HAO         5.1640   -1.3800    6.6580 ha        1 KN0      0.138000
     37 HOAQ        2.9980   -2.0090    6.6990 ho        1 KN0      0.420000
     38 HOAR        7.2430   -0.4870    6.2750 ho        1 KN0      0.422000
     39 HAT        -3.1110   -2.0840    3.3990 ha        1 KN0      0.145000
     40 HAU        -3.4770   -4.2680    4.5380 ha        1 KN0      0.132000
     41 HAV        -2.4940   -4.6840    6.7950 ha        1 KN0      0.130000
     42 HAW        -1.1390   -2.9080    7.9090 ha        1 KN0      0.132000
     43 HAX        -0.7650   -0.7220    6.7710 ha        1 KN0      0.145000
@<TRIPOS>BOND
     1    1    2 ar  
     2    1    6 ar  
     3    1   29 1   
     4    2    3 ar  
     5    2   30 1   
     6    3    4 ar  
     7    3   31 1   
     8    4    5 ar  
     9    4    7 1   
    10    5    6 ar  
    11    5    9 1   
    12    6   25 1   
    13    7    8 2   
    14    7   10 1   
    15    8    9 1   
    16    9   11 1   
    17   10   12 ar  
    18   10   16 ar  
    19   11   19 1   
    20   11   32 1   
    21   11   33 1   
    22   12   13 ar  
    23   12   34 1   
    24   13   14 ar  
    25   13   35 1   
    26   14   15 ar  
    27   14   18 1   
    28   15   16 ar  
    29   15   36 1   
    30   16   17 1   
    31   17   37 1   
    32   18   38 1   
    33   19   20 ar  
    34   19   24 ar  
    35   20   21 ar  
    36   20   39 1   
    37   21   22 ar  
    38   21   40 1   
    39   22   23 ar  
    40   22   41 1   
    41   23   24 ar  
    42   23   42 1   
    43   24   43 1   
    44   25   26 1   
    45   25   27 1   
    46   25   28 1   
@<TRIPOS>SUBSTRUCTURE
     1 KN0         1 TEMP              0 ****  ****    0 ROOT
