@<TRIPOS>MOLECULE
KN1
   37    39     1     0     0
SMALL
bcc


@<TRIPOS>ATOM
      1 CAA         1.8410    3.9920   -0.5520 c2        1 KN1     -0.181000
      2 CAG         2.2290    2.7260   -0.4250 c2        1 KN1     -0.209200
      3 CAN         2.0230    1.9320    0.8260 c3        1 KN1      0.078500
      4 NAW         1.0460    0.8550    0.7050 na        1 KN1      0.107900
      5 NAO        -0.2740    1.1510    0.7390 nc        1 KN1     -0.511100
      6 CAV         1.2570   -0.4200    0.1310 ca        1 KN1      0.001800
      7 CAT         2.3830   -1.2230   -0.1220 ca        1 KN1     -0.184300
      8 CAX         3.8110   -0.7960    0.1800 c3        1 KN1      0.693200
      9 FAE         4.2510    0.2950   -0.5320 f         1 KN1     -0.237967
     10 FAF         4.0450   -0.4600    1.4930 f         1 KN1     -0.237967
     11 FAD         4.7660   -1.7500   -0.0790 f         1 KN1     -0.237967
     12 CAJ         2.1790   -2.4910   -0.6680 ca        1 KN1     -0.050000
     13 CAH         0.9000   -2.9870   -0.9500 ca        1 KN1     -0.171000
     14 CAL        -0.2310   -2.2270   -0.6820 ca        1 KN1     -0.029000
     15 CAU        -0.0620   -0.9570   -0.1450 ca        1 KN1     -0.215900
     16 CAS        -0.9840    0.1010    0.2700 cd        1 KN1      0.411500
     17 CAR        -2.4330    0.0050    0.2380 ca        1 KN1     -0.222900
     18 CAK        -3.0410   -1.1450    0.7710 ca        1 KN1     -0.046000
     19 CAI        -4.4170   -1.3020    0.7780 ca        1 KN1     -0.196000
     20 CAP        -5.2210   -0.2810    0.2350 ca        1 KN1      0.170100
     21 OAB        -6.5780   -0.4900    0.2690 oh        1 KN1     -0.492100
     22 CAM        -4.6550    0.8740   -0.3080 ca        1 KN1     -0.257000
     23 CAQ        -3.2550    1.0130   -0.3010 ca        1 KN1      0.204100
     24 OAC        -2.7970    2.1750   -0.8640 oh        1 KN1     -0.493100
     25 HAA1        2.0350    4.5730   -1.4640 ha        1 KN1      0.118500
     26 HAA2        1.3090    4.5370    0.2410 ha        1 KN1      0.118500
     27 HAG         2.7590    2.1940   -1.2340 ha        1 KN1      0.138000
     28 HAN1        3.0010    1.4630    1.1350 h1        1 KN1      0.081700
     29 HAN2        1.6810    2.6060    1.6660 h1        1 KN1      0.081700
     30 HAJ         3.0540   -3.1280   -0.8840 ha        1 KN1      0.154000
     31 HAH         0.7990   -3.9930   -1.3830 ha        1 KN1      0.146000
     32 HAL        -1.2420   -2.6130   -0.8850 ha        1 KN1      0.151000
     33 HAK        -2.4010   -1.9340    1.2000 ha        1 KN1      0.142000
     34 HAI        -4.8910   -2.1990    1.2000 ha        1 KN1      0.155000
     35 HOAB       -7.0130    0.2850   -0.1190 ho        1 KN1      0.425000
     36 HAM        -5.2740    1.6750   -0.7340 ha        1 KN1      0.155000
     37 HOAC       -1.8290    2.1740   -0.8610 ho        1 KN1      0.438000
@<TRIPOS>BOND
     1    1    2 2   
     2    1   25 1   
     3    1   26 1   
     4    2    3 1   
     5    2   27 1   
     6    3    4 1   
     7    3   28 1   
     8    3   29 1   
     9    4    5 1   
    10    4    6 1   
    11    5   16 2   
    12    6    7 ar  
    13    6   15 ar  
    14    7    8 1   
    15    7   12 ar  
    16    8    9 1   
    17    8   10 1   
    18    8   11 1   
    19   12   13 ar  
    20   12   30 1   
    21   13   14 ar  
    22   13   31 1   
    23   14   15 ar  
    24   14   32 1   
    25   15   16 1   
    26   16   17 1   
    27   17   18 ar  
    28   17   23 ar  
    29   18   19 ar  
    30   18   33 1   
    31   19   20 ar  
    32   19   34 1   
    33   20   21 1   
    34   20   22 ar  
    35   21   35 1   
    36   22   23 ar  
    37   22   36 1   
    38   23   24 1   
    39   24   37 1   
@<TRIPOS>SUBSTRUCTURE
     1 KN1         1 TEMP              0 ****  ****    0 ROOT
