@<TRIPOS>MOLECULE
KN1
   37    30     1     0     0
SMALL
bcc


@<TRIPOS>ATOM
      1 CAA        -3.5530    0.2860   -2.5980 c1        1 KN1     -0.081000
      2 CAG        -2.2190    0.4650   -2.3950 c1        1 KN1     -0.081000
      3 CAN        -1.5700   -0.0190   -1.0960 c2        1 KN1      0.329100
      4 NAW        -0.1370    0.0330   -1.2260 nh        1 KN1     -0.140400
      5 NAO        -0.0730    0.8590   -0.1210 n1        1 KN1     -0.334800
      6 CAV         0.9800   -0.7630   -1.2270 c1        1 KN1     -0.008300
      7 CAT         1.4010   -1.8020   -2.0880 c1        1 KN1     -0.150100
      8 CAX         1.0180   -2.0670   -3.5420 c3        1 KN1      0.659000
      9 FAE        -0.0240   -2.9130   -3.5830 f         1 KN1     -0.238967
     10 FAF         0.6790   -0.9110   -4.1330 f         1 KN1     -0.238967
     11 FAD         2.0630   -2.6100   -4.1880 f         1 KN1     -0.238967
     12 CAJ         2.5800   -2.4900   -1.8230 c1        1 KN1      0.003500
     13 CAH         3.3440   -2.1580   -0.7130 c1        1 KN1     -0.081000
     14 CAL         2.9300   -1.1350    0.1350 c1        1 KN1     -0.081000
     15 CAU         1.7320   -0.4350   -0.1340 c1        1 KN1     -0.129000
     16 CAS         1.0720    0.5750    0.5510 cg        1 KN1      0.292800
     17 CAR         0.3590    0.9190    1.7100 cg        1 KN1     -0.082000
     18 CAK        -0.1580   -0.0820    2.5290 c1        1 KN1     -0.081000
     19 CAI        -0.9670    0.2520    3.6110 c1        1 KN1     -0.081000
     20 CAP        -1.2610    1.5860    3.8750 c1        1 KN1      0.157600
     21 OAB        -2.1660    1.9190    4.9150 oh        1 KN1     -0.474600
     22 CAM        -0.7450    2.5870    3.0560 c1        1 KN1     -0.252500
     23 CAQ         0.0650    2.2530    1.9740 c1        1 KN1      0.179600
     24 OAC         0.6100    3.2720    1.1560 oh        1 KN1     -0.457600
     25 HAA1       -4.0980   -0.1540   -1.9110 DU        1 KN1      0.117000
     26 HAA2       -3.9690    0.5960   -3.4310 ha        1 KN1      0.083167
     27 HAG        -1.6720    0.9050   -3.0820 ha        1 KN1      0.083167
     28 HAN1       -1.8530    0.5590   -0.3530 h4        1 KN1     -0.011200
     29 HAN2       -1.8490   -0.9440   -0.9150 h4        1 KN1     -0.011200
     30 HAJ         2.8710   -3.2110   -2.4200 ha        1 KN1      0.094500
     31 HAH         4.1750   -2.6430   -0.5260 ha        1 KN1      0.083167
     32 HAL         3.4700   -0.9000    0.9190 ha        1 KN1      0.083167
     33 HAK         0.0490   -1.0240    2.3430 ha        1 KN1      0.083167
     34 HAI        -1.3320   -0.4550    4.1890 ha        1 KN1      0.083167
     35 HOAB       -1.7100    2.1880    5.6320 ho        1 KN1      0.422000
     36 HAM        -0.9520    3.5280    3.2430 ha        1 KN1      0.080500
     37 HOAC        0.9120    3.9350    1.6700 ho        1 KN1      0.420000
@<TRIPOS>BOND
     1    1    2 3   
     2    1   26 1   
     3    2   27 1   
     4    3    4 2   
     5    3   28 1   
     6    3   29 1   
     7    4    5 1   
     8    4    6 1   
     9    5   16 3   
    10    6   15 3   
    11    7    8 1   
    12    7   12 3   
    13    8    9 1   
    14    8   10 1   
    15    8   11 1   
    16   12   30 1   
    17   13   14 3   
    18   13   31 1   
    19   14   32 1   
    20   16   17 1   
    21   17   23 3   
    22   18   19 3   
    23   18   33 1   
    24   19   34 1   
    25   20   21 1   
    26   20   22 3   
    27   21   35 1   
    28   22   36 1   
    29   23   24 1   
    30   24   37 1   
@<TRIPOS>SUBSTRUCTURE
     1 KN1         1 TEMP              0 ****  ****    0 ROOT
