@<TRIPOS>MOLECULE
KN2
   28    22     1     0     0
SMALL
bcc


@<TRIPOS>ATOM
      1 OAC        -1.1580   -0.8380    2.2010 oh        1 KN2     -0.229000
      2 CAN         0.1270   -0.2690    2.2590 c2        1 KN2      0.148000
      3 CAH         0.8580   -0.3290    3.4350 c2        1 KN2     -0.310000
      4 CAL         2.1050    0.2730    3.5070 c1        1 KN2      0.126000
      5 OAA         2.8390    0.2290    4.7070 o         1 KN2     -0.246000
      6 CAD         2.6200    0.9350    2.4040 c2        1 KN2     -0.196000
      7 CAE         1.8890    0.9950    1.2280 c1        1 KN2     -0.050000
      8 CAO         0.6420    0.3930    1.1550 c1        1 KN2     -0.075000
      9 CAP        -0.0650    0.4070   -0.0360 c1        1 KN2     -0.034000
     10 CAR        -0.4440   -0.0810   -1.2740 c1        1 KN2     -0.152000
     11 CAG        -0.0080   -1.1900   -2.0240 c1        1 KN2     -0.132000
     12 CAF        -0.5740   -1.4560   -3.2600 c1        1 KN2     -0.132000
     13 CAM        -1.5690   -0.6320   -3.7570 c1        1 KN2      0.107000
     14 OAB        -2.1760   -0.6750   -5.0250 oh        1 KN2     -0.252000
     15 CAI        -1.9980    0.4590   -3.0200 c1        1 KN2     -0.179000
     16 CAQ        -1.4220    0.7300   -1.7630 c1        1 KN2      0.023000
     17 N1K        -1.6540    1.7150   -0.8420 n1        1 KN2     -0.193000
     18 N1J        -0.8090    1.5080    0.2250 n2        1 KN2     -0.024000
     19 HOAC       -1.1590   -1.6130    2.6360 ho        1 KN2      0.218000
     20 HAH         0.5030   -0.8100    4.2060 ha        1 KN2      0.137000
     21 HOAA        2.9820   -0.6180    4.9360 ho        1 KN2      0.220000
     22 HAD         3.4980    1.3590    2.4550 ha        1 KN2      0.155000
     23 HAE         2.2520    1.4610    0.4510 ha        1 KN2      0.145000
     24 HAG         0.6930   -1.7710   -1.6730 ha        1 KN2      0.138500
     25 HAF        -0.2880   -2.2380   -3.7690 ha        1 KN2      0.138500
     26 HOAB       -2.7230   -1.3750   -5.0690 ho        1 KN2      0.220000
     27 HAI        -2.6990    1.0400   -3.3700 ha        1 KN2      0.157000
     28 HN1K       -2.2610    2.3900   -0.9220 DU        1 KN2      0.269000
@<TRIPOS>BOND
     1    1    2 1   
     2    1   19 1   
     3    2    3 1   
     4    2    8 1   
     5    3    4 1   
     6    3   20 1   
     7    4    6 1   
     8    5   21 1   
     9    6    7 1   
    10    6   22 1   
    11    7   23 1   
    12    9   10 1   
    13    9   18 1   
    14   10   16 1   
    15   11   12 1   
    16   11   24 1   
    17   12   25 1   
    18   13   14 1   
    19   13   15 1   
    20   14   26 1   
    21   15   27 1   
    22   17   18 1   
@<TRIPOS>SUBSTRUCTURE
     1 KN2         1 TEMP              0 ****  ****    0 ROOT
