@<TRIPOS>MOLECULE
KN2
   28    30     1     0     0
SMALL
bcc


@<TRIPOS>ATOM
      1 OAC         2.2800    2.0790    1.0820 oh        1 KN2     -0.494100
      2 CAN         2.3800    0.8560    0.4730 ca        1 KN2      0.203100
      3 CAH         3.6590    0.2720    0.5440 ca        1 KN2     -0.257000
      4 CAL         3.8630   -0.9800   -0.0380 ca        1 KN2      0.168100
      5 OAA         5.0820   -1.6130   -0.0140 oh        1 KN2     -0.493100
      6 CAD         2.8140   -1.6640   -0.6830 ca        1 KN2     -0.197000
      7 CAE         1.5630   -1.0730   -0.7390 ca        1 KN2     -0.047000
      8 CAO         1.3180    0.1900   -0.1710 ca        1 KN2     -0.220900
      9 CAP        -0.0180    0.7470   -0.2780 cc        1 KN2      0.420500
     10 CAR        -1.2600    0.0080   -0.0250 ca        1 KN2     -0.238900
     11 CAG        -1.5920   -1.2770    0.3930 ca        1 KN2     -0.023000
     12 CAF        -2.9320   -1.6090    0.5290 ca        1 KN2     -0.235000
     13 CAM        -3.9420   -0.6570    0.2540 ca        1 KN2      0.157100
     14 OAB        -5.2770   -0.9680    0.3760 oh        1 KN2     -0.495100
     15 CAI        -3.6560    0.6480   -0.1590 ca        1 KN2     -0.178000
     16 CAQ        -2.3030    0.9710   -0.2930 ca        1 KN2     -0.024200
     17 N1K        -1.6500    2.1800   -0.6060 na        1 KN2     -0.010100
     18 N1J        -0.3180    2.0120   -0.6640 nd        1 KN2     -0.534100
     19 HOAC        1.3640    2.3860    1.0390 ho        1 KN2      0.441000
     20 HAH         4.4690    0.8120    1.0510 ha        1 KN2      0.155000
     21 HOAA        5.7110   -1.0370    0.4450 ho        1 KN2      0.424000
     22 HAD         3.0050   -2.6480   -1.1330 ha        1 KN2      0.154000
     23 HAE         0.7360   -1.5950   -1.2460 ha        1 KN2      0.141000
     24 HAG        -0.8030   -2.0110    0.6150 ha        1 KN2      0.147000
     25 HAF        -3.2190   -2.6190    0.8550 ha        1 KN2      0.138000
     26 HOAB       -5.3450   -1.8900    0.6660 ho        1 KN2      0.423000
     27 HAI        -4.4610    1.3660   -0.3570 ha        1 KN2      0.160000
     28 HN1K       -2.0550    2.9150   -1.1420 hn        1 KN2      0.316700
@<TRIPOS>BOND
     1    1    2 1   
     2    1   19 1   
     3    2    3 ar  
     4    2    8 ar  
     5    3    4 ar  
     6    3   20 1   
     7    4    5 1   
     8    4    6 ar  
     9    5   21 1   
    10    6    7 ar  
    11    6   22 1   
    12    7    8 ar  
    13    7   23 1   
    14    8    9 1   
    15    9   10 1   
    16    9   18 2   
    17   10   11 ar  
    18   10   16 ar  
    19   11   12 ar  
    20   11   24 1   
    21   12   13 ar  
    22   12   25 1   
    23   13   14 1   
    24   13   15 ar  
    25   14   26 1   
    26   15   16 ar  
    27   15   27 1   
    28   16   17 1   
    29   17   18 1   
    30   17   28 1   
@<TRIPOS>SUBSTRUCTURE
     1 KN2         1 TEMP              0 ****  ****    0 ROOT
