@<TRIPOS>MOLECULE
KN2
   28    30     1     0     0
SMALL
bcc


@<TRIPOS>ATOM
      1 OAC         0.0020   -0.0910   -0.0660 oh        1 KN2     -0.475100
      2 CAN         1.3720   -0.0150   -0.0280 ca        1 KN2      0.193100
      3 CAH         2.0660    0.0210    1.1910 ca        1 KN2     -0.310000
      4 CAL         3.4640    0.0700    1.1730 ca        1 KN2      0.171100
      5 OAA         4.2150    0.1100    2.3220 oh        1 KN2     -0.492100
      6 CAD         4.1730    0.0780   -0.0410 ca        1 KN2     -0.196000
      7 CAE         3.4660    0.0430   -1.2350 ca        1 KN2     -0.049000
      8 CAO         2.0640    0.0010   -1.2580 ca        1 KN2     -0.159900
      9 CAP         1.3720   -0.0280   -2.5340 cc        1 KN2      0.423500
     10 CAR         1.7090   -0.9130   -3.6540 ca        1 KN2     -0.234900
     11 CAG         2.6480   -1.9130   -3.8950 ca        1 KN2     -0.033000
     12 CAF         2.6500   -2.5500   -5.1240 ca        1 KN2     -0.183000
     13 CAM         1.7110   -2.1850   -6.1220 ca        1 KN2      0.158100
     14 OAB         1.8040   -2.8870   -7.3020 oh        1 KN2     -0.496100
     15 CAI         0.7530   -1.1890   -5.9280 ca        1 KN2     -0.238000
     16 CAQ         0.7580   -0.5540   -4.6800 ca        1 KN2     -0.019200
     17 N1K        -0.0010    0.5060   -4.1550 na        1 KN2     -0.017100
     18 N1J         0.3310    0.7670   -2.8800 nd        1 KN2     -0.495100
     19 HOAC       -0.3260   -0.0490    0.8450 ho        1 KN2      0.419000
     20 HAH         1.5180    0.0120    2.1430 ha        1 KN2      0.137000
     21 HOAA        3.6100    0.1070    3.0780 ho        1 KN2      0.421000
     22 HAD         5.2710    0.1150   -0.0280 ha        1 KN2      0.155000
     23 HAE         4.0120    0.0530   -2.1920 ha        1 KN2      0.146000
     24 HAG         3.3760   -2.1890   -3.1170 ha        1 KN2      0.144000
     25 HAF         3.3730   -3.3460   -5.3510 ha        1 KN2      0.153000
     26 HOAB        1.1290   -2.5480   -7.9080 ho        1 KN2      0.420000
     27 HAI         0.0360   -0.9170   -6.7120 ha        1 KN2      0.141000
     28 HN1K       -0.8930    0.7900   -4.4870 hn        1 KN2      0.316700
@<TRIPOS>BOND
     1    1    2 1   
     2    1   19 1   
     3    2    3 ar  
     4    2    8 ar  
     5    3    4 ar  
     6    3   20 1   
     7    4    5 1   
     8    4    6 ar  
     9    5   21 1   
    10    6    7 ar  
    11    6   22 1   
    12    7    8 ar  
    13    7   23 1   
    14    8    9 1   
    15    9   10 1   
    16    9   18 2   
    17   10   11 ar  
    18   10   16 ar  
    19   11   12 ar  
    20   11   24 1   
    21   12   13 ar  
    22   12   25 1   
    23   13   14 1   
    24   13   15 ar  
    25   14   26 1   
    26   15   16 ar  
    27   15   27 1   
    28   16   17 1   
    29   17   18 1   
    30   17   28 1   
@<TRIPOS>SUBSTRUCTURE
     1 KN2         1 TEMP              0 ****  ****    0 ROOT
