@<TRIPOS>MOLECULE
KN2
   28    30     1     0     0
SMALL
bcc


@<TRIPOS>ATOM
      1 OAC         0.0020   -0.1180   -0.0600 oh        1 KN2     -0.475100
      2 CAN         1.3710   -0.0270   -0.0250 ca        1 KN2      0.193100
      3 CAH         2.0670    0.0140    1.1930 ca        1 KN2     -0.310000
      4 CAL         3.4650    0.0780    1.1710 ca        1 KN2      0.171100
      5 OAA         4.2180    0.1230    2.3190 oh        1 KN2     -0.492100
      6 CAD         4.1710    0.0960   -0.0440 ca        1 KN2     -0.196000
      7 CAE         3.4610    0.0570   -1.2370 ca        1 KN2     -0.049000
      8 CAO         2.0600   -0.0010   -1.2560 ca        1 KN2     -0.159900
      9 CAP         1.3650   -0.0340   -2.5310 cc        1 KN2      0.423500
     10 CAR         1.7080   -0.9130   -3.6540 ca        1 KN2     -0.234900
     11 CAG         2.6580   -1.9030   -3.8990 ca        1 KN2     -0.033000
     12 CAF         2.6640   -2.5370   -5.1300 ca        1 KN2     -0.183000
     13 CAM         1.7180   -2.1800   -6.1250 ca        1 KN2      0.158100
     14 OAB         1.8160   -2.8780   -7.3060 oh        1 KN2     -0.496100
     15 CAI         0.7500   -1.1940   -5.9260 ca        1 KN2     -0.238000
     16 CAQ         0.7520   -0.5620   -4.6770 ca        1 KN2     -0.019200
     17 N1K        -0.0180    0.4890   -4.1480 na        1 KN2     -0.017100
     18 N1J         0.3140    0.7510   -2.8730 nd        1 KN2     -0.495100
     19 HOAC       -0.3240   -0.0820    0.8520 ho        1 KN2      0.419000
     20 HAH         1.5210   -0.0040    2.1450 ha        1 KN2      0.137000
     21 HOAA        3.6150    0.1120    3.0760 ho        1 KN2      0.421000
     22 HAD         5.2680    0.1460   -0.0340 ha        1 KN2      0.155000
     23 HAE         4.0050    0.0750   -2.1950 ha        1 KN2      0.146000
     24 HAG         3.3900   -2.1730   -3.1240 ha        1 KN2      0.144000
     25 HAF         3.3940   -3.3250   -5.3610 ha        1 KN2      0.153000
     26 HOAB        1.1360   -2.5450   -7.9100 ho        1 KN2      0.420000
     27 HAI         0.0290   -0.9290   -6.7080 ha        1 KN2      0.141000
     28 HN1K       -0.9140    0.7640   -4.4770 hn        1 KN2      0.316700
@<TRIPOS>BOND
     1    1    2 1   
     2    1   19 1   
     3    2    3 ar  
     4    2    8 ar  
     5    3    4 ar  
     6    3   20 1   
     7    4    5 1   
     8    4    6 ar  
     9    5   21 1   
    10    6    7 ar  
    11    6   22 1   
    12    7    8 ar  
    13    7   23 1   
    14    8    9 1   
    15    9   10 1   
    16    9   18 2   
    17   10   11 ar  
    18   10   16 ar  
    19   11   12 ar  
    20   11   24 1   
    21   12   13 ar  
    22   12   25 1   
    23   13   14 1   
    24   13   15 ar  
    25   14   26 1   
    26   15   16 ar  
    27   15   27 1   
    28   16   17 1   
    29   17   18 1   
    30   17   28 1   
@<TRIPOS>SUBSTRUCTURE
     1 KN2         1 TEMP              0 ****  ****    0 ROOT
