@<TRIPOS>MOLECULE
KN3
   43    45     1     0     0
SMALL
bcc


@<TRIPOS>ATOM
      1 CAA        -1.7800    3.0470    0.7610 ca        1 KN3     -0.051000
      2 CAB        -0.4640    3.3540    1.1280 ca        1 KN3     -0.171000
      3 CAC         0.5770    2.4840    0.8300 ca        1 KN3     -0.031000
      4 CAD         0.2790    1.2950    0.1770 ca        1 KN3     -0.214900
      5 CAE        -1.0840    0.9500   -0.1850 ca        1 KN3      0.000800
      6 CAF        -2.1130    1.8660    0.0980 ca        1 KN3     -0.183300
      7 CAG         1.0810    0.1690   -0.3030 cc        1 KN3      0.410500
      8 NAH         0.2680   -0.7410   -0.8830 nd        1 KN3     -0.516100
      9 NAI        -1.0070   -0.2890   -0.8630 na        1 KN3      0.111900
     10 CAJ         2.5280    0.0790   -0.2200 ca        1 KN3     -0.221900
     11 CAK        -2.1030   -1.2350   -1.0660 c3        1 KN3      0.084500
     12 CAL        -2.4360   -2.0660    0.1290 c2        1 KN3     -0.234200
     13 CAM        -2.0740   -3.3480    0.2890 c2        1 KN3     -0.066400
     14 CAN        -2.4930   -4.1180    1.4870 c3        1 KN3     -0.073400
     15 CAO        -1.2540   -4.0960   -0.6950 c3        1 KN3     -0.073400
     16 CAP         3.2950    1.1910   -0.6110 ca        1 KN3     -0.046000
     17 CAQ         4.6790    1.1720   -0.5610 ca        1 KN3     -0.196000
     18 CAR         5.3280    0.0070   -0.1070 ca        1 KN3      0.170100
     19 CAS         4.6020   -1.1160    0.2930 ca        1 KN3     -0.257000
     20 CAT         3.1970   -1.0750    0.2320 ca        1 KN3      0.203100
     21 OAU         2.5770   -2.2230    0.6520 oh        1 KN3     -0.494100
     22 OAV         6.7000    0.0450   -0.0800 oh        1 KN3     -0.492100
     23 CAW        -3.5660    1.6520   -0.2970 c3        1 KN3      0.693200
     24 FAX        -3.7720    1.4350   -1.6390 f         1 KN3     -0.237633
     25 FAY        -4.1820    0.5870    0.3170 f         1 KN3     -0.237633
     26 FAZ        -4.4010    2.7070   -0.0140 f         1 KN3     -0.237633
     27 HAA        -2.5790    3.7700    1.0020 ha        1 KN3      0.154000
     28 HAB        -0.2600    4.2990    1.6530 ha        1 KN3      0.146000
     29 HAC         1.6180    2.7230    1.0980 ha        1 KN3      0.151000
     30 HAK        -3.0070   -0.6320   -1.3650 h1        1 KN3      0.080200
     31 HAKA       -1.8200   -1.8940   -1.9400 h1        1 KN3      0.080200
     32 HAL        -3.0450   -1.5510    0.8910 ha        1 KN3      0.138000
     33 HAN        -3.0680   -5.0260    1.1750 hc        1 KN3      0.049533
     34 HANA       -1.5910   -4.4540    2.0570 hc        1 KN3      0.049533
     35 HANB       -3.1360   -3.5090    2.1690 hc        1 KN3      0.049533
     36 HAO        -0.3210   -3.5310   -0.9460 hc        1 KN3      0.049533
     37 HAOA       -0.9610   -5.0980   -0.2960 hc        1 KN3      0.049533
     38 HAOB       -1.8320   -4.2530   -1.6410 hc        1 KN3      0.049533
     39 HAP         2.7750    2.0940   -0.9720 ha        1 KN3      0.142000
     40 HAQ         5.2760    2.0390   -0.8720 ha        1 KN3      0.155000
     41 HAS         5.1000   -2.0270    0.6500 ha        1 KN3      0.155000
     42 HOAU        1.6170   -2.0950    0.6310 ho        1 KN3      0.439000
     43 HOAV        7.0200   -0.8130    0.2370 ho        1 KN3      0.424000
@<TRIPOS>BOND
     1    1    2 ar  
     2    1    6 ar  
     3    1   27 1   
     4    2    3 ar  
     5    2   28 1   
     6    3    4 ar  
     7    3   29 1   
     8    4    5 ar  
     9    4    7 1   
    10    5    6 ar  
    11    5    9 1   
    12    6   23 1   
    13    7    8 2   
    14    7   10 1   
    15    8    9 1   
    16    9   11 1   
    17   10   16 ar  
    18   10   20 ar  
    19   11   12 1   
    20   11   30 1   
    21   11   31 1   
    22   12   13 2   
    23   12   32 1   
    24   13   14 1   
    25   13   15 1   
    26   14   33 1   
    27   14   34 1   
    28   14   35 1   
    29   15   36 1   
    30   15   37 1   
    31   15   38 1   
    32   16   17 ar  
    33   16   39 1   
    34   17   18 ar  
    35   17   40 1   
    36   18   19 ar  
    37   18   22 1   
    38   19   20 ar  
    39   19   41 1   
    40   20   21 1   
    41   21   42 1   
    42   22   43 1   
    43   23   24 1   
    44   23   25 1   
    45   23   26 1   
@<TRIPOS>SUBSTRUCTURE
     1 KN3         1 TEMP              0 ****  ****    0 ROOT
