@<TRIPOS>MOLECULE
KN3
   43    45     1     0     0
SMALL
bcc


@<TRIPOS>ATOM
      1 CAA         0.0540    0.1420   -0.0240 ca        1 KN3     -0.055000
      2 CAB         1.4380    0.3320    0.0540 ca        1 KN3     -0.173000
      3 CAC         2.0960    0.2680    1.2770 ca        1 KN3     -0.034000
      4 CAD         1.3450    0.0340    2.4200 ca        1 KN3     -0.212900
      5 CAE        -0.0960   -0.1350    2.3590 ca        1 KN3      0.000800
      6 CAF        -0.7290   -0.1050    1.1050 ca        1 KN3     -0.183300
      7 CAG         1.6690   -0.1140    3.8400 cc        1 KN3      0.420500
      8 NAH         0.5370   -0.3360    4.5390 nd        1 KN3     -0.479100
      9 NAI        -0.5140   -0.3990    3.6850 na        1 KN3      0.106900
     10 CAJ         3.0090   -0.0570    4.3990 ca        1 KN3     -0.162900
     11 CAK        -1.8680   -0.2310    4.2080 c3        1 KN3      0.086500
     12 CAL        -2.2640    1.1830    4.4800 c2        1 KN3     -0.231200
     13 CAM        -2.2910    1.7440    5.6980 c2        1 KN3     -0.062400
     14 CAN        -2.7420    3.1460    5.8850 c3        1 KN3     -0.072400
     15 CAO        -1.8880    1.0320    6.9360 c3        1 KN3     -0.072400
     16 CAP         4.0320   -0.8170    3.8180 ca        1 KN3     -0.043000
     17 CAQ         5.3270   -0.7950    4.3220 ca        1 KN3     -0.253000
     18 CAR         5.6130    0.0060    5.4390 ca        1 KN3      0.173100
     19 CAS         4.6190    0.7830    6.0450 ca        1 KN3     -0.255000
     20 CAT         3.3200    0.7460    5.5190 ca        1 KN3      0.190100
     21 OAU         2.3110    1.5010    6.0610 oh        1 KN3     -0.475100
     22 OAV         6.8670    0.0790    5.9960 oh        1 KN3     -0.493100
     23 CAW        -2.2160   -0.3520    0.9020 c3        1 KN3      0.694200
     24 FAX        -2.6740   -1.5470    1.4040 f         1 KN3     -0.238967
     25 FAY        -3.0430    0.5920    1.4640 f         1 KN3     -0.238967
     26 FAZ        -2.6200   -0.3840   -0.4120 f         1 KN3     -0.238967
     27 HAA        -0.4320    0.1840   -1.0140 ha        1 KN3      0.152000
     28 HAB         2.0060    0.5280   -0.8680 ha        1 KN3      0.143000
     29 HAC         3.1870    0.3980    1.3470 ha        1 KN3      0.146000
     30 HAK        -2.5710   -0.6740    3.4460 h1        1 KN3      0.077200
     31 HAKA       -1.9420   -0.8490    5.1510 h1        1 KN3      0.077200
     32 HAL        -2.5640    1.7560    3.5870 ha        1 KN3      0.136000
     33 HAN        -1.9070    3.7590    6.3090 hc        1 KN3      0.048533
     34 HANA       -3.0660    3.6100    4.9220 hc        1 KN3      0.048533
     35 HANB       -3.6000    3.1800    6.6020 hc        1 KN3      0.048533
     36 HAO        -1.9010    1.7190    7.8170 hc        1 KN3      0.048533
     37 HAOA       -0.8550    0.6140    6.8300 hc        1 KN3      0.048533
     38 HAOB       -2.5900    0.1860    7.1440 hc        1 KN3      0.048533
     39 HAP         3.7970   -1.4470    2.9450 ha        1 KN3      0.144000
     40 HAQ         6.1150   -1.4010    3.8570 ha        1 KN3      0.139000
     41 HAS         4.8630    1.4050    6.9160 ha        1 KN3      0.155000
     42 HOAU        2.6710    1.9780    6.8250 ho        1 KN3      0.422000
     43 HOAV        7.4520   -0.5100    5.4950 ho        1 KN3      0.424000
@<TRIPOS>BOND
     1    1    2 ar  
     2    1    6 ar  
     3    1   27 1   
     4    2    3 ar  
     5    2   28 1   
     6    3    4 ar  
     7    3   29 1   
     8    4    5 ar  
     9    4    7 1   
    10    5    6 ar  
    11    5    9 1   
    12    6   23 1   
    13    7    8 2   
    14    7   10 1   
    15    8    9 1   
    16    9   11 1   
    17   10   16 ar  
    18   10   20 ar  
    19   11   12 1   
    20   11   30 1   
    21   11   31 1   
    22   12   13 2   
    23   12   32 1   
    24   13   14 1   
    25   13   15 1   
    26   14   33 1   
    27   14   34 1   
    28   14   35 1   
    29   15   36 1   
    30   15   37 1   
    31   15   38 1   
    32   16   17 ar  
    33   16   39 1   
    34   17   18 ar  
    35   17   40 1   
    36   18   19 ar  
    37   18   22 1   
    38   19   20 ar  
    39   19   41 1   
    40   20   21 1   
    41   21   42 1   
    42   22   43 1   
    43   23   24 1   
    44   23   25 1   
    45   23   26 1   
@<TRIPOS>SUBSTRUCTURE
     1 KN3         1 TEMP              0 ****  ****    0 ROOT
