@<TRIPOS>MOLECULE
KN3
   43    45     1     0     0
SMALL
bcc


@<TRIPOS>ATOM
      1 CAA         0.0570    0.1340   -0.0240 ca        1 KN3     -0.055000
      2 CAB         1.4410    0.3210    0.0540 ca        1 KN3     -0.173000
      3 CAC         2.0980    0.2580    1.2780 ca        1 KN3     -0.034000
      4 CAD         1.3450    0.0290    2.4210 ca        1 KN3     -0.212900
      5 CAE        -0.0960   -0.1360    2.3600 ca        1 KN3      0.000800
      6 CAF        -0.7280   -0.1080    1.1050 ca        1 KN3     -0.183300
      7 CAG         1.6680   -0.1160    3.8420 cc        1 KN3      0.420500
      8 NAH         0.5350   -0.3340    4.5400 nd        1 KN3     -0.479100
      9 NAI        -0.5150   -0.3960    3.6860 na        1 KN3      0.106900
     10 CAJ         3.0080   -0.0610    4.4010 ca        1 KN3     -0.162900
     11 CAK        -1.8700   -0.2240    4.2080 c3        1 KN3      0.086500
     12 CAL        -2.2620    1.1920    4.4770 c2        1 KN3     -0.231200
     13 CAM        -2.2900    1.7540    5.6940 c2        1 KN3     -0.062400
     14 CAN        -2.7380    3.1580    5.8780 c3        1 KN3     -0.072400
     15 CAO        -1.8920    1.0430    6.9340 c3        1 KN3     -0.072400
     16 CAP         4.0290   -0.8260    3.8230 ca        1 KN3     -0.043000
     17 CAQ         5.3230   -0.8060    4.3290 ca        1 KN3     -0.253000
     18 CAR         5.6120   -0.0030    5.4430 ca        1 KN3      0.173100
     19 CAS         4.6190    0.7800    6.0460 ca        1 KN3     -0.255000
     20 CAT         3.3200    0.7440    5.5190 ca        1 KN3      0.190100
     21 OAU         2.3130    1.5040    6.0580 oh        1 KN3     -0.475100
     22 OAV         6.8650    0.0680    6.0000 oh        1 KN3     -0.493100
     23 CAW        -2.2150   -0.3500    0.9020 c3        1 KN3      0.694200
     24 FAX        -2.6780   -1.5440    1.4060 f         1 KN3     -0.238967
     25 FAY        -3.0410    0.5960    1.4610 f         1 KN3     -0.238967
     26 FAZ        -2.6190   -0.3850   -0.4120 f         1 KN3     -0.238967
     27 HAA        -0.4290    0.1750   -1.0140 ha        1 KN3      0.152000
     28 HAB         2.0100    0.5130   -0.8670 ha        1 KN3      0.143000
     29 HAC         3.1890    0.3850    1.3480 ha        1 KN3      0.146000
     30 HAK        -2.5730   -0.6660    3.4470 h1        1 KN3      0.077200
     31 HAKA       -1.9460   -0.8400    5.1520 h1        1 KN3      0.077200
     32 HAL        -2.5600    1.7640    3.5820 ha        1 KN3      0.136000
     33 HAN        -1.9020    3.7690    6.3030 hc        1 KN3      0.048533
     34 HANA       -3.0600    3.6210    4.9140 hc        1 KN3      0.048533
     35 HANB       -3.5970    3.1950    6.5940 hc        1 KN3      0.048533
     36 HAO        -1.9020    1.7320    7.8140 hc        1 KN3      0.048533
     37 HAOA       -0.8610    0.6210    6.8290 hc        1 KN3      0.048533
     38 HAOB       -2.5970    0.2000    7.1430 hc        1 KN3      0.048533
     39 HAP         3.7930   -1.4590    2.9520 ha        1 KN3      0.144000
     40 HAQ         6.1110   -1.4160    3.8660 ha        1 KN3      0.139000
     41 HAS         4.8640    1.4040    6.9150 ha        1 KN3      0.155000
     42 HOAU        2.6740    1.9820    6.8210 ho        1 KN3      0.422000
     43 HOAV        7.4480   -0.5240    5.5020 ho        1 KN3      0.424000
@<TRIPOS>BOND
     1    1    2 ar  
     2    1    6 ar  
     3    1   27 1   
     4    2    3 ar  
     5    2   28 1   
     6    3    4 ar  
     7    3   29 1   
     8    4    5 ar  
     9    4    7 1   
    10    5    6 ar  
    11    5    9 1   
    12    6   23 1   
    13    7    8 2   
    14    7   10 1   
    15    8    9 1   
    16    9   11 1   
    17   10   16 ar  
    18   10   20 ar  
    19   11   12 1   
    20   11   30 1   
    21   11   31 1   
    22   12   13 2   
    23   12   32 1   
    24   13   14 1   
    25   13   15 1   
    26   14   33 1   
    27   14   34 1   
    28   14   35 1   
    29   15   36 1   
    30   15   37 1   
    31   15   38 1   
    32   16   17 ar  
    33   16   39 1   
    34   17   18 ar  
    35   17   40 1   
    36   18   19 ar  
    37   18   22 1   
    38   19   20 ar  
    39   19   41 1   
    40   20   21 1   
    41   21   42 1   
    42   22   43 1   
    43   23   24 1   
    44   23   25 1   
    45   23   26 1   
@<TRIPOS>SUBSTRUCTURE
     1 KN3         1 TEMP              0 ****  ****    0 ROOT
