@<TRIPOS>MOLECULE
KNA
   28    27     1     0     0
SMALL
bcc


@<TRIPOS>ATOM
      1 C1          0.0290    0.1010   -0.0300 c         1 KNA      0.907600
      2 O1          1.0500   -0.6350   -0.1600 o         1 KNA     -0.853800
      3 C2         -0.7490    0.0180    1.2950 c3        1 KNA     -0.193400
      4 O2         -0.3710    0.9100   -0.9160 o         1 KNA     -0.853800
      5 C3         -2.2370   -0.0650    1.0540 c3        1 KNA     -0.065400
      6 C4         -3.0250    0.0370    2.3430 c3        1 KNA     -0.078400
      7 C5         -4.5140   -0.0650    2.0920 c3        1 KNA     -0.078400
      8 C6         -5.3030    0.0450    3.3790 c3        1 KNA     -0.078400
      9 C7         -6.7920   -0.0580    3.1260 c3        1 KNA     -0.079400
     10 C8         -7.5820    0.0520    4.4130 c3        1 KNA     -0.080400
     11 C9         -9.0650   -0.0500    4.1650 c3        1 KNA     -0.090100
     12 H2         -0.5090    0.9350    1.8910 hc        1 KNA      0.018700
     13 H2A        -0.3990   -0.8720    1.8760 hc        1 KNA      0.018700
     14 H3         -2.4790   -1.0340    0.5430 hc        1 KNA      0.043700
     15 H3A        -2.5330    0.7610    0.3530 hc        1 KNA      0.043700
     16 H4         -2.7960    1.0140    2.8460 hc        1 KNA      0.025700
     17 H4A        -2.7060   -0.7770    3.0450 hc        1 KNA      0.025700
     18 H5         -4.8300    0.7470    1.3860 hc        1 KNA      0.036700
     19 H5A        -4.7440   -1.0440    1.5930 hc        1 KNA      0.036700
     20 H6         -5.0740    1.0240    3.8770 hc        1 KNA      0.034200
     21 H6A        -4.9850   -0.7670    4.0850 hc        1 KNA      0.034200
     22 H7         -7.1100    0.7530    2.4200 hc        1 KNA      0.037200
     23 H7A        -7.0210   -1.0370    2.6280 hc        1 KNA      0.037200
     24 H8         -7.3500    1.0310    4.9100 hc        1 KNA      0.035700
     25 H8A        -7.2620   -0.7600    5.1180 hc        1 KNA      0.035700
     26 H9         -9.3190   -1.0290    3.6910 hc        1 KNA      0.027367
     27 H9A        -9.4070    0.7660    3.4830 hc        1 KNA      0.027367
     28 H9B        -9.6280    0.0340    5.1250 hc        1 KNA      0.027367
@<TRIPOS>BOND
     1    1    2 1   
     2    1    3 1   
     3    1    4 1   
     4    3    5 1   
     5    3   12 1   
     6    3   13 1   
     7    5    6 1   
     8    5   14 1   
     9    5   15 1   
    10    6    7 1   
    11    6   16 1   
    12    6   17 1   
    13    7    8 1   
    14    7   18 1   
    15    7   19 1   
    16    8    9 1   
    17    8   20 1   
    18    8   21 1   
    19    9   10 1   
    20    9   22 1   
    21    9   23 1   
    22   10   11 1   
    23   10   24 1   
    24   10   25 1   
    25   11   26 1   
    26   11   27 1   
    27   11   28 1   
@<TRIPOS>SUBSTRUCTURE
     1 KNA         1 TEMP              0 ****  ****    0 ROOT
