@<TRIPOS>MOLECULE
KNA
   28    27     1     0     0
SMALL
bcc


@<TRIPOS>ATOM
      1 C1          3.9630   -0.1130   -0.0980 c         1 KNA      0.907600
      2 O1          4.9310    0.1940    0.6570 o         1 KNA     -0.853800
      3 C2          2.6710    0.7150    0.0230 c3        1 KNA     -0.193400
      4 O2          4.0070   -1.0430   -0.9550 o         1 KNA     -0.853800
      5 C3          1.4520   -0.1730    0.0600 c3        1 KNA     -0.065400
      6 C4          0.1680    0.6270   -0.0070 c3        1 KNA     -0.078400
      7 C5         -1.0490   -0.2710    0.0500 c3        1 KNA     -0.078400
      8 C6         -2.3330    0.5270   -0.0250 c3        1 KNA     -0.078400
      9 C7         -3.5490   -0.3730    0.0340 c3        1 KNA     -0.079400
     10 C8         -4.8330    0.4240   -0.0430 c3        1 KNA     -0.080400
     11 C9         -6.0460   -0.4680    0.0160 c3        1 KNA     -0.090100
     12 H2          2.7210    1.3480    0.9440 hc        1 KNA      0.018700
     13 H2A         2.6190    1.3990   -0.8630 hc        1 KNA      0.018700
     14 H3          1.5050   -0.8920   -0.8010 hc        1 KNA      0.043700
     15 H3A         1.4640   -0.7840    1.0000 hc        1 KNA      0.043700
     16 H4          0.1350    1.3580    0.8430 hc        1 KNA      0.025700
     17 H4A         0.1470    1.2250   -0.9560 hc        1 KNA      0.025700
     18 H5         -1.0120   -1.0050   -0.7970 hc        1 KNA      0.036700
     19 H5A        -1.0320   -0.8650    1.0020 hc        1 KNA      0.036700
     20 H6         -2.3690    1.2620    0.8210 hc        1 KNA      0.034200
     21 H6A        -2.3510    1.1200   -0.9780 hc        1 KNA      0.034200
     22 H7         -3.5130   -1.1090   -0.8130 hc        1 KNA      0.037200
     23 H7A        -3.5310   -0.9660    0.9860 hc        1 KNA      0.037200
     24 H8         -4.8660    1.1610    0.8030 hc        1 KNA      0.035700
     25 H8A        -4.8480    1.0170   -0.9960 hc        1 KNA      0.035700
     26 H9         -6.0430   -1.1930   -0.8340 hc        1 KNA      0.027367
     27 H9A        -6.0610   -1.0490    0.9690 hc        1 KNA      0.027367
     28 H9B        -6.9810    0.1390   -0.0420 hc        1 KNA      0.027367
@<TRIPOS>BOND
     1    1    2 1   
     2    1    3 1   
     3    1    4 1   
     4    3    5 1   
     5    3   12 1   
     6    3   13 1   
     7    5    6 1   
     8    5   14 1   
     9    5   15 1   
    10    6    7 1   
    11    6   16 1   
    12    6   17 1   
    13    7    8 1   
    14    7   18 1   
    15    7   19 1   
    16    8    9 1   
    17    8   20 1   
    18    8   21 1   
    19    9   10 1   
    20    9   22 1   
    21    9   23 1   
    22   10   11 1   
    23   10   24 1   
    24   10   25 1   
    25   11   26 1   
    26   11   27 1   
    27   11   28 1   
@<TRIPOS>SUBSTRUCTURE
     1 KNA         1 TEMP              0 ****  ****    0 ROOT
