@<TRIPOS>MOLECULE
KNA
   28    27     1     0     0
SMALL
bcc


@<TRIPOS>ATOM
      1 C1          0.0300    0.0980   -0.0280 c         1 KNA      0.907600
      2 O1          1.0330   -0.6560   -0.1880 o         1 KNA     -0.853800
      3 C2         -0.7500   -0.0200    1.2930 c3        1 KNA     -0.193400
      4 O2         -0.3510    0.9510   -0.8810 o         1 KNA     -0.853800
      5 C3         -2.2390   -0.0590    1.0500 c3        1 KNA     -0.065400
      6 C4         -3.0250    0.0100    2.3430 c3        1 KNA     -0.078400
      7 C5         -4.5160   -0.0500    2.0900 c3        1 KNA     -0.078400
      8 C6         -5.3020    0.0280    3.3810 c3        1 KNA     -0.078400
      9 C7         -6.7930   -0.0330    3.1250 c3        1 KNA     -0.079400
     10 C8         -7.5800    0.0450    4.4160 c3        1 KNA     -0.080400
     11 C9         -9.0650   -0.0150    4.1660 c3        1 KNA     -0.090100
     12 H2         -0.4890    0.8680    1.9250 hc        1 KNA      0.018700
     13 H2A        -0.4190   -0.9390    1.8390 hc        1 KNA      0.018700
     14 H3         -2.5020   -1.0020    0.5020 hc        1 KNA      0.043700
     15 H3A        -2.5170    0.7990    0.3830 hc        1 KNA      0.043700
     16 H4         -2.7750    0.9610    2.8830 hc        1 KNA      0.025700
     17 H4A        -2.7240   -0.8380    3.0130 hc        1 KNA      0.025700
     18 H5         -4.8140    0.7950    1.4150 hc        1 KNA      0.036700
     19 H5A        -4.7670   -1.0030    1.5540 hc        1 KNA      0.036700
     20 H6         -5.0520    0.9820    3.9160 hc        1 KNA      0.034200
     21 H6A        -5.0020   -0.8170    4.0560 hc        1 KNA      0.034200
     22 H7         -7.0930    0.8110    2.4500 hc        1 KNA      0.037200
     23 H7A        -7.0430   -0.9870    2.5910 hc        1 KNA      0.037200
     24 H8         -7.3270    1.0000    4.9490 hc        1 KNA      0.035700
     25 H8A        -7.2770   -0.7990    5.0900 hc        1 KNA      0.035700
     26 H9         -9.3390   -0.9710    3.6560 hc        1 KNA      0.027367
     27 H9A        -9.3900    0.8320    3.5150 hc        1 KNA      0.027367
     28 H9B        -9.6260    0.0440    5.1290 hc        1 KNA      0.027367
@<TRIPOS>BOND
     1    1    2 1   
     2    1    3 1   
     3    1    4 1   
     4    3    5 1   
     5    3   12 1   
     6    3   13 1   
     7    5    6 1   
     8    5   14 1   
     9    5   15 1   
    10    6    7 1   
    11    6   16 1   
    12    6   17 1   
    13    7    8 1   
    14    7   18 1   
    15    7   19 1   
    16    8    9 1   
    17    8   20 1   
    18    8   21 1   
    19    9   10 1   
    20    9   22 1   
    21    9   23 1   
    22   10   11 1   
    23   10   24 1   
    24   10   25 1   
    25   11   26 1   
    26   11   27 1   
    27   11   28 1   
@<TRIPOS>SUBSTRUCTURE
     1 KNA         1 TEMP              0 ****  ****    0 ROOT
