@<TRIPOS>MOLECULE
KNA
   28    26     1     0     0
SMALL
bcc


@<TRIPOS>ATOM
      1 C1          1.8910   -2.6830   -3.9330 c1        1 KNA      0.327000
      2 O1          3.0740   -2.3950   -4.2510 o         1 KNA     -0.588500
      3 C2          1.4650   -2.6370   -2.4820 c2        1 KNA     -0.222000
      4 O2          1.0620   -3.0100   -4.8220 o         1 KNA     -0.588500
      5 C3          0.9850   -1.2440   -2.1410 c3        1 KNA     -0.144000
      6 C4          0.5720   -1.1950   -0.6860 c3        1 KNA     -0.157000
      7 C5          0.0440    0.1850   -0.3580 c3        1 KNA     -0.157000
      8 C6         -0.3570    0.2380    1.1000 c3        1 KNA     -0.157000
      9 C7         -0.9050    1.6100    1.4220 c3        1 KNA     -0.158000
     10 C8         -1.2480    1.6830    2.8940 c3        1 KNA     -0.159000
     11 C9         -1.8540    3.0340    3.2040 c3        1 KNA     -0.208000
     12 H2          2.2250   -2.8690   -1.9110 ha        1 KNA      0.058000
     13 H2A         0.7400   -3.2770   -2.3350 ha        1 KNA      0.058000
     14 H3          0.2190   -1.0160   -2.7050 hc        1 KNA      0.083000
     15 H3A         1.7070   -0.6030   -2.2960 hc        1 KNA      0.083000
     16 H4         -0.1280   -1.8590   -0.5230 hc        1 KNA      0.065000
     17 H4A         1.3450   -1.3910   -0.1210 hc        1 KNA      0.065000
     18 H5         -0.7350    0.3770   -0.9170 hc        1 KNA      0.076000
     19 H5A         0.7410    0.8490   -0.5290 hc        1 KNA      0.076000
     20 H6         -1.0430   -0.4370    1.2740 hc        1 KNA      0.073500
     21 H6A         0.4250    0.0590    1.6600 hc        1 KNA      0.073500
     22 H7         -1.7110    1.7720    0.8920 hc        1 KNA      0.076500
     23 H7A        -0.2330    2.2880    1.2100 hc        1 KNA      0.076500
     24 H8         -0.4350    1.5610    3.4250 hc        1 KNA      0.075000
     25 H8A        -1.8900    0.9790    3.1150 hc        1 KNA      0.075000
     26 H9         -1.1980    3.7380    3.0170 hc        1 KNA      0.066667
     27 H9A        -2.1090    3.0680    4.1500 hc        1 KNA      0.066667
     28 H9B        -2.6490    3.1710    2.6470 hc        1 KNA      0.066667
@<TRIPOS>BOND
     1    1    2 1   
     2    1    4 1   
     3    3    5 1   
     4    3   12 1   
     5    3   13 1   
     6    5    6 1   
     7    5   14 1   
     8    5   15 1   
     9    6    7 1   
    10    6   16 1   
    11    6   17 1   
    12    7    8 1   
    13    7   18 1   
    14    7   19 1   
    15    8    9 1   
    16    8   20 1   
    17    8   21 1   
    18    9   10 1   
    19    9   22 1   
    20    9   23 1   
    21   10   11 1   
    22   10   24 1   
    23   10   25 1   
    24   11   26 1   
    25   11   27 1   
    26   11   28 1   
@<TRIPOS>SUBSTRUCTURE
     1 KNA         1 TEMP              0 ****  ****    0 ROOT
