@<TRIPOS>MOLECULE
KNB
   18    17     1     0     0
SMALL
bcc


@<TRIPOS>ATOM
      1 C           2.3440   -0.2860   -0.2000 c         1 KNB      0.900600
      2 O           3.2650    0.5670   -0.3130 o         1 KNB     -0.831800
      3 CA          0.9560    0.2070    0.3340 c3        1 KNB      0.043500
      4 CB         -0.1260   -0.2740   -0.6410 c3        1 KNB     -0.319600
      5 S          -1.6730    0.1630   -0.1490 s6        1 KNB      1.341000
      6 O2         -2.1390    1.3250   -0.7940 o         1 KNB     -0.672800
      7 CS         -2.5240   -1.1520   -0.8600 c3        1 KNB     -0.342300
      8 O1         -1.8920    0.0730    1.2370 o         1 KNB     -0.672800
      9 N           0.8330    1.6390    0.5460 n3        1 KNB     -0.910800
     10 H21         0.7870   -0.3140    1.3220 h1        1 KNB      0.058700
     11 H111        0.1160    0.1420   -1.6570 h1        1 KNB      0.132200
     12 H112        0.0530   -1.3820   -0.7370 h1        1 KNB      0.132200
     13 H281       -2.3180   -2.1150   -0.3380 h1        1 KNB      0.093033
     14 H282       -3.6260   -0.9830   -0.8110 h1        1 KNB      0.093033
     15 H283       -2.2660   -1.2970   -1.9340 h1        1 KNB      0.093033
     16 HN1         1.3310    1.8800    1.3830 hn        1 KNB      0.348300
     17 OXT         2.4450   -1.5140   -0.4710 o         1 KNB     -0.831800
     18 H2          1.2880    2.1170   -0.2130 hn        1 KNB      0.348300
@<TRIPOS>BOND
     1    1    2 1   
     2    1    3 1   
     3    1   17 1   
     4    3    4 1   
     5    3    9 1   
     6    3   10 1   
     7    4    5 1   
     8    4   11 1   
     9    4   12 1   
    10    5    6 2   
    11    5    7 1   
    12    5    8 2   
    13    7   13 1   
    14    7   14 1   
    15    7   15 1   
    16    9   16 1   
    17    9   18 1   
@<TRIPOS>SUBSTRUCTURE
     1 KNB         1 TEMP              0 ****  ****    0 ROOT
