@<TRIPOS>MOLECULE
KNI
   87    81     1     0     0
SMALL
bcc


@<TRIPOS>ATOM
      1 C1         -7.9970    6.4010    0.0470 c1        1 KNI     -0.129000
      2 C2         -6.7870    5.8890    0.5450 c1        1 KNI     -0.129000
      3 C3         -5.7440    6.7650    0.8970 c1        1 KNI     -0.027000
      4 C4         -5.9120    8.1190    0.7540 c1        1 KNI     -0.071000
      5 C5         -7.1440    8.6340    0.2470 c1        1 KNI     -0.053000
      6 C6         -4.5190    6.2510    1.3970 c1        1 KNI      0.089000
      7 C7         -3.4870    7.1210    1.7420 c1        1 KNI     -0.129000
      8 C8         -3.6570    8.5040    1.5960 c1        1 KNI     -0.129000
      9 C9         -4.8560    9.0090    1.1070 c1        1 KNI     -0.129000
     10 C10        -3.3470    4.1630    1.6810 c3        1 KNI     -0.045000
     11 C11        -3.5190    2.6920    1.3990 c2        1 KNI      0.302000
     12 N1         -8.1650    7.7710   -0.0970 n1        1 KNI     -0.128000
     13 O1         -4.6210    4.8300    1.5540 os        1 KNI     -0.217000
     14 O3         -4.6150    2.1730    1.5160 o         1 KNI     -0.356000
     15 N2         -2.3690    1.8850    1.0630 n         1 KNI     -0.341000
     16 C26        -2.5470    0.5630    0.5760 c3        1 KNI      0.012000
     17 C12        -2.7850    0.6010   -0.8960 c3        1 KNI     -0.296000
     18 S1         -4.5350    0.3720   -1.2250 ss        1 KNI      0.074000
     19 C27        -4.8270    0.4300   -2.9900 c3        1 KNI     -0.353000
     20 C13        -1.2690   -0.2790    0.8740 c2        1 KNI      0.273000
     21 O6         -0.5140    0.0610    1.7620 o         1 KNI     -0.382000
     22 C17         2.4010   -2.8710   -0.4080 c1        1 KNI      0.289000
     23 N3         -1.0630   -1.5620    0.1910 n         1 KNI     -0.363000
     24 O4          2.4610   -3.6470    0.5320 o         1 KNI     -0.385000
     25 C15         1.0750   -2.1190   -0.7110 c2        1 KNI     -0.008000
     26 C28        -1.1350   -4.2350   -0.6150 c1        1 KNI     -0.089000
     27 C16        -0.2340   -3.8110    0.5630 c2        1 KNI     -0.143000
     28 C31        -2.8270   -5.2630   -2.5850 c1        1 KNI     -0.129000
     29 C14         0.1190   -2.3100    0.4310 c3        1 KNI      0.014000
     30 O2          0.5190   -2.6160   -1.8630 oh        1 KNI     -0.323000
     31 C29        -0.6290   -5.0740   -1.6060 c2        1 KNI     -0.145000
     32 C33        -2.4970   -3.9050   -0.6070 c1        1 KNI     -0.128000
     33 C30        -1.4800   -5.5880   -2.5910 c1        1 KNI     -0.123000
     34 C32        -3.3400   -4.4170   -1.5870 c1        1 KNI     -0.129000
     35 N4          3.5940   -2.6180   -1.2290 n3        1 KNI     -0.313000
     36 C20         3.6730   -1.7920   -2.2890 c3        1 KNI     -0.136000
     37 C18         5.1650   -3.3330   -1.0110 c3        1 KNI      0.002000
     38 C19         5.6170   -3.5420   -2.3290 c3        1 KNI     -0.275000
     39 S2          4.8560   -2.4110   -3.2450 ss        1 KNI      0.061000
     40 C21         6.0630   -2.5400   -0.2060 c2        1 KNI      0.299000
     41 O5          6.3240   -1.3980   -0.5330 o         1 KNI     -0.374000
     42 N5          6.6670   -3.1000    0.9460 n         1 KNI     -0.365000
     43 C22         7.4840   -2.2650    1.8120 c3        1 KNI      0.087000
     44 C23         6.7500   -2.0270    3.1280 c3        1 KNI     -0.227000
     45 C24         7.7550   -0.8910    1.1090 c3        1 KNI     -0.227000
     46 C25         8.8450   -2.9800    2.0950 c3        1 KNI     -0.227000
     47 H1         -8.7250    5.7900   -0.1970 ha        1 KNI      0.146833
     48 H2         -6.6700    4.9210    0.6460 ha        1 KNI      0.146833
     49 H5         -7.2650    9.6020    0.1430 ha        1 KNI      0.161000
     50 H7         -2.6290    6.7610    2.0910 ha        1 KNI      0.146833
     51 H8         -2.9210    9.1250    1.8420 ha        1 KNI      0.146833
     52 H9         -4.9770    9.9990    1.0020 ha        1 KNI      0.140000
     53 H101       -2.7100    4.5480    1.0370 h1        1 KNI      0.116500
     54 H102       -3.0060    4.2820    2.5850 h1        1 KNI      0.116500
     55 HN2        -1.5160    2.2210    1.1860 hn        1 KNI      0.250000
     56 H26        -3.3110    0.1570    1.0150 h1        1 KNI      0.158000
     57 H121       -2.2800   -0.1090   -1.3220 h1        1 KNI      0.126500
     58 H122       -2.4970    1.4660   -1.2510 h1        1 KNI      0.126500
     59 H271       -5.7660    0.6970   -3.1620 h1        1 KNI      0.113667
     60 H272       -4.2240    1.0800   -3.4000 h1        1 KNI      0.113667
     61 H273       -4.6640   -0.4530   -3.3740 h1        1 KNI      0.113667
     62 HN3        -1.6760   -1.8580   -0.4190 hn        1 KNI      0.254000
     63 H15         1.2610   -1.1600   -0.8250 h4        1 KNI      0.146000
     64 H161       -0.7030   -3.9620    1.4010 ha        1 KNI      0.119000
     65 H162        0.5780   -4.3340    0.5500 ha        1 KNI      0.119000
     66 H31        -3.4260   -5.6270   -3.2810 ha        1 KNI      0.146833
     67 H14         0.5360   -1.9990    1.2610 h1        1 KNI      0.139000
     68 HO2         0.5470   -1.9950   -2.4960 ho        1 KNI      0.223000
     69 H29         0.3320   -5.3090   -1.6110 ha        1 KNI      0.131000
     70 H33        -2.8510   -3.3180    0.0820 ha        1 KNI      0.141000
     71 H30        -1.1240   -6.1750   -3.2850 ha        1 KNI      0.135000
     72 H32        -4.2870   -4.1880   -1.5820 ha        1 KNI      0.146833
     73 H201        2.8230   -1.7770   -2.7700 h2        1 KNI      0.128000
     74 H202        3.9140   -0.8820   -1.9930 h2        1 KNI      0.128000
     75 H18         5.1230   -4.1620   -0.5020 h1        1 KNI      0.138000
     76 H191        6.5940   -3.4180   -2.3760 h1        1 KNI      0.141000
     77 H192        5.3730   -4.4440   -2.6330 h1        1 KNI      0.141000
     78 HN5         6.5960   -3.9990    1.1110 hn        1 KNI      0.248000
     79 H231        5.9690   -1.4690    2.9680 hc        1 KNI      0.085556
     80 H232        6.4670   -2.8820    3.5010 hc        1 KNI      0.085556
     81 H233        7.3520   -1.5740    3.7630 hc        1 KNI      0.085556
     82 H241        8.4600   -0.4070    1.5970 hc        1 KNI      0.085556
     83 H242        8.0470   -1.0480    0.1770 hc        1 KNI      0.085556
     84 H243        6.9140   -0.3440    1.1070 hc        1 KNI      0.085556
     85 H251        9.3020   -3.1620    1.2440 hc        1 KNI      0.085556
     86 H252        8.6750   -3.8400    2.5730 hc        1 KNI      0.085556
     87 H253        9.4160   -2.3970    2.6570 hc        1 KNI      0.085556
@<TRIPOS>BOND
     1    1    2 1   
     2    1   47 1   
     3    2   48 1   
     4    3    4 1   
     5    3    6 1   
     6    4    9 1   
     7    5   12 1   
     8    5   49 1   
     9    6   13 1   
    10    7    8 1   
    11    7   50 1   
    12    8   51 1   
    13    9   52 1   
    14   10   11 1   
    15   10   13 1   
    16   10   53 1   
    17   10   54 1   
    18   11   14 1   
    19   11   15 1   
    20   15   16 1   
    21   15   55 1   
    22   16   17 1   
    23   16   20 1   
    24   16   56 1   
    25   17   18 1   
    26   17   57 1   
    27   17   58 1   
    28   18   19 1   
    29   19   59 1   
    30   19   60 1   
    31   19   61 1   
    32   20   21 1   
    33   20   23 1   
    34   22   24 1   
    35   22   35 1   
    36   23   29 1   
    37   23   62 1   
    38   25   29 1   
    39   25   30 1   
    40   25   63 1   
    41   26   31 1   
    42   26   32 1   
    43   27   29 1   
    44   27   64 1   
    45   27   65 1   
    46   28   34 1   
    47   28   66 1   
    48   29   67 1   
    49   30   68 1   
    50   31   33 1   
    51   31   69 1   
    52   32   70 1   
    53   33   71 1   
    54   34   72 1   
    55   35   36 1   
    56   35   37 1   
    57   36   39 1   
    58   36   73 1   
    59   36   74 1   
    60   37   38 1   
    61   37   40 1   
    62   37   75 1   
    63   38   39 1   
    64   38   76 1   
    65   38   77 1   
    66   40   41 1   
    67   40   42 1   
    68   42   43 1   
    69   42   78 1   
    70   43   44 1   
    71   43   45 1   
    72   43   46 1   
    73   44   79 1   
    74   44   80 1   
    75   44   81 1   
    76   45   82 1   
    77   45   83 1   
    78   45   84 1   
    79   46   85 1   
    80   46   86 1   
    81   46   87 1   
@<TRIPOS>SUBSTRUCTURE
     1 KNI         1 TEMP              0 ****  ****    0 ROOT
