@<TRIPOS>MOLECULE
KNI
   87    90     1     0     0
SMALL
bcc


@<TRIPOS>ATOM
      1 C1          7.7180    0.7130    1.1180 ca        1 KNI      0.376200
      2 C2          6.7450    0.3100    0.2200 ca        1 KNI     -0.209300
      3 C3          5.4700    0.9340    0.2660 ca        1 KNI     -0.024000
      4 C4          5.2470    1.9450    1.2350 ca        1 KNI     -0.139300
      5 C5          6.3390    2.2700    2.1100 ca        1 KNI      0.415200
      6 C6          4.3910    0.5960   -0.6120 ca        1 KNI      0.104100
      7 C7          3.1720    1.2370   -0.5240 ca        1 KNI     -0.187000
      8 C8          2.9790    2.2440    0.4510 ca        1 KNI     -0.098000
      9 C9          3.9890    2.5930    1.3130 ca        1 KNI     -0.124000
     10 C10         3.7720   -0.6360   -2.5710 c3        1 KNI      0.059400
     11 C11         2.5820   -1.5230   -2.2170 c         1 KNI      0.637100
     12 N1          7.5250    1.6860    2.0630 nb        1 KNI     -0.655000
     13 O1          4.6880   -0.4200   -1.5080 os        1 KNI     -0.323900
     14 O3          1.7080   -1.7340   -3.0890 o         1 KNI     -0.636100
     15 N2          2.4900   -2.0590   -0.9570 n         1 KNI     -0.545900
     16 C26         1.4850   -3.0300   -0.6000 c3        1 KNI      0.061700
     17 C12         1.9160   -3.9450    0.5450 c3        1 KNI     -0.030300
     18 S1          3.3390   -4.8700    0.0490 ss        1 KNI     -0.291200
     19 C27         3.6250   -5.8610    1.4660 c3        1 KNI     -0.039000
     20 C13         0.1530   -2.3490   -0.1770 c         1 KNI      0.647100
     21 O6         -0.2660   -2.4200    0.9970 o         1 KNI     -0.636100
     22 C17        -4.1240   -1.3740    0.0520 c         1 KNI      0.638100
     23 N3         -0.5320   -1.6770   -1.1580 n         1 KNI     -0.547900
     24 O4         -5.1400   -1.1830   -0.6560 o         1 KNI     -0.634100
     25 C15        -2.9180   -2.0840   -0.5730 c3        1 KNI      0.060100
     26 C28        -1.4140    1.0450   -2.2480 ca        1 KNI     -0.086300
     27 C16        -2.2620   -0.1650   -2.0790 c3        1 KNI     -0.053100
     28 C31         0.1470    3.3430   -2.5990 ca        1 KNI     -0.128000
     29 C14        -1.8040   -1.0450   -0.9020 c3        1 KNI      0.090700
     30 O2         -3.3260   -2.8000   -1.7150 oh        1 KNI     -0.577800
     31 C29        -0.2470    0.9940   -3.0200 ca        1 KNI     -0.125000
     32 C33        -1.7920    2.2550   -1.6530 ca        1 KNI     -0.125000
     33 C30         0.5300    2.1390   -3.1900 ca        1 KNI     -0.134000
     34 C32        -1.0140    3.3980   -1.8290 ca        1 KNI     -0.134000
     35 N4         -4.0860   -0.9210    1.3560 n         1 KNI     -0.449800
     36 C20        -2.9900   -1.1590    2.2590 c3        1 KNI      0.157100
     37 C18        -5.3060   -0.4570    2.0110 c3        1 KNI      0.027700
     38 C19        -5.2800   -0.8280    3.4980 c3        1 KNI     -0.018300
     39 S2         -3.6670   -1.4640    3.8970 ss        1 KNI     -0.299200
     40 C21        -5.5290    1.0730    1.8340 c         1 KNI      0.655100
     41 O5         -5.6420    1.8170    2.8270 o         1 KNI     -0.609100
     42 N5         -5.6020    1.5260    0.5400 n         1 KNI     -0.557900
     43 C22        -5.9170    2.9080    0.1830 c3        1 KNI      0.121400
     44 C23        -4.8770    3.8900    0.7480 c3        1 KNI     -0.108767
     45 C24        -7.3010    3.3360    0.7020 c3        1 KNI     -0.108767
     46 C25        -5.9220    3.0590   -1.3490 c3        1 KNI     -0.108767
     47 H1          8.7250    0.2590    1.1210 h4        1 KNI      0.026100
     48 H2          6.9370   -0.4760   -0.5240 ha        1 KNI      0.158000
     49 H5          6.1980    3.0540    2.8780 h4        1 KNI      0.025100
     50 H7          2.3350    0.9820   -1.1920 ha        1 KNI      0.150000
     51 H8          1.9970    2.7390    0.5060 ha        1 KNI      0.144000
     52 H9          3.8410    3.3740    2.0740 ha        1 KNI      0.142000
     53 H101        4.3890   -1.1830   -3.3400 h1        1 KNI      0.097200
     54 H102        3.3900    0.3280   -2.9980 h1        1 KNI      0.097200
     55 HN2         3.2270   -1.8990   -0.3060 hn        1 KNI      0.341500
     56 H26         1.2620   -3.6680   -1.5140 h1        1 KNI      0.099700
     57 H121        2.1270   -3.3510    1.4680 h1        1 KNI      0.088200
     58 H122        1.0640   -4.6290    0.7850 h1        1 KNI      0.088200
     59 H271        3.8370   -5.2450    2.3690 h1        1 KNI      0.068033
     60 H272        2.7630   -6.5300    1.6860 h1        1 KNI      0.068033
     61 H273        4.5190   -6.4840    1.2310 h1        1 KNI      0.068033
     62 HN3        -0.2140   -1.7210   -2.1030 hn        1 KNI      0.347500
     63 H15        -2.5190   -2.8780    0.1250 h1        1 KNI      0.117700
     64 H161       -2.2620   -0.7680   -3.0270 hc        1 KNI      0.068200
     65 H162       -3.3260    0.1390   -1.8760 hc        1 KNI      0.068200
     66 H31         0.7580    4.2470   -2.7410 ha        1 KNI      0.134000
     67 H14        -1.6790   -0.3980    0.0200 h1        1 KNI      0.077700
     68 HO2        -3.9210   -2.2360   -2.2320 ho        1 KNI      0.424000
     69 H29         0.0640    0.0480   -3.4940 ha        1 KNI      0.144000
     70 H33        -2.7110    2.3060   -1.0480 ha        1 KNI      0.144000
     71 H30         1.4430    2.0920   -3.8010 ha        1 KNI      0.132000
     72 H32        -1.3210    4.3450   -1.3610 ha        1 KNI      0.132000
     73 H201       -2.3540   -2.0340    1.9600 h2        1 KNI      0.096700
     74 H202       -2.3350   -0.2470    2.3050 h2        1 KNI      0.096700
     75 H18        -6.1910   -0.9660    1.5160 h1        1 KNI      0.099700
     76 H191       -5.5000    0.0600    4.1420 h1        1 KNI      0.101200
     77 H192       -6.0390   -1.6170    3.7110 h1        1 KNI      0.101200
     78 HN5        -5.6410    0.8610   -0.2010 hn        1 KNI      0.333500
     79 H231       -4.8550    3.8350    1.8630 hc        1 KNI      0.046033
     80 H232       -3.8600    3.6590    0.3520 hc        1 KNI      0.046033
     81 H233       -5.1530    4.9270    0.4420 hc        1 KNI      0.046033
     82 H241       -7.4940    4.3930    0.4030 hc        1 KNI      0.046033
     83 H242       -8.1020    2.6910    0.2710 hc        1 KNI      0.046033
     84 H243       -7.3340    3.2650    1.8160 hc        1 KNI      0.046033
     85 H251       -4.9240    2.8000   -1.7780 hc        1 KNI      0.046033
     86 H252       -6.6980    2.4040   -1.8140 hc        1 KNI      0.046033
     87 H253       -6.1550    4.1200   -1.6050 hc        1 KNI      0.046033
@<TRIPOS>BOND
     1    1    2 ar  
     2    1   12 ar  
     3    1   47 1   
     4    2    3 ar  
     5    2   48 1   
     6    3    4 ar  
     7    3    6 ar  
     8    4    5 ar  
     9    4    9 ar  
    10    5   12 ar  
    11    5   49 1   
    12    6    7 ar  
    13    6   13 1   
    14    7    8 ar  
    15    7   50 1   
    16    8    9 ar  
    17    8   51 1   
    18    9   52 1   
    19   10   11 1   
    20   10   13 1   
    21   10   53 1   
    22   10   54 1   
    23   11   14 2   
    24   11   15 1   
    25   15   16 1   
    26   15   55 1   
    27   16   17 1   
    28   16   20 1   
    29   16   56 1   
    30   17   18 1   
    31   17   57 1   
    32   17   58 1   
    33   18   19 1   
    34   19   59 1   
    35   19   60 1   
    36   19   61 1   
    37   20   21 2   
    38   20   23 1   
    39   22   24 2   
    40   22   25 1   
    41   22   35 1   
    42   23   29 1   
    43   23   62 1   
    44   25   29 1   
    45   25   30 1   
    46   25   63 1   
    47   26   27 1   
    48   26   31 ar  
    49   26   32 ar  
    50   27   29 1   
    51   27   64 1   
    52   27   65 1   
    53   28   33 ar  
    54   28   34 ar  
    55   28   66 1   
    56   29   67 1   
    57   30   68 1   
    58   31   33 ar  
    59   31   69 1   
    60   32   34 ar  
    61   32   70 1   
    62   33   71 1   
    63   34   72 1   
    64   35   36 1   
    65   35   37 1   
    66   36   39 1   
    67   36   73 1   
    68   36   74 1   
    69   37   38 1   
    70   37   40 1   
    71   37   75 1   
    72   38   39 1   
    73   38   76 1   
    74   38   77 1   
    75   40   41 2   
    76   40   42 1   
    77   42   43 1   
    78   42   78 1   
    79   43   44 1   
    80   43   45 1   
    81   43   46 1   
    82   44   79 1   
    83   44   80 1   
    84   44   81 1   
    85   45   82 1   
    86   45   83 1   
    87   45   84 1   
    88   46   85 1   
    89   46   86 1   
    90   46   87 1   
@<TRIPOS>SUBSTRUCTURE
     1 KNI         1 TEMP              0 ****  ****    0 ROOT
