@<TRIPOS>MOLECULE
KNJ
   80    73     1     0     0
SMALL
bcc


@<TRIPOS>ATOM
      1 C1          5.3980    0.7390    2.0910 c3        1 KNJ     -0.180000
      2 C2          5.2180   -0.2090    3.2830 c1        1 KNJ     -0.026000
      3 C3          6.2410   -0.3440    4.2220 c1        1 KNJ     -0.195000
      4 C4          6.1540   -1.3210    5.2120 c1        1 KNJ      0.074000
      5 C7          4.0230   -2.0310    4.3280 c1        1 KNJ     -0.028000
      6 N1          7.2090   -1.4520    6.1930 n3        1 KNJ     -0.331000
      7 C5          5.0450   -2.1640    5.2640 c1        1 KNJ     -0.194000
      8 C6          2.8350   -2.9860    4.3560 c2        1 KNJ     -0.186000
      9 C8          4.1080   -1.0540    3.3360 c2        1 KNJ     -0.018000
     10 O1          3.1120   -1.0010    2.2890 os        1 KNJ     -0.234000
     11 C9          2.0630   -0.0300    2.5220 c3        1 KNJ     -0.049000
     12 C10         1.3780    0.3210    1.1810 c2        1 KNJ      0.298000
     13 O6          1.3460   -0.4960    0.2860 o         1 KNJ     -0.406000
     14 C20        -2.1310    1.7170   -0.0790 c1        1 KNJ      0.319000
     15 N3          0.8080    1.6300    0.9810 n         1 KNJ     -0.342000
     16 O4         -2.1020    2.8090    0.4500 o         1 KNJ     -0.362000
     17 C19        -0.8670    1.1270   -0.6680 c2        1 KNJ      0.032000
     18 C13         2.2780    3.1200   -1.4040 c1        1 KNJ     -0.087000
     19 C12         1.4190    1.8270   -1.3330 c2        1 KNJ     -0.142000
     20 C16         3.8170    5.4320   -1.5630 c1        1 KNJ     -0.129500
     21 C11         0.3200    2.0040   -0.3000 c3        1 KNJ     -0.012000
     22 O2         -0.9870    1.0640   -2.0650 oh        1 KNJ     -0.348000
     23 C14         3.6670    3.0320   -1.4190 c2        1 KNJ     -0.134000
     24 C18         1.6590    4.3630   -1.4690 c1        1 KNJ     -0.118000
     25 C15         4.4360    4.1880   -1.4990 c1        1 KNJ     -0.129000
     26 C17         2.4280    5.5190   -1.5480 c1        1 KNJ     -0.129500
     27 C26        -3.6540   -0.4490   -2.0160 c1        1 KNJ      0.302000
     28 N4         -3.3690    0.9640   -0.1140 n3        1 KNJ     -0.308000
     29 O5         -3.7770    0.6390   -2.5290 o         1 KNJ     -0.362000
     30 C21        -3.6060   -0.5490   -0.7920 c2        1 KNJ      0.020000
     31 C22        -5.0770   -0.9660   -0.2150 c3        1 KNJ     -0.131000
     32 C25        -4.5290    1.3350    0.3830 c3        1 KNJ     -0.116000
     33 C23        -6.1240   -0.8820   -1.3250 c3        1 KNJ     -0.209500
     34 C24        -5.0340   -2.3700    0.3620 c3        1 KNJ     -0.209500
     35 S2         -5.3600   -0.0570    0.7740 ss        1 KNJ      0.019000
     36 N5         -3.5430   -1.6240   -2.8400 n3        1 KNJ     -0.362000
     37 C27        -3.7510   -1.5230   -4.2810 c3        1 KNJ     -0.002000
     38 C28        -4.2880   -2.8650   -4.8200 c2        1 KNJ     -0.122000
     39 C30        -5.7060   -2.9560   -5.3520 c3        1 KNJ     -0.181000
     40 C29        -3.5000   -3.9530   -4.8200 c1        1 KNJ     -0.215000
     41 H1          5.1880    0.2630    1.2600 hc        1 KNJ      0.089000
     42 H1A         6.3310    1.0580    2.0610 hc        1 KNJ      0.089000
     43 H1B         4.7940    1.5060    2.1900 hc        1 KNJ      0.089000
     44 H3          7.0280    0.2210    4.1660 ha        1 KNJ      0.137000
     45 HN1         7.8670   -0.8090    6.2490 hn        1 KNJ      0.190000
     46 HN1A        7.2470   -2.1970    6.7300 hn        1 KNJ      0.190000
     47 H5          4.9850   -2.8490    5.9580 ha        1 KNJ      0.137000
     48 H6          2.0620   -2.5330    4.7500 ha        1 KNJ      0.091000
     49 H6A         3.0620   -3.7770    4.8970 ha        1 KNJ      0.091000
     50 H6B         2.6200   -3.2660    3.4420 ha        1 KNJ      0.091000
     51 H9          1.3970   -0.4080    3.1410 h1        1 KNJ      0.112000
     52 H9A         2.4480    0.7790    2.9130 h1        1 KNJ      0.112000
     53 HN3         0.7370    2.2120    1.6870 hn        1 KNJ      0.244000
     54 H19        -0.7310    0.2270   -0.3120 h4        1 KNJ      0.115000
     55 H12         1.0180    1.6530   -2.2090 ha        1 KNJ      0.107500
     56 H12A        1.9860    1.0720   -1.0790 ha        1 KNJ      0.107500
     57 H16         4.3600    6.2490   -1.6200 ha        1 KNJ      0.132000
     58 H11         0.0370    2.9460   -0.2810 h1        1 KNJ      0.149000
     59 HO2        -0.7450    0.2600   -2.3450 ho        1 KNJ      0.244000
     60 H14         4.1020    2.1590   -1.3740 ha        1 KNJ      0.138000
     61 H18         0.6830    4.4240   -1.4590 ha        1 KNJ      0.143000
     62 H15         5.4170    4.1260   -1.5090 ha        1 KNJ      0.133000
     63 H17         1.9920    6.3960   -1.5940 ha        1 KNJ      0.132000
     64 H21        -2.8820   -1.2050   -0.6880 h4        1 KNJ      0.133000
     65 H25        -5.0300    1.8470   -0.2860 h2        1 KNJ      0.138500
     66 H25A       -4.3910    1.8770    1.1830 h2        1 KNJ      0.138500
     67 H23        -5.9740   -1.6060   -1.9730 hc        1 KNJ      0.092000
     68 H23A       -7.0250   -0.9720   -0.9340 hc        1 KNJ      0.092000
     69 H23B       -6.0510   -0.0190   -1.7780 hc        1 KNJ      0.092000
     70 H24        -5.8890   -2.5680    0.8050 hc        1 KNJ      0.092000
     71 H24A       -4.3030   -2.4320    1.0170 hc        1 KNJ      0.092000
     72 H24B       -4.8840   -3.0120   -0.3560 hc        1 KNJ      0.092000
     73 HN5        -3.2430   -2.4120   -2.4750 hn        1 KNJ      0.232000
     74 H27        -2.9020   -1.3110   -4.7190 h1        1 KNJ      0.101500
     75 H27A       -4.4030   -0.8100   -4.4670 h1        1 KNJ      0.101500
     76 H30        -6.2400   -2.2330   -4.9780 hc        1 KNJ      0.084000
     77 H30A       -6.0970   -3.8190   -5.0950 hc        1 KNJ      0.084000
     78 H30B       -5.6940   -2.8810   -6.3350 hc        1 KNJ      0.084000
     79 H29        -2.5950   -3.8950   -4.4810 DU        1 KNJ      0.113000
     80 H29A       -3.8430   -4.8080   -5.1640 ha        1 KNJ      0.115000
@<TRIPOS>BOND
     1    1    2 1   
     2    1   41 1   
     3    1   42 1   
     4    1   43 1   
     5    2    9 1   
     6    3    4 1   
     7    3   44 1   
     8    4    6 1   
     9    5    7 1   
    10    5    9 1   
    11    6   45 1   
    12    6   46 1   
    13    7   47 1   
    14    8   48 1   
    15    8   49 1   
    16    8   50 1   
    17    9   10 1   
    18   10   11 1   
    19   11   12 1   
    20   11   51 1   
    21   11   52 1   
    22   12   13 1   
    23   12   15 1   
    24   14   16 1   
    25   14   28 1   
    26   15   21 1   
    27   15   53 1   
    28   17   21 1   
    29   17   22 1   
    30   17   54 1   
    31   18   23 1   
    32   18   24 1   
    33   19   21 1   
    34   19   55 1   
    35   19   56 1   
    36   20   26 1   
    37   20   57 1   
    38   21   58 1   
    39   22   59 1   
    40   23   25 1   
    41   23   60 1   
    42   24   61 1   
    43   25   62 1   
    44   26   63 1   
    45   27   29 1   
    46   27   36 1   
    47   28   30 1   
    48   28   32 1   
    49   30   31 1   
    50   30   64 1   
    51   31   33 1   
    52   31   34 1   
    53   31   35 1   
    54   32   35 1   
    55   32   65 1   
    56   32   66 1   
    57   33   67 1   
    58   33   68 1   
    59   33   69 1   
    60   34   70 1   
    61   34   71 1   
    62   34   72 1   
    63   36   37 1   
    64   36   73 1   
    65   37   38 1   
    66   37   74 1   
    67   37   75 1   
    68   38   39 1   
    69   38   40 1   
    70   39   76 1   
    71   39   77 1   
    72   39   78 1   
    73   40   80 1   
@<TRIPOS>SUBSTRUCTURE
     1 KNJ         1 TEMP              0 ****  ****    0 ROOT
