@<TRIPOS>MOLECULE
KNJ
   80    82     1     0     0
SMALL
bcc


@<TRIPOS>ATOM
      1 C1          5.5650    0.8260    1.5710 c3        1 KNJ     -0.057300
      2 C2          6.3710    0.0960    0.5650 ca        1 KNJ     -0.036800
      3 C3          7.7590    0.0560    0.6900 ca        1 KNJ     -0.193500
      4 C4          8.5540   -0.6400   -0.2490 ca        1 KNJ      0.150600
      5 C7          6.5310   -1.2500   -1.4750 ca        1 KNJ     -0.036800
      6 N1          9.9350   -0.7580   -0.0630 nh        1 KNJ     -0.820200
      7 C5          7.9180   -1.2810   -1.3360 ca        1 KNJ     -0.193500
      8 C6          5.8890   -1.9140   -2.6330 c3        1 KNJ     -0.057300
      9 C8          5.7640   -0.5600   -0.5200 ca        1 KNJ      0.033100
     10 O1          4.3900   -0.4420   -0.7260 os        1 KNJ     -0.348900
     11 C9          3.6320   -1.3650    0.0650 c3        1 KNJ      0.057400
     12 C10         2.1440   -1.0840   -0.1140 c         1 KNJ      0.660100
     13 O6          1.3260   -2.0100    0.0800 o         1 KNJ     -0.637100
     14 C20        -1.7890   -0.1050   -1.8100 c         1 KNJ      0.644100
     15 N3          1.7310    0.1960   -0.4060 n         1 KNJ     -0.533900
     16 O4         -2.3920    0.7200   -2.5290 o         1 KNJ     -0.616100
     17 C19        -0.2590   -0.1660   -1.8670 c3        1 KNJ      0.057100
     18 C13         0.2470    2.6560    0.6950 ca        1 KNJ     -0.086300
     19 C12         0.0720    2.0210   -0.6380 c3        1 KNJ     -0.051100
     20 C16         0.5520    3.8690    3.1980 ca        1 KNJ     -0.130000
     21 C11         0.3340    0.5060   -0.5920 c3        1 KNJ      0.083700
     22 O2          0.2030    0.4500   -3.0470 oh        1 KNJ     -0.581800
     23 C14         1.3450    3.4850    0.9480 ca        1 KNJ     -0.123500
     24 C18        -0.7010    2.4390    1.7040 ca        1 KNJ     -0.123500
     25 C15         1.4960    4.0890    2.1950 ca        1 KNJ     -0.130000
     26 C17        -0.5450    3.0440    2.9500 ca        1 KNJ     -0.130000
     27 C26        -4.3380    0.2400    0.1670 c         1 KNJ      0.652100
     28 N4         -2.4870   -0.9610   -0.9820 n         1 KNJ     -0.453800
     29 O5         -3.6280    0.5210    1.1530 o         1 KNJ     -0.611100
     30 C21        -3.9330   -0.8610   -0.8520 c3        1 KNJ      0.037700
     31 C22        -4.5150   -2.2390   -0.4380 c3        1 KNJ      0.046100
     32 C25        -1.8900   -1.9340   -0.1070 c3        1 KNJ      0.173100
     33 C23        -5.5290   -2.1630    0.6770 c3        1 KNJ     -0.090100
     34 C24        -5.1080   -2.9320   -1.6440 c3        1 KNJ     -0.090100
     35 S2         -3.1130   -3.2320    0.1450 ss        1 KNJ     -0.319200
     36 C27        -6.0450    1.9200    0.7740 c3        1 KNJ      0.119200
     37 C28        -7.3540    1.5240    1.4080 c2        1 KNJ     -0.154400
     38 C30        -8.4220    1.0820    0.4820 c3        1 KNJ     -0.062900
     39 C29        -7.5310    1.6050    2.7290 c2        1 KNJ     -0.198000
     40 H1          6.1010    1.7430    1.9180 hc        1 KNJ      0.050700
     41 H1A         4.5770    1.1300    1.1440 hc        1 KNJ      0.050700
     42 H1B         5.3800    0.1710    2.4600 hc        1 KNJ      0.050700
     43 H3          8.2320    0.5700    1.5400 ha        1 KNJ      0.135500
     44 HN1        10.4480   -0.9550   -0.8930 hn        1 KNJ      0.391800
     45 HN1A       10.3400   -0.0380    0.4920 hn        1 KNJ      0.391800
     46 H5          8.5150   -1.8230   -2.0850 ha        1 KNJ      0.135500
     47 H6          6.4790   -2.8030   -2.9640 hc        1 KNJ      0.050700
     48 H6A         4.8520   -2.2440   -2.3740 hc        1 KNJ      0.050700
     49 H6B         5.8190   -1.1950   -3.4880 hc        1 KNJ      0.050700
     50 H9          3.8430   -2.4140   -0.2730 h1        1 KNJ      0.071700
     51 H9A         3.8920   -1.2480    1.1510 h1        1 KNJ      0.071700
     52 HN3         2.4020    0.8490   -0.7440 hn        1 KNJ      0.332500
     53 H19         0.0980   -1.2350   -1.9460 h1        1 KNJ      0.115700
     54 H12         0.7420    2.5040   -1.3990 hc        1 KNJ      0.066700
     55 H12A       -0.9880    2.1710   -0.9860 hc        1 KNJ      0.066700
     56 H16         0.6720    4.3450    4.1810 ha        1 KNJ      0.129000
     57 H11        -0.2200    0.0700    0.2970 h1        1 KNJ      0.087700
     58 HO2        -0.2980    1.2700   -3.1770 ho        1 KNJ      0.424000
     59 H14         2.0920    3.6620    0.1590 ha        1 KNJ      0.143000
     60 H18        -1.5740    1.7910    1.5120 ha        1 KNJ      0.143000
     61 H15         2.3610    4.7410    2.3860 ha        1 KNJ      0.131500
     62 H17        -1.2920    2.8680    3.7380 ha        1 KNJ      0.131500
     63 H21        -4.3340   -0.5730   -1.8730 h1        1 KNJ      0.104700
     64 H25        -0.9540   -2.3800   -0.5370 h2        1 KNJ      0.100200
     65 H25A       -1.6500   -1.4770    0.8920 h2        1 KNJ      0.100200
     66 H23        -5.1080   -1.6370    1.5700 hc        1 KNJ      0.052533
     67 H23A       -6.4500   -1.6280    0.3390 hc        1 KNJ      0.052533
     68 H23B       -5.8220   -3.1970    0.9870 hc        1 KNJ      0.052533
     69 H24        -5.4190   -3.9710   -1.3730 hc        1 KNJ      0.052533
     70 H24A       -6.0080   -2.3780   -2.0080 hc        1 KNJ      0.052533
     71 H24B       -4.3630   -2.9900   -2.4740 hc        1 KNJ      0.052533
     72 HN5        -6.0820    0.6120   -0.8460 hn        1 KNJ      0.308500
     73 H27        -5.2830    2.1510    1.5750 h1        1 KNJ      0.070700
     74 H27A       -6.2250    2.8640    0.1790 h1        1 KNJ      0.070700
     75 H30        -8.2350    0.0280    0.1520 hc        1 KNJ      0.042033
     76 H30A       -9.4260    1.1170    0.9730 hc        1 KNJ      0.042033
     77 H30B       -8.4510    1.7350   -0.4260 hc        1 KNJ      0.042033
     78 H29        -6.7310    1.9160    3.4140 ha        1 KNJ      0.118000
     79 H29A       -8.4900    1.3670    3.2070 ha        1 KNJ      0.118000
     80 N5         -5.4900    0.9400   -0.1200 n         1 KNJ     -0.552900
@<TRIPOS>BOND
     1    1    2 1   
     2    1   40 1   
     3    1   41 1   
     4    1   42 1   
     5    2    3 ar  
     6    2    9 ar  
     7    3    4 ar  
     8    3   43 1   
     9    4    6 1   
    10    4    7 ar  
    11    5    7 ar  
    12    5    8 1   
    13    5    9 ar  
    14    6   44 1   
    15    6   45 1   
    16    7   46 1   
    17    8   47 1   
    18    8   48 1   
    19    8   49 1   
    20    9   10 1   
    21   10   11 1   
    22   11   12 1   
    23   11   50 1   
    24   11   51 1   
    25   12   13 2   
    26   12   15 1   
    27   14   16 2   
    28   14   17 1   
    29   14   28 1   
    30   15   21 1   
    31   15   52 1   
    32   17   21 1   
    33   17   22 1   
    34   17   53 1   
    35   18   19 1   
    36   18   23 ar  
    37   18   24 ar  
    38   19   21 1   
    39   19   54 1   
    40   19   55 1   
    41   20   25 ar  
    42   20   26 ar  
    43   20   56 1   
    44   21   57 1   
    45   22   58 1   
    46   23   25 ar  
    47   23   59 1   
    48   24   26 ar  
    49   24   60 1   
    50   25   61 1   
    51   26   62 1   
    52   27   29 2   
    53   27   30 1   
    54   27   80 1   
    55   28   30 1   
    56   28   32 1   
    57   30   31 1   
    58   30   63 1   
    59   31   33 1   
    60   31   34 1   
    61   31   35 1   
    62   32   35 1   
    63   32   64 1   
    64   32   65 1   
    65   33   66 1   
    66   33   67 1   
    67   33   68 1   
    68   34   69 1   
    69   34   70 1   
    70   34   71 1   
    71   36   37 1   
    72   36   73 1   
    73   36   74 1   
    74   36   80 1   
    75   37   38 1   
    76   37   39 2   
    77   38   75 1   
    78   38   76 1   
    79   38   77 1   
    80   39   78 1   
    81   39   79 1   
    82   72   80 1   
@<TRIPOS>SUBSTRUCTURE
     1 KNJ         1 TEMP              0 ****  ****    0 ROOT
