@<TRIPOS>MOLECULE
KNL
   18    18     1     0     0
SMALL
bcc


@<TRIPOS>ATOM
      1 CL1        -0.5360   -2.7120    0.1300 cl        1 KNL     -0.076400
      2 O1          3.9450    0.0000   -1.0290 o         1 KNL     -0.821800
      3 O2          0.7130    0.0000    0.4970 os        1 KNL     -0.293900
      4 CL2        -0.5360    2.7120    0.1300 cl        1 KNL     -0.076400
      5 O3          3.3250   -0.0000    1.1230 o         1 KNL     -0.821800
      6 C1          3.0800   -0.0000   -0.1070 c         1 KNL      0.925600
      7 C2          1.6180    0.0000   -0.6240 c3        1 KNL     -0.001600
      8 C3         -3.3790    0.0000   -0.3930 ca        1 KNL     -0.152000
      9 C4         -2.6970   -1.2070   -0.2670 ca        1 KNL     -0.128000
     10 C5         -1.3230   -1.2120   -0.0130 ca        1 KNL     -0.004600
     11 C6         -0.6130    0.0000    0.1260 ca        1 KNL      0.151100
     12 C7         -1.3230    1.2120   -0.0130 ca        1 KNL     -0.004600
     13 C8         -2.6970    1.2070   -0.2670 ca        1 KNL     -0.128000
     14 H2          1.4370   -0.9160   -1.2400 h1        1 KNL      0.021700
     15 H3          1.4370    0.9160   -1.2400 h1        1 KNL      0.021700
     16 H4         -4.4600    0.0000   -0.5930 ha        1 KNL      0.123000
     17 H5         -3.2400   -2.1580   -0.3670 ha        1 KNL      0.133000
     18 H6         -3.2400    2.1580   -0.3670 ha        1 KNL      0.133000
@<TRIPOS>BOND
     1    1   10 1   
     2    2    6 1   
     3    3    7 1   
     4    3   11 1   
     5    4   12 1   
     6    5    6 1   
     7    6    7 1   
     8    7   14 1   
     9    7   15 1   
    10    8    9 ar  
    11    8   13 ar  
    12    8   16 1   
    13    9   10 ar  
    14    9   17 1   
    15   10   11 ar  
    16   11   12 ar  
    17   12   13 ar  
    18   13   18 1   
@<TRIPOS>SUBSTRUCTURE
     1 KNL         1 TEMP              0 ****  ****    0 ROOT
