@<TRIPOS>MOLECULE
KNL
   18    17     1     0     0
SMALL
bcc


@<TRIPOS>ATOM
      1 CL1        -1.8600    0.5100    2.0220 cl        1 KNL      0.009000
      2 O1         -3.0320    0.4010   -2.5330 o         1 KNL     -0.556000
      3 O2         -1.0150    0.4330   -0.8290 os        1 KNL     -0.187000
      4 CL2         1.6840    0.3420   -2.0760 cl        1 KNL      0.009000
      5 O3         -2.7960   -1.7110   -3.0240 o         1 KNL     -0.556000
      6 C1         -2.4850   -0.7130   -2.3210 c2        1 KNL      0.346000
      7 C2         -1.4390   -0.8480   -1.2360 c3        1 KNL     -0.099000
      8 C3          2.1450    0.4980    1.9010 c1        1 KNL     -0.150000
      9 C4          0.8350    0.5120    2.3560 c1        1 KNL     -0.131000
     10 C5         -0.2130    0.4710    1.4510 c2        1 KNL     -0.083000
     11 C6          0.0470    0.4170    0.0900 c2        1 KNL      0.104000
     12 C7          1.3560    0.4030   -0.3640 c2        1 KNL     -0.083000
     13 C8          2.4050    0.4440    0.5410 c2        1 KNL     -0.131000
     14 H2         -1.8220   -1.3230   -0.4700 h1        1 KNL      0.059000
     15 H3         -0.6720   -1.3500   -1.5810 h1        1 KNL      0.059000
     16 H4          2.8830    0.5270    2.5390 ha        1 KNL      0.123000
     17 H5          0.6520    0.5500    3.3140 ha        1 KNL      0.133000
     18 H6          3.3270    0.4340    0.2210 ha        1 KNL      0.133000
@<TRIPOS>BOND
     1    1   10 1   
     2    2    6 1   
     3    3    7 1   
     4    3   11 1   
     5    4   12 1   
     6    5    6 1   
     7    6    7 1   
     8    7   14 1   
     9    7   15 1   
    10    8   13 1   
    11    8   16 1   
    12    9   10 1   
    13    9   17 1   
    14   10   11 1   
    15   11   12 1   
    16   12   13 1   
    17   13   18 1   
@<TRIPOS>SUBSTRUCTURE
     1 KNL         1 TEMP              0 ****  ****    0 ROOT
