@<TRIPOS>MOLECULE
KNL
   18    18     1     0     0
SMALL
bcc


@<TRIPOS>ATOM
      1 CL1         0.0470    0.0640    0.0510 cl        1 KNL     -0.076400
      2 O1         -1.1590    2.1480   -4.7430 o         1 KNL     -0.821800
      3 O2          0.9280   -0.0280   -2.8240 os        1 KNL     -0.293900
      4 CL2         3.7210    0.0690   -3.9380 cl        1 KNL     -0.076400
      5 O3         -1.0460   -0.0870   -4.6430 o         1 KNL     -0.821800
      6 C1         -0.6800    1.0640   -4.3030 c         1 KNL      0.925600
      7 C2          0.4520    1.2590   -3.2610 c3        1 KNL     -0.001600
      8 C3          4.0090   -0.0250    0.0130 ca        1 KNL     -0.152000
      9 C4          2.6810   -0.0040    0.4310 ca        1 KNL     -0.128000
     10 C5          1.6500    0.0380   -0.5110 ca        1 KNL     -0.004600
     11 C6          1.9390    0.0540   -1.8930 ca        1 KNL      0.151100
     12 C7          3.2920    0.0410   -2.2940 ca        1 KNL     -0.004600
     13 C8          4.3160   -0.0020   -1.3440 ca        1 KNL     -0.128000
     14 H2          1.2980    1.8240   -3.7270 h1        1 KNL      0.021700
     15 H3          0.0570    1.8220   -2.3780 h1        1 KNL      0.021700
     16 H4          4.8170   -0.0580    0.7580 ha        1 KNL      0.123000
     17 H5          2.4430   -0.0220    1.5050 ha        1 KNL      0.133000
     18 H6          5.3670   -0.0180   -1.6700 ha        1 KNL      0.133000
@<TRIPOS>BOND
     1    1   10 1   
     2    2    6 1   
     3    3    7 1   
     4    3   11 1   
     5    4   12 1   
     6    5    6 1   
     7    6    7 1   
     8    7   14 1   
     9    7   15 1   
    10    8    9 ar  
    11    8   13 ar  
    12    8   16 1   
    13    9   10 ar  
    14    9   17 1   
    15   10   11 ar  
    16   11   12 ar  
    17   12   13 ar  
    18   13   18 1   
@<TRIPOS>SUBSTRUCTURE
     1 KNL         1 TEMP              0 ****  ****    0 ROOT
