@<TRIPOS>MOLECULE
KNL
   18    18     1     0     0
SMALL
bcc


@<TRIPOS>ATOM
      1 Cl1         0.0980    0.7790    0.1070 cl        1 KNL     -0.069900
      2 O1         -1.7880    1.3000   -3.8900 o         1 KNL     -0.820800
      3 O2          0.8220    0.0190   -2.7100 os        1 KNL     -0.303900
      4 Cl2         3.5320   -0.6000   -3.8540 cl        1 KNL     -0.069900
      5 O3         -0.3720    0.6880   -5.5160 o         1 KNL     -0.820800
      6 C1         -0.6400    1.0430   -4.3380 c         1 KNL      0.926600
      7 C2          0.5620    1.2700   -3.3760 c3        1 KNL      0.001400
      8 C3          3.9780   -0.0310    0.0430 ca        1 KNL     -0.150000
      9 C4          2.6940    0.3040    0.4650 ca        1 KNL     -0.131000
     10 C5          1.6450    0.3630   -0.4570 ca        1 KNL     -0.004600
     11 C6          1.8720    0.0790   -1.8210 ca        1 KNL      0.149100
     12 C7          3.1820   -0.2530   -2.2290 ca        1 KNL     -0.004600
     13 C8          4.2230   -0.3090   -1.2990 ca        1 KNL     -0.131000
     14 H2          1.4720    1.5710   -3.9530 h1        1 KNL      0.019700
     15 H3          0.3080    2.0440   -2.6100 h1        1 KNL      0.019700
     16 H4          4.7990   -0.0760    0.7710 ha        1 KNL      0.123000
     17 H5          2.5040    0.5230    1.5260 ha        1 KNL      0.133000
     18 H6          5.2390   -0.5740   -1.6280 ha        1 KNL      0.133000
@<TRIPOS>BOND
     1    1   10 1   
     2    2    6 1   
     3    3    7 1   
     4    3   11 1   
     5    4   12 1   
     6    5    6 1   
     7    6    7 1   
     8    7   14 1   
     9    7   15 1   
    10    8    9 ar  
    11    8   13 ar  
    12    8   16 1   
    13    9   10 ar  
    14    9   17 1   
    15   10   11 ar  
    16   11   12 ar  
    17   12   13 ar  
    18   13   18 1   
@<TRIPOS>SUBSTRUCTURE
     1 KNL         1 TEMP              0 ****  ****    0 ROOT
