@<TRIPOS>MOLECULE
KNN
   21    21     1     0     0
SMALL
bcc


@<TRIPOS>ATOM
      1 N1         -0.0740    0.1910   -0.0010 n4        1 KNN     -0.845600
      2 C1          1.4210    0.0360    0.0350 c3        1 KNN      0.176100
      3 C2          1.9130   -0.0250    1.4380 ca        1 KNN     -0.205300
      4 C3          2.0390   -1.2530    2.1090 ca        1 KNN     -0.037300
      5 C4          2.5490   -1.2610    3.4140 ca        1 KNN     -0.121000
      6 C5          2.9250   -0.0730    4.0380 ca        1 KNN     -0.068000
      7 C6          2.7990    1.1440    3.3660 ca        1 KNN     -0.121000
      8 C7          2.2940    1.1680    2.0690 ca        1 KNN     -0.096000
      9 C8          1.6780   -2.5370    1.4610 c3        1 KNN     -0.069800
     10 H1         -0.5150   -0.6130    0.4590 hn        1 KNN      0.457467
     11 H2          1.6780   -0.9060   -0.5300 hx        1 KNN      0.112700
     12 H3          1.8620    0.9210   -0.5100 hx        1 KNN      0.112700
     13 H4          2.6580   -2.2190    3.9490 ha        1 KNN      0.161000
     14 H5          3.3290   -0.0960    5.0650 ha        1 KNN      0.164000
     15 H6          3.1030    2.0820    3.8570 ha        1 KNN      0.163000
     16 H7          2.2140    2.1270    1.5340 ha        1 KNN      0.138000
     17 H8          0.6700   -2.4810    0.9800 hc        1 KNN      0.055367
     18 H9          2.4330   -2.7990    0.6760 hc        1 KNN      0.055367
     19 H10         1.6550   -3.3720    2.2060 hc        1 KNN      0.055367
     20 H11        -0.4040    0.2520   -0.9670 hn        1 KNN      0.457467
     21 H13        -0.3460    1.0400    0.5060 hn        1 KNN      0.457467
@<TRIPOS>BOND
     1    1    2 1   
     2    1   10 1   
     3    1   20 1   
     4    1   21 1   
     5    2    3 1   
     6    2   11 1   
     7    2   12 1   
     8    3    4 ar  
     9    3    8 ar  
    10    4    5 ar  
    11    4    9 1   
    12    5    6 ar  
    13    5   13 1   
    14    6    7 ar  
    15    6   14 1   
    16    7    8 ar  
    17    7   15 1   
    18    8   16 1   
    19    9   17 1   
    20    9   18 1   
    21    9   19 1   
@<TRIPOS>SUBSTRUCTURE
     1 KNN         1 TEMP              0 ****  ****    0 ROOT
