@<TRIPOS>MOLECULE
KNN
   20    18     1     0     0
SMALL
bcc


@<TRIPOS>ATOM
      1 N1         -2.0600   -0.7990   -1.6280 n3        1 KNN     -0.349000
      2 C1         -0.7350   -0.2430   -1.6200 c3        1 KNN     -0.042000
      3 C2         -0.1510   -0.2960   -0.1630 c2        1 KNN     -0.080000
      4 C3          0.7730    0.6250    0.2330 c2        1 KNN     -0.070000
      5 C4          1.2220    0.6380    1.5470 c1        1 KNN     -0.131000
      6 C5          0.7360   -0.2730    2.4460 c1        1 KNN     -0.132000
      7 C6         -0.1980   -1.2040    2.0470 c1        1 KNN     -0.132000
      8 C7         -0.6430   -1.2180    0.7470 c1        1 KNN     -0.113000
      9 C8          1.3240    1.6200   -0.7660 c3        1 KNN     -0.179000
     10 H1         -2.1110   -1.4630   -2.2630 hn        1 KNN      0.147000
     11 H2         -0.1610   -0.7580   -2.2190 h1        1 KNN      0.074500
     12 H3         -0.7710    0.7000   -1.9270 h1        1 KNN      0.074500
     13 H4          1.8800    1.2930    1.8280 ha        1 KNN      0.130000
     14 H5          1.0510   -0.2630    3.3670 ha        1 KNN      0.130500
     15 H6         -0.5400   -1.8450    2.6800 ha        1 KNN      0.130500
     16 H7         -1.2930   -1.8660    0.4690 ha        1 KNN      0.147000
     17 H8          0.6270    2.2410   -1.0190 hc        1 KNN      0.082667
     18 H9          2.0690    2.1130   -0.3600 hc        1 KNN      0.082667
     19 H10         1.6470    1.1360   -1.5730 hc        1 KNN      0.082667
     20 H11        -2.6660   -0.1400   -1.8250 hn        1 KNN      0.147000
@<TRIPOS>BOND
     1    1    2 1   
     2    1   10 1   
     3    1   20 1   
     4    2    3 1   
     5    2   11 1   
     6    2   12 1   
     7    3    4 1   
     8    3    8 1   
     9    4    5 1   
    10    4    9 1   
    11    5   13 1   
    12    6    7 1   
    13    6   14 1   
    14    7   15 1   
    15    8   16 1   
    16    9   17 1   
    17    9   18 1   
    18    9   19 1   
@<TRIPOS>SUBSTRUCTURE
     1 KNN         1 TEMP              0 ****  ****    0 ROOT
