@<TRIPOS>MOLECULE
KNN
   21    21     1     0     0
SMALL
bcc


@<TRIPOS>ATOM
      1 N1         -0.0470    0.2070   -0.0230 n4        1 KNN     -0.845600
      2 C1          1.4450    0.0300    0.0300 c3        1 KNN      0.176100
      3 C2          1.9210   -0.0290    1.4380 ca        1 KNN     -0.205300
      4 C3          2.0220   -1.2550    2.1180 ca        1 KNN     -0.037300
      5 C4          2.5180   -1.2620    3.4280 ca        1 KNN     -0.121000
      6 C5          2.9060   -0.0760    4.0490 ca        1 KNN     -0.068000
      7 C6          2.8050    1.1390    3.3670 ca        1 KNN     -0.121000
      8 C7          2.3140    1.1610    2.0650 ca        1 KNN     -0.096000
      9 C8          1.6470   -2.5370    1.4750 c3        1 KNN     -0.069800
     10 H1         -0.3110    1.0630    0.4750 hn        1 KNN      0.457467
     11 H2          1.6930   -0.9200   -0.5270 hx        1 KNN      0.112700
     12 H3          1.9050    0.9050   -0.5170 hx        1 KNN      0.112700
     13 H4          2.6070   -2.2180    3.9700 ha        1 KNN      0.161000
     14 H5          3.2980   -0.0980    5.0790 ha        1 KNN      0.164000
     15 H6          3.1190    2.0750    3.8550 ha        1 KNN      0.163000
     16 H7          2.2540    2.1180    1.5220 ha        1 KNN      0.138000
     17 H8          1.6050   -3.3670    2.2250 hc        1 KNN      0.055367
     18 H9          0.6450   -2.4700    0.9840 hc        1 KNN      0.055367
     19 H10         2.4060   -2.8160    0.6990 hc        1 KNN      0.055367
     20 H11        -0.5050   -0.5870    0.4370 hn        1 KNN      0.457467
     21 H13        -0.3670    0.2660   -0.9930 hn        1 KNN      0.457467
@<TRIPOS>BOND
     1    1    2 1   
     2    1   10 1   
     3    1   20 1   
     4    1   21 1   
     5    2    3 1   
     6    2   11 1   
     7    2   12 1   
     8    3    4 ar  
     9    3    8 ar  
    10    4    5 ar  
    11    4    9 1   
    12    5    6 ar  
    13    5   13 1   
    14    6    7 ar  
    15    6   14 1   
    16    7    8 ar  
    17    7   15 1   
    18    8   16 1   
    19    9   17 1   
    20    9   18 1   
    21    9   19 1   
@<TRIPOS>SUBSTRUCTURE
     1 KNN         1 TEMP              0 ****  ****    0 ROOT
