@<TRIPOS>MOLECULE
KNN
   20    20     1     0     0
SMALL
bcc


@<TRIPOS>ATOM
      1 N1         -2.6530   -0.6180   -0.6360 n3        1 KNN     -0.914800
      2 C1         -1.8190   -0.5990    0.5460 c3        1 KNN      0.203100
      3 C2         -0.3670   -0.3530    0.2530 ca        1 KNN     -0.096300
      4 C3          0.1260    0.9470    0.0570 ca        1 KNN     -0.048300
      5 C4          1.4920    1.1280   -0.1940 ca        1 KNN     -0.135000
      6 C5          2.3570    0.0370   -0.2520 ca        1 KNN     -0.123000
      7 C6          1.8630   -1.2530   -0.0590 ca        1 KNN     -0.138000
      8 C7          0.5060   -1.4440    0.1920 ca        1 KNN     -0.124000
      9 C8         -0.7720    2.1240    0.1170 c3        1 KNN     -0.059800
     10 H1         -2.1990   -1.0890   -1.3930 hn        1 KNN      0.350300
     11 H2         -2.2090    0.2270    1.2110 h1        1 KNN      0.032700
     12 H3         -1.8990   -1.5600    1.1400 h1        1 KNN      0.032700
     13 H4          1.8850    2.1440   -0.3480 ha        1 KNN      0.131000
     14 H5          3.4270    0.1940   -0.4510 ha        1 KNN      0.130000
     15 H6          2.5420   -2.1160   -0.1040 ha        1 KNN      0.130000
     16 H7          0.1190   -2.4620    0.3460 ha        1 KNN      0.127000
     17 H8         -1.1520    2.2650    1.1600 hc        1 KNN      0.049700
     18 H9         -0.2370    3.0570   -0.1890 hc        1 KNN      0.049700
     19 H10        -1.6520    1.9820   -0.5590 hc        1 KNN      0.049700
     20 H11        -3.5210   -1.0740   -0.4380 hn        1 KNN      0.350300
@<TRIPOS>BOND
     1    1    2 1   
     2    1   10 1   
     3    1   20 1   
     4    2    3 1   
     5    2   11 1   
     6    2   12 1   
     7    3    4 ar  
     8    3    8 ar  
     9    4    5 ar  
    10    4    9 1   
    11    5    6 ar  
    12    5   13 1   
    13    6    7 ar  
    14    6   14 1   
    15    7    8 ar  
    16    7   15 1   
    17    8   16 1   
    18    9   17 1   
    19    9   18 1   
    20    9   19 1   
@<TRIPOS>SUBSTRUCTURE
     1 KNN         1 TEMP              0 ****  ****    0 ROOT
