@<TRIPOS>MOLECULE
KNN
   21    21     1     0     0
SMALL
bcc


@<TRIPOS>ATOM
      1 N1         -0.0640    0.1880   -0.0130 nz        1 KNN     -0.845600
      2 C1          1.4310    0.0330    0.0330 c3        1 KNN      0.176100
      3 C2          1.9140   -0.0250    1.4380 ca        1 KNN     -0.205300
      4 C3          2.0370   -1.2530    2.1120 ca        1 KNN     -0.037300
      5 C4          2.5380   -1.2580    3.4210 ca        1 KNN     -0.121000
      6 C5          2.9110   -0.0690    4.0450 ca        1 KNN     -0.068000
      7 C6          2.7890    1.1470    3.3690 ca        1 KNN     -0.121000
      8 C7          2.2930    1.1680    2.0700 ca        1 KNN     -0.096000
      9 C8          1.6780   -2.5370    1.4650 c3        1 KNN     -0.069800
     10 H1         -0.5080   -0.6150    0.4460 hn        1 KNN      0.457467
     11 H2          1.6910   -0.9110   -0.5300 hx        1 KNN      0.112700
     12 H3          1.8760    0.9170   -0.5110 hx        1 KNN      0.112700
     13 H4          2.6440   -2.2150    3.9580 ha        1 KNN      0.161000
     14 H5          3.3090   -0.0900    5.0740 ha        1 KNN      0.164000
     15 H6          3.0920    2.0860    3.8600 ha        1 KNN      0.163000
     16 H7          2.2160    2.1260    1.5320 ha        1 KNN      0.138000
     17 H8          0.6730   -2.4820    0.9780 hc        1 KNN      0.055367
     18 H9          2.4380   -2.8020    0.6860 hc        1 KNN      0.055367
     19 H10         1.6500   -3.3710    2.2120 hc        1 KNN      0.055367
     20 H11        -0.3880    0.2470   -0.9810 hn        1 KNN      0.457467
     21 H13        -0.3380    1.0380    0.4910 hn        1 KNN      0.457467
@<TRIPOS>BOND
     1    1    2 1   
     2    1   10 1   
     3    1   20 1   
     4    1   21 1   
     5    2    3 1   
     6    2   11 1   
     7    2   12 1   
     8    3    4 ar  
     9    3    8 ar  
    10    4    5 ar  
    11    4    9 1   
    12    5    6 ar  
    13    5   13 1   
    14    6    7 ar  
    15    6   14 1   
    16    7    8 ar  
    17    7   15 1   
    18    8   16 1   
    19    9   17 1   
    20    9   18 1   
    21    9   19 1   
@<TRIPOS>SUBSTRUCTURE
     1 KNN         1 TEMP              0 ****  ****    0 ROOT
