@<TRIPOS>MOLECULE
KNP
   18    18     1     0     0
SMALL
bcc


@<TRIPOS>ATOM
      1 F1         -0.0580   -0.1600    0.2700 f         1 KNP     -0.132900
      2 F2          2.9620    0.8840   -3.3400 f         1 KNP     -0.132900
      3 O1         -1.7380    2.1280   -4.0970 o         1 KNP     -0.816300
      4 O2          0.2120    0.5250   -2.2760 os        1 KNP     -0.267900
      5 O3         -1.6790   -0.0370   -4.6860 o         1 KNP     -0.816300
      6 C1         -1.1850    1.0000   -4.1730 c         1 KNP      0.928600
      7 C2          0.2850    0.9000   -3.6580 c3        1 KNP     -0.013600
      8 C3          3.5880   -0.0240    0.1340 ca        1 KNP     -0.156000
      9 C4          2.2960   -0.1910    0.6260 ca        1 KNP     -0.154000
     10 C5          1.1950    0.0040   -0.2160 ca        1 KNP      0.071400
     11 C6          1.3740    0.3730   -1.5850 ca        1 KNP      0.117100
     12 C7          2.6980    0.5350   -2.0560 ca        1 KNP      0.071400
     13 C8          3.7920    0.3340   -1.1900 ca        1 KNP     -0.154000
     14 H2          0.7950    1.8910   -3.7460 h1        1 KNP      0.030700
     15 H3          0.8420    0.1140   -4.2250 h1        1 KNP      0.030700
     16 H4          4.4490   -0.1770    0.7990 ha        1 KNP      0.124000
     17 H5          2.1260   -0.4740    1.6740 ha        1 KNP      0.134500
     18 H6          4.8080    0.4680   -1.5870 ha        1 KNP      0.134500
@<TRIPOS>BOND
     1    1   10 1   
     2    2   12 1   
     3    3    6 1   
     4    4    7 1   
     5    4   11 1   
     6    5    6 1   
     7    6    7 1   
     8    7   14 1   
     9    7   15 1   
    10    8    9 ar  
    11    8   13 ar  
    12    8   16 1   
    13    9   10 ar  
    14    9   17 1   
    15   10   11 ar  
    16   11   12 ar  
    17   12   13 ar  
    18   13   18 1   
@<TRIPOS>SUBSTRUCTURE
     1 KNP         1 TEMP              0 ****  ****    0 ROOT
