@<TRIPOS>MOLECULE
KNP
   18    17     1     0     0
SMALL
bcc


@<TRIPOS>ATOM
      1 F1         -1.4760   -0.4010    1.8560 f         1 KNP     -0.091000
      2 F2          1.6200   -0.4150   -1.7070 f         1 KNP     -0.105000
      3 O1         -3.2380    1.6580   -2.6460 o         1 KNP     -0.551000
      4 O2         -1.0070   -0.4570   -0.8630 os        1 KNP     -0.151000
      5 O3         -2.7850   -0.4700   -2.8010 o         1 KNP     -0.551000
      6 C1         -2.5560    0.6600   -2.2940 c2        1 KNP      0.348000
      7 C2         -1.4690    0.8150   -1.2530 c3        1 KNP     -0.114000
      8 C3          2.1460   -0.4570    1.8770 c1        1 KNP     -0.156000
      9 C4          0.8360   -0.4400    2.3290 c1        1 KNP     -0.159000
     10 C5         -0.2100   -0.4220    1.4200 c2        1 KNP      0.060000
     11 C6          0.0540   -0.4200    0.0590 c2        1 KNP      0.072000
     12 C7          1.3640   -0.4360   -0.3920 c2        1 KNP      0.013000
     13 C8          2.4100   -0.4540    0.5170 c2        1 KNP     -0.149000
     14 H2         -1.8280    1.2860   -0.4730 h1        1 KNP      0.070000
     15 H3         -0.7260    1.3300   -1.6320 h1        1 KNP      0.070000
     16 H4          2.8830   -0.4700    2.5180 ha        1 KNP      0.124000
     17 H5          0.6500   -0.4420    3.2870 ha        1 KNP      0.135000
     18 H6          3.3330   -0.4660    0.1990 ha        1 KNP      0.134000
@<TRIPOS>BOND
     1    1   10 1   
     2    2   12 1   
     3    3    6 1   
     4    4    7 1   
     5    4   11 1   
     6    5    6 1   
     7    6    7 1   
     8    7   14 1   
     9    7   15 1   
    10    8   13 1   
    11    8   16 1   
    12    9   10 1   
    13    9   17 1   
    14   10   11 1   
    15   11   12 1   
    16   12   13 1   
    17   13   18 1   
@<TRIPOS>SUBSTRUCTURE
     1 KNP         1 TEMP              0 ****  ****    0 ROOT
