@<TRIPOS>MOLECULE
KNP
   18    18     1     0     0
SMALL
bcc


@<TRIPOS>ATOM
      1 F1         -0.5540   -2.0730   -0.7390 f         1 KNP     -0.132900
      2 F2         -0.9250    2.5870    0.4400 f         1 KNP     -0.132900
      3 O1          3.6080    0.5240   -1.0970 o         1 KNP     -0.816300
      4 O2          0.6830    0.5340   -0.0320 os        1 KNP     -0.267900
      5 O3          3.5370   -0.0310    1.0750 o         1 KNP     -0.816300
      6 C1          3.0390    0.0610   -0.0760 c         1 KNP      0.928600
      7 C2          1.6100   -0.5330   -0.2750 c3        1 KNP     -0.013600
      8 C3         -3.4670    0.0690   -0.2870 ca        1 KNP     -0.156000
      9 C4         -2.6770   -1.0410   -0.5450 ca        1 KNP     -0.154000
     10 C5         -1.2720   -0.9530   -0.4760 ca        1 KNP      0.071400
     11 C6         -0.6470    0.2720   -0.1430 ca        1 KNP      0.117100
     12 C7         -1.4880    1.3990    0.1180 ca        1 KNP      0.071400
     13 C8         -2.8810    1.2890    0.0440 ca        1 KNP     -0.154000
     14 H2          1.4260   -1.3560    0.4600 h1        1 KNP      0.030700
     15 H3          1.4850   -0.9000   -1.3230 h1        1 KNP      0.030700
     16 H4         -4.5620   -0.0110   -0.3430 ha        1 KNP      0.124000
     17 H5         -3.1320   -2.0070   -0.8070 ha        1 KNP      0.134500
     18 H6         -3.5000    2.1720    0.2500 ha        1 KNP      0.134500
@<TRIPOS>BOND
     1    1   10 1   
     2    2   12 1   
     3    3    6 1   
     4    4    7 1   
     5    4   11 1   
     6    5    6 1   
     7    6    7 1   
     8    7   14 1   
     9    7   15 1   
    10    8    9 ar  
    11    8   13 ar  
    12    8   16 1   
    13    9   10 ar  
    14    9   17 1   
    15   10   11 ar  
    16   11   12 ar  
    17   12   13 ar  
    18   13   18 1   
@<TRIPOS>SUBSTRUCTURE
     1 KNP         1 TEMP              0 ****  ****    0 ROOT
