@<TRIPOS>MOLECULE
KNP
   18    18     1     0     0
SMALL
bcc


@<TRIPOS>ATOM
      1 F1         -0.0210   -0.2710    0.2620 f         1 KNP     -0.132900
      2 F2          2.9370    0.9670   -3.3390 f         1 KNP     -0.132900
      3 O1         -1.7770    2.2290   -3.9620 o         1 KNP     -0.816300
      4 O2          0.2050    0.5460   -2.2490 os        1 KNP     -0.267900
      5 O3         -1.7240    0.0950   -4.6510 o         1 KNP     -0.816300
      6 C1         -1.2240    1.1080   -4.0990 c         1 KNP      0.928600
      7 C2          0.2550    0.9880   -3.6130 c3        1 KNP     -0.013600
      8 C3          3.6220   -0.1190    0.0720 ca        1 KNP     -0.156000
      9 C4          2.3370   -0.3140    0.5770 ca        1 KNP     -0.154000
     10 C5          1.2230   -0.0790   -0.2360 ca        1 KNP      0.071400
     11 C6          1.3790    0.3610   -1.5870 ca        1 KNP      0.117100
     12 C7          2.6950    0.5510   -2.0700 ca        1 KNP      0.071400
     13 C8          3.8030    0.3080   -1.2340 ca        1 KNP     -0.154000
     14 H2          0.7610    1.9840   -3.6600 h1        1 KNP      0.030700
     15 H3          0.8050    0.2320   -4.2260 h1        1 KNP      0.030700
     16 H4          4.4930   -0.3050    0.7150 ha        1 KNP      0.124000
     17 H5          2.1860   -0.6520    1.6110 ha        1 KNP      0.134500
     18 H6          4.8120    0.4640   -1.6400 ha        1 KNP      0.134500
@<TRIPOS>BOND
     1    1   10 1   
     2    2   12 1   
     3    3    6 1   
     4    4    7 1   
     5    4   11 1   
     6    5    6 1   
     7    6    7 1   
     8    7   14 1   
     9    7   15 1   
    10    8    9 ar  
    11    8   13 ar  
    12    8   16 1   
    13    9   10 ar  
    14    9   17 1   
    15   10   11 ar  
    16   11   12 ar  
    17   12   13 ar  
    18   13   18 1   
@<TRIPOS>SUBSTRUCTURE
     1 KNP         1 TEMP              0 ****  ****    0 ROOT
