@<TRIPOS>MOLECULE
KO1
   30    30     1     0     0
SMALL
bcc


@<TRIPOS>ATOM
      1 OA1         2.5750    1.6690    1.0610 o         1 KO1     -0.802800
      2 C1          2.0350    1.7660   -0.0690 c         1 KO1      0.932600
      3 O1B         2.1260    2.7340   -0.8660 o         1 KO1     -0.802800
      4 C2          1.1800    0.5520   -0.6030 c3        1 KO1      0.167600
      5 O6         -0.1200    0.6790   -0.0310 os        1 KO1     -0.423600
      6 C6         -1.0500   -0.2980   -0.4920 c3        1 KO1      0.088100
      7 C7         -2.4000    0.0200    0.1690 c3        1 KO1      0.105100
      8 C8         -2.6650    1.5290    0.2310 c3        1 KO1      0.099400
      9 O8         -4.0150    1.8170   -0.0880 oh        1 KO1     -0.617800
     10 O7         -3.4550   -0.6260   -0.5290 oh        1 KO1     -0.609800
     11 C5         -0.5750   -1.7140   -0.1340 c3        1 KO1      0.097100
     12 O5         -0.5500   -1.9330    1.2640 oh        1 KO1     -0.615800
     13 C4          0.8160   -1.9470   -0.7520 c3        1 KO1      0.114100
     14 O4          1.3060   -3.2230   -0.3930 oh        1 KO1     -0.606800
     15 C3          1.7940   -0.8350   -0.3210 c3        1 KO1      0.120100
     16 O3          2.0610   -1.0560    1.0520 oh        1 KO1     -0.654800
     17 O2          0.9740    0.6510   -1.9930 oh        1 KO1     -0.651800
     18 H6         -1.1490   -0.2220   -1.6120 h1        1 KO1      0.055700
     19 H7         -2.4280   -0.4380    1.1980 h1        1 KO1      0.092700
     20 H8         -2.4150    1.9200    1.2510 h1        1 KO1      0.068200
     21 H8A        -2.0590    2.0840   -0.5340 h1        1 KO1      0.068200
     22 HO8        -4.5650    1.2020    0.4130 ho        1 KO1      0.399000
     23 HO7        -3.5340   -0.1920   -1.3880 ho        1 KO1      0.403000
     24 H5         -1.3100   -2.4730   -0.5210 h1        1 KO1      0.076700
     25 HO5         0.0540   -1.2740    1.6420 ho        1 KO1      0.432000
     26 H4          0.7420   -1.9550   -1.8730 h1        1 KO1      0.082700
     27 HO4         1.3880   -3.2220    0.5720 ho        1 KO1      0.420000
     28 H3          2.7540   -0.9270   -0.9000 h1        1 KO1      0.055700
     29 HO3         2.4280   -0.2350    1.4250 ho        1 KO1      0.466000
     30 HO2         1.0890    1.5870   -2.2330 ho        1 KO1      0.443000
@<TRIPOS>BOND
     1    1    2 1   
     2    2    3 1   
     3    2    4 1   
     4    4    5 1   
     5    4   15 1   
     6    4   17 1   
     7    5    6 1   
     8    6    7 1   
     9    6   11 1   
    10    6   18 1   
    11    7    8 1   
    12    7   10 1   
    13    7   19 1   
    14    8    9 1   
    15    8   20 1   
    16    8   21 1   
    17    9   22 1   
    18   10   23 1   
    19   11   12 1   
    20   11   13 1   
    21   11   24 1   
    22   12   25 1   
    23   13   14 1   
    24   13   15 1   
    25   13   26 1   
    26   14   27 1   
    27   15   16 1   
    28   15   28 1   
    29   16   29 1   
    30   17   30 1   
@<TRIPOS>SUBSTRUCTURE
     1 KO1         1 TEMP              0 ****  ****    0 ROOT
