@<TRIPOS>MOLECULE
KO2
   37    34     1     0     0
SMALL
bcc


@<TRIPOS>ATOM
      1 C1          2.5770   -0.3450   -0.5570 c1        1 KO2      0.355000
      2 O1B         3.2170   -0.0550    0.5100 os        1 KO2     -0.523000
      3 C2          1.0290   -0.2990   -0.5640 c3        1 KO2      0.084000
      4 O6          0.4790   -0.2740    0.8260 os        1 KO2     -0.281000
      5 C6         -0.9950   -0.3380    0.8800 c3        1 KO2     -0.002000
      6 C7         -1.4180   -0.4600    2.2960 c3        1 KO2      0.038000
      7 C8         -1.6190    0.9410    2.8960 c3        1 KO2     -0.059000
      8 O8         -1.8950    0.8230    4.2890 oh        1 KO2     -0.360000
      9 O7         -2.6200   -1.1690    2.3620 oh        1 KO2     -0.340000
     10 C5         -1.5540   -1.4830    0.1150 c3        1 KO2     -0.013000
     11 O5         -1.1870   -2.7440    0.8100 oh        1 KO2     -0.342000
     12 C4         -1.0570   -1.5480   -1.2540 c3        1 KO2      0.003000
     13 O4         -1.5220   -2.7980   -1.8700 oh        1 KO2     -0.334000
     14 C3          0.4260   -1.5010   -1.3270 c3        1 KO2      0.015000
     15 O3          0.9520   -2.6990   -0.7740 oh        1 KO2     -0.379000
     16 O2          0.7900    0.9090   -1.2340 os        1 KO2     -0.320000
     17 C11         2.5300    3.9580   -2.3770 c1        1 KO2     -0.201500
     18 C10         1.5490    3.0440   -2.0690 c1        1 KO2     -0.201500
     19 C9          1.8960    1.7900   -1.2440 c2        1 KO2      0.003000
     20 O1A         3.2080   -0.7340   -1.5920 o         1 KO2     -0.560000
     21 H6         -1.3550    0.4860    0.5160 h1        1 KO2      0.106000
     22 H7         -0.7400   -0.9300    2.7940 h1        1 KO2      0.102000
     23 H8         -0.7980    1.4800    2.7660 h1        1 KO2      0.097000
     24 H8A        -2.3670    1.3780    2.4530 h1        1 KO2      0.097000
     25 HO8        -2.2370    1.5860    4.5900 ho        1 KO2      0.199000
     26 HO7        -2.7320   -1.4860    3.1850 ho        1 KO2      0.208000
     27 H5         -2.5530   -1.4020    0.0950 h1        1 KO2      0.120000
     28 HO5        -1.9170   -3.3200    0.8170 ho        1 KO2      0.230000
     29 H4         -1.4250   -0.7810   -1.7660 h1        1 KO2      0.122000
     30 HO4        -1.9250   -2.6200   -2.6050 ho        1 KO2      0.219000
     31 H3          0.6930   -1.4430   -2.2700 h1        1 KO2      0.104000
     32 HO3         1.4070   -3.1220   -1.3800 ho        1 KO2      0.262000
     33 H11         3.4580    3.8110   -2.0690 DU        1 KO2      0.108000
     34 H11A        2.3090    4.7560   -2.9030 ha        1 KO2      0.109000
     35 H10         0.6210    3.1920   -2.3780 ha        1 KO2      0.109000
     36 H9          2.6640    1.3430   -1.6420 h4        1 KO2      0.112500
     37 H9A         2.1110    2.0520   -0.3290 h4        1 KO2      0.112500
@<TRIPOS>BOND
     1    1    3 1   
     2    1   20 1   
     3    3    4 1   
     4    3   14 1   
     5    3   16 1   
     6    4    5 1   
     7    5    6 1   
     8    5   10 1   
     9    5   21 1   
    10    6    7 1   
    11    6    9 1   
    12    6   22 1   
    13    7    8 1   
    14    7   23 1   
    15    7   24 1   
    16    8   25 1   
    17    9   26 1   
    18   10   11 1   
    19   10   12 1   
    20   10   27 1   
    21   11   28 1   
    22   12   13 1   
    23   12   14 1   
    24   12   29 1   
    25   13   30 1   
    26   14   15 1   
    27   14   31 1   
    28   15   32 1   
    29   16   19 1   
    30   17   18 1   
    31   17   34 1   
    32   18   35 1   
    33   19   36 1   
    34   19   37 1   
@<TRIPOS>SUBSTRUCTURE
     1 KO2         1 TEMP              0 ****  ****    0 ROOT
