@<TRIPOS>MOLECULE
KO2
   37    37     1     0     0
SMALL
bcc


@<TRIPOS>ATOM
      1 C1         -1.8640   -0.9990    1.3210 c         1 KO2      0.936600
      2 O1B        -2.9780   -0.4850    1.6120 o         1 KO2     -0.804300
      3 C2         -1.0930   -0.3450    0.1080 c3        1 KO2      0.176600
      4 O6          0.1890    0.0390    0.5860 os        1 KO2     -0.418600
      5 C6          1.0320    0.6310   -0.4010 c3        1 KO2      0.084100
      6 C7          2.3760    0.9290    0.2810 c3        1 KO2      0.105100
      7 C8          2.7840   -0.1820    1.2560 c3        1 KO2      0.099400
      8 O8          4.1640   -0.4760    1.1340 oh        1 KO2     -0.616800
      9 O7          3.3920    1.1120   -0.6940 oh        1 KO2     -0.609800
     10 C5          0.3990    1.9110   -0.9670 c3        1 KO2      0.097100
     11 O5          0.2800    2.9260    0.0110 oh        1 KO2     -0.614800
     12 C4         -0.9750    1.5620   -1.5680 c3        1 KO2      0.114100
     13 O4         -1.6090    2.7280   -2.0540 oh        1 KO2     -0.605800
     14 C3         -1.8580    0.8430   -0.5300 c3        1 KO2      0.126100
     15 O3         -2.2110    1.8240    0.4280 oh        1 KO2     -0.652800
     16 O2         -0.8540   -1.2460   -0.9660 os        1 KO2     -0.466600
     17 C11         0.7990   -4.3660   -1.7680 c2        1 KO2     -0.261000
     18 C10         0.2710   -3.1440   -1.7710 c2        1 KO2     -0.146200
     19 C9         -0.3730   -2.5360   -0.5750 c3        1 KO2      0.157600
     20 O1A        -1.3400   -1.9850    1.8880 o         1 KO2     -0.804300
     21 H6          1.1880   -0.0990   -1.2440 h1        1 KO2      0.052700
     22 H7          2.3150    1.9240    0.8060 h1        1 KO2      0.091700
     23 H8          2.5420    0.1220    2.3070 h1        1 KO2      0.069700
     24 H8A         2.2570   -1.1470    1.0240 h1        1 KO2      0.069700
     25 HO8         4.6380    0.3650    1.1480 ho        1 KO2      0.398000
     26 HO7         3.5600    0.2490   -1.0940 ho        1 KO2      0.404000
     27 H5          1.0700    2.3560   -1.7520 h1        1 KO2      0.077700
     28 HO5        -0.2670    2.5680    0.7270 ho        1 KO2      0.432000
     29 H4         -0.8450    0.8940   -2.4620 h1        1 KO2      0.081700
     30 HO4        -1.7460    3.3020   -1.2870 ho        1 KO2      0.421000
     31 H3         -2.7870    0.4420   -1.0180 h1        1 KO2      0.064700
     32 HO3        -2.7390    1.3850    1.1180 ho        1 KO2      0.464000
     33 H11         0.7970   -5.0090   -0.8790 ha        1 KO2      0.102500
     34 H11A        1.2700   -4.8020   -2.6570 ha        1 KO2      0.102500
     35 H10         0.2790   -2.5100   -2.6730 ha        1 KO2      0.122000
     36 H9          0.3520   -2.4310    0.2790 h1        1 KO2      0.074700
     37 H9A        -1.2480   -3.1470   -0.2220 h1        1 KO2      0.074700
@<TRIPOS>BOND
     1    1    2 1   
     2    1    3 1   
     3    1   20 1   
     4    3    4 1   
     5    3   14 1   
     6    3   16 1   
     7    4    5 1   
     8    5    6 1   
     9    5   10 1   
    10    5   21 1   
    11    6    7 1   
    12    6    9 1   
    13    6   22 1   
    14    7    8 1   
    15    7   23 1   
    16    7   24 1   
    17    8   25 1   
    18    9   26 1   
    19   10   11 1   
    20   10   12 1   
    21   10   27 1   
    22   11   28 1   
    23   12   13 1   
    24   12   14 1   
    25   12   29 1   
    26   13   30 1   
    27   14   15 1   
    28   14   31 1   
    29   15   32 1   
    30   16   19 1   
    31   17   18 2   
    32   17   33 1   
    33   17   34 1   
    34   18   19 1   
    35   18   35 1   
    36   19   36 1   
    37   19   37 1   
@<TRIPOS>SUBSTRUCTURE
     1 KO2         1 TEMP              0 ****  ****    0 ROOT
