@<TRIPOS>MOLECULE
KOB
   34    35     1     0     0
SMALL
bcc


@<TRIPOS>ATOM
      1 C13        -4.2150    1.0100   -0.0830 ca        1 KOB     -0.119000
      2 C12        -5.3730    0.8620   -0.8380 ca        1 KOB     -0.148500
      3 C11        -5.6080   -0.3280   -1.5460 ca        1 KOB      0.123900
      4 F11        -6.7360   -0.4720   -2.2810 f         1 KOB     -0.132900
      5 C10        -4.6680   -1.3740   -1.4920 ca        1 KOB     -0.148500
      6 C9         -3.5110   -1.2250   -0.7430 ca        1 KOB     -0.119000
      7 C8         -3.2640   -0.0280   -0.0260 ca        1 KOB      0.016600
      8 N8         -2.0780    0.0410    0.7390 n         1 KOB     -0.373100
      9 C7         -1.4200    1.1790    1.1210 c         1 KOB      0.511400
     10 S7         -1.8390    2.7070    0.8360 s         1 KOB     -0.499400
     11 N7         -0.2520    1.0230    1.9760 n         1 KOB     -0.327300
     12 N6          0.6030   -0.0200    1.7790 nh        1 KOB     -0.538600
     13 C6          1.7340    0.0740    0.9500 ca        1 KOB      0.223600
     14 C5          1.8370    1.0970   -0.0330 ca        1 KOB     -0.217000
     15 C4          2.8750    1.1340   -0.9450 ca        1 KOB      0.008000
     16 C3          3.8670    0.1360   -0.9150 ca        1 KOB     -0.229200
     17 N3          4.9790    0.1720   -1.8990 no        1 KOB      0.323200
     18 O3B         5.8220   -0.6820   -1.8520 o         1 KOB     -0.197000
     19 O3A         4.9990    1.0570   -2.7110 o         1 KOB     -0.197000
     20 C2          3.8130   -0.8850    0.0350 ca        1 KOB      0.022000
     21 C1          2.7670   -0.9130    0.9730 ca        1 KOB     -0.245200
     22 N1          2.8040   -2.0180    1.9670 no        1 KOB      0.323200
     23 O1B         2.2200   -1.9080    3.0140 o         1 KOB     -0.201500
     24 O1A         3.4440   -2.9980    1.7030 o         1 KOB     -0.201500
     25 HE1        -4.8560   -2.3050   -2.0470 ha        1 KOB      0.157500
     26 HE2        -6.1100    1.6780   -0.8810 ha        1 KOB      0.157500
     27 HD2        -4.0460    1.9590    0.4610 ha        1 KOB      0.165000
     28 HD1        -2.7880   -2.0560   -0.7150 ha        1 KOB      0.165000
     29 HAD        -1.6890   -0.8530    0.9670 hn        1 KOB      0.336500
     30 HAC         0.2060    1.9310    2.0500 hn        1 KOB      0.313500
     31 HAB         0.7450   -0.4990    2.6640 hn        1 KOB      0.479800
     32 H5          1.0710    1.8900   -0.1000 ha        1 KOB      0.172000
     33 H4          2.9260    1.9440   -1.6970 ha        1 KOB      0.187000
     34 H2          4.5950   -1.6740    0.0500 ha        1 KOB      0.208000
@<TRIPOS>BOND
     1    1    2 ar  
     2    1    7 ar  
     3    1   27 1   
     4    2    3 ar  
     5    2   26 1   
     6    3    4 1   
     7    3    5 ar  
     8    5    6 ar  
     9    5   25 1   
    10    6    7 ar  
    11    6   28 1   
    12    7    8 1   
    13    8    9 1   
    14    8   29 1   
    15    9   10 2   
    16    9   11 1   
    17   11   12 1   
    18   11   30 1   
    19   12   13 1   
    20   12   31 1   
    21   13   14 ar  
    22   13   21 ar  
    23   14   15 ar  
    24   14   32 1   
    25   15   16 ar  
    26   15   33 1   
    27   16   17 1   
    28   16   20 ar  
    29   17   18 1   
    30   17   19 1   
    31   20   21 ar  
    32   20   34 1   
    33   21   22 1   
    34   22   23 1   
    35   22   24 1   
@<TRIPOS>SUBSTRUCTURE
     1 KOB         1 TEMP              0 ****  ****    0 ROOT
