@<TRIPOS>MOLECULE
KOB
   34    35     1     0     0
SMALL
bcc


@<TRIPOS>ATOM
      1 C13        -0.1190   -0.8010    0.1650 ca        1 KOB     -0.119000
      2 C12         1.1000   -0.2660   -0.2370 ca        1 KOB     -0.148500
      3 C11         1.4870    1.0130    0.1950 ca        1 KOB      0.123900
      4 F11         2.6740    1.5340   -0.1960 f         1 KOB     -0.132900
      5 C10         0.6390    1.7550    1.0390 ca        1 KOB     -0.148500
      6 C9         -0.5780    1.2230    1.4360 ca        1 KOB     -0.119000
      7 C8         -0.9780   -0.0650    1.0040 ca        1 KOB      0.016600
      8 N8         -2.2190   -0.5540    1.4720 n         1 KOB     -0.373100
      9 C7         -2.9980   -1.5060    0.8730 c         1 KOB      0.511400
     10 S7         -2.6920   -2.3290   -0.4760 s         1 KOB     -0.499400
     11 N7         -4.2070   -1.9190    1.5710 n         1 KOB     -0.327300
     12 N6         -4.9520   -1.0000    2.2470 nh        1 KOB     -0.538600
     13 C6         -6.0250   -0.3100    1.6530 ca        1 KOB      0.223600
     14 C5         -6.1430   -0.2210    0.2380 ca        1 KOB     -0.217000
     15 C4         -7.1110    0.5570   -0.3670 ca        1 KOB      0.008000
     16 C3         -8.0140    1.2920    0.4250 ca        1 KOB     -0.229200
     17 N3         -9.0500    2.1340   -0.2270 no        1 KOB      0.323200
     18 O3B        -9.8170    2.7460    0.4650 o         1 KOB     -0.197000
     19 O3A        -9.0860    2.1740   -1.4260 o         1 KOB     -0.197000
     20 C2         -7.9410    1.2330    1.8170 ca        1 KOB      0.022000
     21 C1         -6.9670    0.4270    2.4320 ca        1 KOB     -0.245200
     22 N1         -6.9810    0.3990    3.9190 no        1 KOB      0.323200
     23 O1B        -6.4870   -0.5260    4.5100 o         1 KOB     -0.201500
     24 O1A        -7.5140    1.3050    4.4990 o         1 KOB     -0.201500
     25 HE1         0.9470    2.7560    1.3770 ha        1 KOB      0.157500
     26 HE2         1.7650   -0.8440   -0.8960 ha        1 KOB      0.157500
     27 HD2        -0.4080   -1.8070   -0.1950 ha        1 KOB      0.165000
     28 HD1        -1.2260    1.8220    2.0960 ha        1 KOB      0.165000
     29 HAD        -2.5450   -0.1030    2.3050 hn        1 KOB      0.336500
     30 HAC        -4.7470   -2.5120    0.9400 hn        1 KOB      0.313500
     31 HAB        -5.1170   -1.3400    3.1890 hn        1 KOB      0.479800
     32 H5         -5.4450   -0.7700   -0.4190 ha        1 KOB      0.172000
     33 H4         -7.1770    0.6050   -1.4710 ha        1 KOB      0.187000
     34 H2         -8.6510    1.8200    2.4380 ha        1 KOB      0.208000
@<TRIPOS>BOND
     1    1    2 ar  
     2    1    7 ar  
     3    1   27 1   
     4    2    3 ar  
     5    2   26 1   
     6    3    4 1   
     7    3    5 ar  
     8    5    6 ar  
     9    5   25 1   
    10    6    7 ar  
    11    6   28 1   
    12    7    8 1   
    13    8    9 1   
    14    8   29 1   
    15    9   10 2   
    16    9   11 1   
    17   11   12 1   
    18   11   30 1   
    19   12   13 1   
    20   12   31 1   
    21   13   14 ar  
    22   13   21 ar  
    23   14   15 ar  
    24   14   32 1   
    25   15   16 ar  
    26   15   33 1   
    27   16   17 1   
    28   16   20 ar  
    29   17   18 1   
    30   17   19 1   
    31   20   21 ar  
    32   20   34 1   
    33   21   22 1   
    34   22   23 1   
    35   22   24 1   
@<TRIPOS>SUBSTRUCTURE
     1 KOB         1 TEMP              0 ****  ****    0 ROOT
