@<TRIPOS>MOLECULE
KOB
   35    36     1     0     0
SMALL
bcc


@<TRIPOS>ATOM
      1 C13        -0.0580    0.2300   -0.4900 ca        1 KOB     -0.104000
      2 C12         1.3050    0.3010   -0.7200 ca        1 KOB     -0.142000
      3 C11         2.2130    0.0830    0.3390 ca        1 KOB      0.168900
      4 F11         3.5400    0.1500    0.1120 f         1 KOB     -0.104900
      5 C10         1.7280   -0.2040    1.6270 ca        1 KOB     -0.142000
      6 C9          0.3590   -0.2760    1.8600 ca        1 KOB     -0.104000
      7 C8         -0.5500   -0.0620    0.8070 ca        1 KOB     -0.032400
      8 N8         -1.9620   -0.1030    0.9690 ns        1 KOB     -0.330100
      9 C7         -2.6080   -0.6030    2.0450 c         1 KOB      0.310400
     10 S7         -2.2050   -1.2100    3.4100 s         1 KOB     -0.131400
     11 N7         -4.2010   -0.6020    1.8970 ny        1 KOB     -0.453600
     12 N6         -4.7560    0.5610    1.3370 nu        1 KOB     -0.487400
     13 C6         -6.1760    0.5060    1.0660 ca        1 KOB      0.067600
     14 C5         -6.5580    0.2690   -0.2640 ca        1 KOB     -0.094000
     15 C4         -7.9020    0.3000   -0.6430 ca        1 KOB     -0.026000
     16 C3         -8.8840    0.5680    0.3160 ca        1 KOB     -0.153200
     17 N3        -10.3290    0.6060   -0.0880 no        1 KOB      0.318200
     18 O3B       -11.1440    0.8300    0.7580 o         1 KOB     -0.156500
     19 O3A       -10.5910    0.4070   -1.2380 o         1 KOB     -0.156500
     20 C2         -8.5400    0.8050    1.6560 ca        1 KOB     -0.006000
     21 C1         -7.1910    0.7600    2.0300 ca        1 KOB     -0.192200
     22 N1         -6.8640    0.9960    3.4670 no        1 KOB      0.314200
     23 O1B        -5.7830    0.6360    3.8730 o         1 KOB     -0.184000
     24 O1A        -7.6720    1.5190    4.1680 o         1 KOB     -0.184000
     25 HE1         2.4390   -0.3720    2.4540 ha        1 KOB      0.177500
     26 HE2         1.6910    0.5270   -1.7280 ha        1 KOB      0.177500
     27 HD2        -0.7460    0.4060   -1.3330 ha        1 KOB      0.159500
     28 HD1         0.0130   -0.5020    2.8850 ha        1 KOB      0.159500
     29 HAD        -2.4710    0.2660    0.1860 hn        1 KOB      0.353500
     30 HAC        -4.4600   -1.3930    1.2890 hn        1 KOB      0.461800
     31 HAB        -4.5600    1.3430    1.9640 hn        1 KOB      0.436800
     32 H5         -5.7950    0.0780   -1.0390 ha        1 KOB      0.179000
     33 H4         -8.1850    0.1180   -1.7000 ha        1 KOB      0.208000
     34 H2         -9.3320    1.0270    2.4070 ha        1 KOB      0.227000
     35 H72        -4.5420   -0.8030    2.8730 hn        1 KOB      0.461800
@<TRIPOS>BOND
     1    1    2 ar  
     2    1    7 ar  
     3    1   27 1   
     4    2    3 ar  
     5    2   26 1   
     6    3    4 1   
     7    3    5 ar  
     8    5    6 ar  
     9    5   25 1   
    10    6    7 ar  
    11    6   28 1   
    12    7    8 1   
    13    8    9 1   
    14    8   29 1   
    15    9   10 2   
    16    9   11 1   
    17   11   12 1   
    18   11   30 1   
    19   11   35 1   
    20   12   13 1   
    21   12   31 1   
    22   13   14 ar  
    23   13   21 ar  
    24   14   15 ar  
    25   14   32 1   
    26   15   16 ar  
    27   15   33 1   
    28   16   17 1   
    29   16   20 ar  
    30   17   18 1   
    31   17   19 1   
    32   20   21 ar  
    33   20   34 1   
    34   21   22 1   
    35   22   23 1   
    36   22   24 1   
@<TRIPOS>SUBSTRUCTURE
     1 KOB         1 TEMP              0 ****  ****    0 ROOT
