@<TRIPOS>MOLECULE
KOB
   34    26     1     0     0
SMALL
bcc


@<TRIPOS>ATOM
      1 C13        -0.7990    1.0980   -2.8810 c1        1 KOB     -0.059500
      2 C12        -1.3490    1.1220   -4.1550 c1        1 KOB     -0.150000
      3 C11        -1.0050    2.1310   -5.0390 c1        1 KOB      0.088000
      4 F11        -1.5870    2.1910   -6.2450 f         1 KOB     -0.101000
      5 C10        -0.1110    3.1170   -4.6520 c2        1 KOB     -0.151000
      6 C9          0.4400    3.0940   -3.3790 c1        1 KOB     -0.103000
      7 C8          0.0960    2.0840   -2.4940 c1        1 KOB     -0.071000
      8 N8          0.5780    2.1180   -1.1550 n2        1 KOB     -0.253000
      9 C7          1.7170    1.3360   -0.7860 c2        1 KOB      0.089000
     10 S7          3.1930    1.6010   -1.5340 s         1 KOB     -0.197000
     11 N7          1.6120    0.3730    0.2640 n         1 KOB     -0.243000
     12 N6          0.4470    0.2830    1.0030 n3        1 KOB     -0.187000
     13 C6          0.3050   -0.7400    1.9930 c1        1 KOB      0.147000
     14 C5          0.9280   -0.6020    3.2230 c1        1 KOB     -0.084000
     15 C4          0.6920   -1.5270    4.2270 c1        1 KOB     -0.084000
     16 C3         -0.1680   -2.5940    4.0020 c1        1 KOB     -0.071000
     17 N3         -0.4390   -3.5180    5.0430 n1        1 KOB      0.577000
     18 O3B        -1.4240   -4.4530    4.8880 os        1 KOB     -0.344000
     19 O3A         0.1850   -3.4570    6.0890 o         1 KOB     -0.346000
     20 C2         -0.7910   -2.7340    2.7730 c1        1 KOB     -0.059500
     21 C1         -0.5560   -1.8080    1.7670 c1        1 KOB     -0.204000
     22 N1         -1.1100   -2.0070    0.4820 no        1 KOB      0.576000
     23 O1B        -0.4510   -1.5520   -0.6220 o         1 KOB     -0.359000
     24 O1A        -2.1500   -2.6380    0.3550 o         1 KOB     -0.359000
     25 HE1         0.1310    3.8270   -5.2740 ha        1 KOB      0.157000
     26 HE2        -1.9810    0.4260   -4.4280 ha        1 KOB      0.155000
     27 HD2        -1.0410    0.3870   -2.2580 ha        1 KOB      0.178000
     28 HD1         1.0700    3.7880   -3.1070 ha        1 KOB      0.185000
     29 HAD         0.1930    2.6790   -0.5460 hn        1 KOB      0.249000
     30 HAC         2.3270   -0.1550    0.4730 hn        1 KOB      0.262000
     31 HAB        -0.2170    0.8950    0.8830 hn        1 KOB      0.217000
     32 H5          1.5340    0.1500    3.3820 ha        1 KOB      0.183500
     33 H4          1.1320   -1.4290    5.0950 ha        1 KOB      0.183500
     34 H2         -1.3970   -3.4850    2.6140 ha        1 KOB      0.178000
@<TRIPOS>BOND
     1    1    7 1   
     2    1   27 1   
     3    2    3 1   
     4    2   26 1   
     5    3    5 1   
     6    5    6 1   
     7    5   25 1   
     8    6   28 1   
     9    8    9 1   
    10    8   29 1   
    11    9   10 1   
    12    9   11 1   
    13   11   12 1   
    14   11   30 1   
    15   12   13 1   
    16   12   31 1   
    17   13   21 1   
    18   14   15 1   
    19   14   32 1   
    20   15   33 1   
    21   16   20 1   
    22   17   19 1   
    23   20   34 1   
    24   21   22 1   
    25   22   23 1   
    26   22   24 1   
@<TRIPOS>SUBSTRUCTURE
     1 KOB         1 TEMP              0 ****  ****    0 ROOT
