@<TRIPOS>MOLECULE
KOB
   35    36     1     0     0
SMALL
bcc


@<TRIPOS>ATOM
      1 C13        -0.0500    0.2300   -0.4680 ca        1 KOB     -0.104000
      2 C12         1.3140    0.3040   -0.6920 ca        1 KOB     -0.142000
      3 C11         2.2170    0.0990    0.3740 ca        1 KOB      0.168900
      4 F11         3.5450    0.1690    0.1530 f         1 KOB     -0.104900
      5 C10         1.7260   -0.1780    1.6620 ca        1 KOB     -0.142000
      6 C9          0.3570   -0.2530    1.8880 ca        1 KOB     -0.104000
      7 C8         -0.5480   -0.0520    0.8290 ca        1 KOB     -0.032400
      8 N8         -1.9600   -0.0970    0.9830 n         1 KOB     -0.330100
      9 C7         -2.6100   -0.5880    2.0610 c         1 KOB      0.310400
     10 S7         -2.2120   -1.1800    3.4340 s         1 KOB     -0.131400
     11 N7         -4.2030   -0.5940    1.9050 n4        1 KOB     -0.453600
     12 N6         -4.7590    0.5620    1.3300 nh        1 KOB     -0.487400
     13 C6         -6.1780    0.4980    1.0520 ca        1 KOB      0.067600
     14 C5         -6.5510    0.2470   -0.2780 ca        1 KOB     -0.094000
     15 C4         -7.8930    0.2700   -0.6650 ca        1 KOB     -0.026000
     16 C3         -8.8810    0.5430    0.2860 ca        1 KOB     -0.153200
     17 N3        -10.3240    0.5720   -0.1260 no        1 KOB      0.318200
     18 O3B       -11.1440    0.8010    0.7140 o         1 KOB     -0.156500
     19 O3A       -10.5790    0.3600   -1.2760 o         1 KOB     -0.156500
     20 C2         -8.5460    0.7940    1.6260 ca        1 KOB     -0.006000
     21 C1         -7.1990    0.7580    2.0070 ca        1 KOB     -0.192200
     22 N1         -6.8800    1.0090    3.4440 no        1 KOB      0.314200
     23 O1B        -5.8000    0.6570    3.8600 o         1 KOB     -0.184000
     24 O1A        -7.6940    1.5350    4.1350 o         1 KOB     -0.184000
     25 HE1         2.4330   -0.3350    2.4940 ha        1 KOB      0.177500
     26 HE2         1.7040    0.5220   -1.7000 ha        1 KOB      0.177500
     27 HD2        -0.7350    0.3950   -1.3170 ha        1 KOB      0.159500
     28 HD1         0.0060   -0.4700    2.9130 ha        1 KOB      0.159500
     29 HAD        -2.4670    0.2630    0.1940 hn        1 KOB      0.353500
     30 HAC        -4.4560   -1.3930    1.3030 hn        1 KOB      0.461800
     31 HAB        -4.5690    1.3500    1.9500 hn        1 KOB      0.436800
     32 H5         -5.7830    0.0510   -1.0470 ha        1 KOB      0.179000
     33 H4         -8.1690    0.0760   -1.7210 ha        1 KOB      0.208000
     34 H2         -9.3420    1.0200    2.3700 ha        1 KOB      0.227000
     35 H72        -4.5480   -0.7870    2.8810 hn        1 KOB      0.461800
@<TRIPOS>BOND
     1    1    2 ar  
     2    1    7 ar  
     3    1   27 1   
     4    2    3 ar  
     5    2   26 1   
     6    3    4 1   
     7    3    5 ar  
     8    5    6 ar  
     9    5   25 1   
    10    6    7 ar  
    11    6   28 1   
    12    7    8 1   
    13    8    9 1   
    14    8   29 1   
    15    9   10 2   
    16    9   11 1   
    17   11   12 1   
    18   11   30 1   
    19   11   35 1   
    20   12   13 1   
    21   12   31 1   
    22   13   14 ar  
    23   13   21 ar  
    24   14   15 ar  
    25   14   32 1   
    26   15   16 ar  
    27   15   33 1   
    28   16   17 1   
    29   16   20 ar  
    30   17   18 1   
    31   17   19 1   
    32   20   21 ar  
    33   20   34 1   
    34   21   22 1   
    35   22   23 1   
    36   22   24 1   
@<TRIPOS>SUBSTRUCTURE
     1 KOB         1 TEMP              0 ****  ****    0 ROOT
