@<TRIPOS>MOLECULE
KOJ
   16    13     1     0     0
SMALL
bcc


@<TRIPOS>ATOM
      1 C1         -0.3550   -0.0510   -1.7070 c1        1 KOJ     -0.038000
      2 C2          1.0300   -0.0030   -1.6840 c1        1 KOJ     -0.087000
      3 C3          1.6950    0.0200   -0.4850 c1        1 KOJ      0.282000
      4 C4          0.9880   -0.0060    0.6900 c1        1 KOJ     -0.292000
      5 C5         -0.3970   -0.0550    0.6650 c1        1 KOJ      0.049000
      6 C6         -1.3920   -0.1350    1.8010 c2        1 KOJ      0.019000
      7 O2          1.7910    0.0230   -2.8670 oh        1 KOJ     -0.240000
      8 O3          2.9080    0.0620   -0.4630 o         1 KOJ     -0.315000
      9 O5         -1.0600   -0.0770   -0.5330 os        1 KOJ     -0.130000
     10 O6         -1.9330    1.1450    2.0440 oh        1 KOJ     -0.305000
     11 H1         -0.8280   -0.0670   -2.5610 ha        1 KOJ      0.198000
     12 H4          1.4600    0.0100    1.5440 ha        1 KOJ      0.173000
     13 H6C1       -0.9410   -0.4570    2.6090 h4        1 KOJ      0.113500
     14 H6C2       -2.1130   -0.7530    1.5610 h4        1 KOJ      0.113500
     15 H2          1.6900   -0.7460   -3.3010 ho        1 KOJ      0.246000
     16 H6         -2.5440    1.0920    2.6870 ho        1 KOJ      0.215000
@<TRIPOS>BOND
     1    1    9 1   
     2    1   11 1   
     3    2    3 1   
     4    2    7 1   
     5    3    8 1   
     6    4    5 1   
     7    4   12 1   
     8    5    9 1   
     9    6   10 1   
    10    6   13 1   
    11    6   14 1   
    12    7   15 1   
    13   10   16 1   
@<TRIPOS>SUBSTRUCTURE
     1 KOJ         1 TEMP              0 ****  ****    0 ROOT
