@<TRIPOS>MOLECULE
KOJ
   16    16     1     0     0
SMALL
bcc


@<TRIPOS>ATOM
      1 C1          1.4170   -0.0750   -0.4120 cc        1 KOJ     -0.063900
      2 C2          0.5460   -0.0570   -1.4500 cd        1 KOJ     -0.039100
      3 C3         -0.9110    0.1140   -1.2420 c         1 KOJ      0.588500
      4 C4         -1.2580    0.2350    0.1740 cc        1 KOJ     -0.314200
      5 C5         -0.3220    0.2090    1.1470 cd        1 KOJ      0.081900
      6 C6         -0.5960    0.3600    2.6150 c3        1 KOJ      0.174600
      7 O2          0.9220   -0.1920   -2.7620 oh        1 KOJ     -0.453100
      8 O3         -1.7380    0.1500   -2.1570 o         1 KOJ     -0.506100
      9 O5          1.0300    0.0660    0.9060 os        1 KOJ     -0.218200
     10 O6          0.2400   -0.4420    3.4170 oh        1 KOJ     -0.578800
     11 H1          2.5080   -0.2000   -0.4610 h4        1 KOJ      0.182000
     12 H4         -2.3260    0.3440    0.4130 ha        1 KOJ      0.172000
     13 H6C1       -1.6410    0.0120    2.8460 h1        1 KOJ      0.073200
     14 H6C2       -0.4840    1.4460    2.8890 h1        1 KOJ      0.073200
     15 H2          1.8840   -0.3150   -2.7900 ho        1 KOJ      0.413000
     16 H6          1.1550   -0.1940    3.2310 ho        1 KOJ      0.415000
@<TRIPOS>BOND
     1    1    2 2   
     2    1    9 1   
     3    1   11 1   
     4    2    3 1   
     5    2    7 1   
     6    3    4 1   
     7    3    8 2   
     8    4    5 2   
     9    4   12 1   
    10    5    6 1   
    11    5    9 1   
    12    6   10 1   
    13    6   13 1   
    14    6   14 1   
    15    7   15 1   
    16   10   16 1   
@<TRIPOS>SUBSTRUCTURE
     1 KOJ         1 TEMP              0 ****  ****    0 ROOT
