@<TRIPOS>MOLECULE
KOJ
   16    16     1     0     0
SMALL
bcc


@<TRIPOS>ATOM
      1 C1         -0.1790    0.1960    0.1540 cc        1 KOJ      0.006100
      2 C2          1.1690    0.1520    0.0050 cd        1 KOJ     -0.062100
      3 C3          2.0740    0.0760    1.1690 c         1 KOJ      0.559500
      4 C4          1.3730    0.0630    2.4440 cc        1 KOJ     -0.311200
      5 C5          0.0210    0.1050    2.5020 cd        1 KOJ      0.088900
      6 C6         -0.7900    0.0640    3.7650 c3        1 KOJ      0.173600
      7 O2          1.6900    0.1820   -1.2670 oh        1 KOJ     -0.485100
      8 O3          3.3060    0.0300    1.0320 o         1 KOJ     -0.554100
      9 O5         -0.7920    0.1650    1.3900 os        1 KOJ     -0.218200
     10 O6         -1.9400    0.8740    3.7050 oh        1 KOJ     -0.577800
     11 H1         -0.9340    0.2590   -0.6420 h4        1 KOJ      0.198000
     12 H4          1.9840    0.0230    3.3570 ha        1 KOJ      0.173000
     13 H6C1       -1.0680   -1.0060    3.9740 h1        1 KOJ      0.074200
     14 H6C2       -0.1860    0.4780    4.6190 h1        1 KOJ      0.074200
     15 H2          2.6590    0.1490   -1.1750 ho        1 KOJ      0.447000
     16 H6         -2.4820    0.5670    2.9670 ho        1 KOJ      0.416000
@<TRIPOS>BOND
     1    1    2 2   
     2    1    9 1   
     3    1   11 1   
     4    2    3 1   
     5    2    7 1   
     6    3    4 1   
     7    3    8 2   
     8    4    5 2   
     9    4   12 1   
    10    5    6 1   
    11    5    9 1   
    12    6   10 1   
    13    6   13 1   
    14    6   14 1   
    15    7   15 1   
    16   10   16 1   
@<TRIPOS>SUBSTRUCTURE
     1 KOJ         1 TEMP              0 ****  ****    0 ROOT
