@<TRIPOS>MOLECULE
KOJ
   16    16     1     0     0
SMALL
bcc


@<TRIPOS>ATOM
      1 C1         -0.1780    0.3280    0.1630 cc        1 KOJ      0.006100
      2 C2          1.1650    0.2170    0.0050 cd        1 KOJ     -0.062100
      3 C3          2.0660    0.0170    1.1560 c         1 KOJ      0.559500
      4 C4          1.3670   -0.0370    2.4320 cc        1 KOJ     -0.311200
      5 C5          0.0210    0.0780    2.5000 cd        1 KOJ      0.088900
      6 C6         -0.7890    0.0030    3.7610 c3        1 KOJ      0.173600
      7 O2          1.6840    0.2980   -1.2660 oh        1 KOJ     -0.485100
      8 O3          3.2930   -0.0890    1.0100 o         1 KOJ     -0.554100
      9 O5         -0.7890    0.2530    1.3980 os        1 KOJ     -0.218200
     10 O6         -1.8930    0.8770    3.7590 oh        1 KOJ     -0.577800
     11 H1         -0.9300    0.4830   -0.6230 h4        1 KOJ      0.198000
     12 H4          1.9770   -0.1690    3.3380 ha        1 KOJ      0.173000
     13 H6C1       -1.1260   -1.0610    3.9050 h1        1 KOJ      0.074200
     14 H6C2       -0.1620    0.3280    4.6370 h1        1 KOJ      0.074200
     15 H2          2.6500    0.2050   -1.1810 ho        1 KOJ      0.447000
     16 H6         -2.4530    0.6470    3.0060 ho        1 KOJ      0.416000
@<TRIPOS>BOND
     1    1    2 2   
     2    1    9 1   
     3    1   11 1   
     4    2    3 1   
     5    2    7 1   
     6    3    4 1   
     7    3    8 2   
     8    4    5 2   
     9    4   12 1   
    10    5    6 1   
    11    5    9 1   
    12    6   10 1   
    13    6   13 1   
    14    6   14 1   
    15    7   15 1   
    16   10   16 1   
@<TRIPOS>SUBSTRUCTURE
     1 KOJ         1 TEMP              0 ****  ****    0 ROOT
