@<TRIPOS>MOLECULE
KOL
   53    54     1     0     0
SMALL
bcc


@<TRIPOS>ATOM
      1 C1         -0.0790    0.5270    0.9210 c         1 KOL      0.572900
      2 C2          2.6620    2.0700    2.8910 c2        1 KOL     -0.152600
      3 C3          1.1150   -0.3920    0.8530 c3        1 KOL     -0.202700
      4 C4          2.1830   -0.0920    1.9160 c3        1 KOL      0.177500
      5 C5          1.8980    1.3300    3.7470 ce        1 KOL      0.053800
      6 O6         -0.5060    1.1250   -0.0670 o         1 KOL     -0.524100
      7 C7          0.6320   -1.8470    0.9800 c3        1 KOL      0.149100
      8 O8          1.7730   -2.6620    0.7290 oh        1 KOL     -0.596800
      9 C9         -0.4740   -2.1590   -0.0140 c3        1 KOL     -0.139100
     10 N10         1.6950   -0.0040    3.3040 nh        1 KOL     -0.681000
     11 C11         1.3230    1.7550    5.0550 c         1 KOL      0.918800
     12 O12         0.1720    2.2700    5.1270 o         1 KOL     -0.833800
     13 O13         2.0140    1.6450    6.1300 o         1 KOL     -0.833800
     14 S14         3.2480    3.6310    2.8030 ss        1 KOL     -0.136700
     15 C15         3.4470    4.4010    4.3680 c3        1 KOL     -0.044600
     16 C16         2.1830    4.9220    5.0460 c3        1 KOL     -0.102400
     17 C17         2.5470    4.9100    6.5530 c3        1 KOL      0.098500
     18 C18         3.0010    1.2230    1.6730 c3        1 KOL     -0.008500
     19 N19         3.6200    3.9400    6.7750 n3        1 KOL     -0.789200
     20 C20         2.7560    1.9350    0.3700 c3        1 KOL     -0.098100
     21 C21         4.1920    3.6140    5.4610 c3        1 KOL      0.148800
     22 C22         1.2810    4.8120    7.3910 c         1 KOL      0.552100
     23 N23         0.7330    3.4700    7.7700 n4        1 KOL     -0.621200
     24 O24         0.6620    5.8010    7.7750 o         1 KOL     -0.478100
     25 C25         1.1450    3.1390    9.1520 c3        1 KOL      0.097100
     26 C26        -0.7430    3.4430    7.6330 c3        1 KOL      0.097100
     27 H1         -0.5680    0.6310    1.9140 h4        1 KOL      0.007200
     28 H3          1.6090   -0.2880   -0.1550 hc        1 KOL      0.101700
     29 H4          2.9020   -0.9650    1.8950 h1        1 KOL      0.093700
     30 H7          0.2650   -2.0420    2.0280 h1        1 KOL      0.034700
     31 HO8         1.4730   -3.5770    0.7710 ho        1 KOL      0.404000
     32 H9         -0.7960   -3.2220    0.0930 hc        1 KOL      0.049700
     33 H9A        -0.1120   -2.0000   -1.0580 hc        1 KOL      0.049700
     34 H9B        -1.3550   -1.4960    0.1640 hc        1 KOL      0.049700
     35 HN10        0.7600   -0.3290    3.4430 hn        1 KOL      0.385800
     36 H15         4.0790    5.2850    4.0680 h1        1 KOL      0.089700
     37 H16         1.9270    5.9550    4.7120 hc        1 KOL      0.085200
     38 H16A        1.3090    4.2500    4.8380 hc        1 KOL      0.085200
     39 H17         2.9870    5.9200    6.8320 h1        1 KOL      0.104700
     40 H18         4.0910    0.9460    1.7290 hc        1 KOL      0.068700
     41 HN19        3.2880    3.0930    7.2030 hn        1 KOL      0.377800
     42 H20         1.6760    2.1790    0.2280 hc        1 KOL      0.046700
     43 H20A        3.3360    2.8930    0.3530 hc        1 KOL      0.046700
     44 H20B        3.0960    1.3050   -0.4890 hc        1 KOL      0.046700
     45 H21         4.1220    2.5080    5.2570 h1        1 KOL      0.078200
     46 H21A        5.2750    3.9120    5.4870 h1        1 KOL      0.078200
     47 H25         0.7760    2.1090    9.4030 hx        1 KOL      0.091867
     48 H25A        2.2650    3.1530    9.2200 hx        1 KOL      0.091867
     49 H25B        0.7110    3.8830    9.8700 hx        1 KOL      0.091867
     50 H26        -1.1210    2.4550    8.0030 hx        1 KOL      0.091867
     51 H26A       -1.2020    4.2800    8.2190 hx        1 KOL      0.091867
     52 H26B       -0.9950    3.5380    6.5380 hx        1 KOL      0.091867
     53 H231        1.1320    2.7050    7.0990 hn        1 KOL      0.542800
@<TRIPOS>BOND
     1    1    3 1   
     2    1    6 2   
     3    1   27 1   
     4    2    5 2   
     5    2   14 1   
     6    2   18 1   
     7    3    4 1   
     8    3    7 1   
     9    3   28 1   
    10    4   10 1   
    11    4   18 1   
    12    4   29 1   
    13    5   10 1   
    14    5   11 1   
    15    7    8 1   
    16    7    9 1   
    17    7   30 1   
    18    8   31 1   
    19    9   32 1   
    20    9   33 1   
    21    9   34 1   
    22   10   35 1   
    23   11   12 1   
    24   11   13 1   
    25   14   15 1   
    26   15   16 1   
    27   15   21 1   
    28   15   36 1   
    29   16   17 1   
    30   16   37 1   
    31   16   38 1   
    32   17   19 1   
    33   17   22 1   
    34   17   39 1   
    35   18   20 1   
    36   18   40 1   
    37   19   21 1   
    38   19   41 1   
    39   20   42 1   
    40   20   43 1   
    41   20   44 1   
    42   21   45 1   
    43   21   46 1   
    44   22   23 1   
    45   22   24 2   
    46   23   25 1   
    47   23   26 1   
    48   23   53 1   
    49   25   47 1   
    50   25   48 1   
    51   25   49 1   
    52   26   50 1   
    53   26   51 1   
    54   26   52 1   
@<TRIPOS>SUBSTRUCTURE
     1 KOL         1 TEMP              0 ****  ****    0 ROOT
