@<TRIPOS>MOLECULE
KOL
   52    50     1     0     0
SMALL
bcc


@<TRIPOS>ATOM
      1 C1         -2.9760   -2.2610   -3.3560 c1        1 KOL      0.192000
      2 C2         -1.3110   -0.3770   -0.8170 c1        1 KOL     -0.422000
      3 C3         -1.3980   -2.2830   -3.3810 c2        1 KOL     -0.193000
      4 C4         -0.9210   -2.2310   -2.1070 c3        1 KOL     -0.022000
      5 C5         -2.0100   -1.5180   -0.2920 c1        1 KOL     -0.006000
      6 O6         -3.5950   -3.2560   -3.0190 o         1 KOL     -0.320000
      7 C7         -0.9030   -3.6050   -4.0670 c3        1 KOL      0.038000
      8 O8          0.4600   -3.6600   -4.0130 oh        1 KOL     -0.328000
      9 C9         -1.3460   -3.6260   -5.4980 c3        1 KOL     -0.252000
     10 N10        -2.0270   -2.5350   -1.1030 n3        1 KOL     -0.257000
     11 C11        -3.1070   -1.3310    0.6800 c1        1 KOL      0.378000
     12 O12        -3.9890   -0.4660    0.4690 o         1 KOL     -0.550500
     13 O13        -3.2010   -2.0910    1.6720 o         1 KOL     -0.550500
     14 S14        -1.0740    1.0960    0.2120 ss        1 KOL      0.210000
     15 C15         0.3240    0.7660    1.5010 c3        1 KOL     -0.272000
     16 C16         1.1390    1.6780    1.4690 c3        1 KOL     -0.165000
     17 C17         1.6800    1.8510    2.9620 c3        1 KOL     -0.059000
     18 C18        -0.4200   -0.6910   -1.7310 c2        1 KOL     -0.049000
     19 N19         0.6070    0.9580    3.7600 n3        1 KOL     -0.265000
     20 C20        -0.3610    0.3050   -2.9750 c3        1 KOL     -0.208000
     21 C21        -0.2970    0.7330    2.9760 c3        1 KOL     -0.092000
     22 C22         1.7070    3.1360    3.3040 c2        1 KOL      0.300000
     23 N23         2.7990    3.6450    4.0480 n         1 KOL     -0.340000
     24 O24         0.7770    3.8320    3.0660 o         1 KOL     -0.375000
     25 C25         3.6420    4.6720    3.4830 c3        1 KOL     -0.075000
     26 C26         3.0330    3.1860    5.3640 c3        1 KOL     -0.075000
     27 H1         -3.4590   -1.4430   -3.6030 ha        1 KOL      0.143000
     28 H3         -1.0680   -1.5060   -3.8870 ha        1 KOL      0.130000
     29 H4         -0.1820   -2.8630   -1.9970 h1        1 KOL      0.107000
     30 H7         -1.2800   -4.3810   -3.5950 h1        1 KOL      0.082000
     31 HO8         0.7380   -4.4400   -4.3380 ho        1 KOL      0.191000
     32 H9         -1.0610   -4.4800   -5.9190 hc        1 KOL      0.083667
     33 H9A        -0.9480   -2.8850   -5.9690 hc        1 KOL      0.083667
     34 H9B        -2.3190   -3.5520   -5.5380 hc        1 KOL      0.083667
     35 HN10       -2.4200   -3.3530   -0.9490 hn        1 KOL      0.190000
     36 H15         0.7690   -0.0890    1.3040 h1        1 KOL      0.186000
     37 H16         1.8650    1.4510    0.8770 hc        1 KOL      0.104000
     38 H16A        0.7090    2.5010    1.1710 hc        1 KOL      0.104000
     39 H17         2.5980    1.5770    3.1520 h1        1 KOL      0.110000
     40 H18         0.5180   -0.6600   -1.3870 ha        1 KOL      0.090000
     41 HN19        0.2770    1.4420    4.4810 hn        1 KOL      0.135000
     42 H20         0.2100   -0.0900   -3.6900 hc        1 KOL      0.074667
     43 H20A       -1.2700    0.4480   -3.3230 hc        1 KOL      0.074667
     44 H20B        0.0190    1.1630   -2.6900 hc        1 KOL      0.074667
     45 H21        -0.6800   -0.1490    3.1550 h1        1 KOL      0.119000
     46 H21A       -1.0000    1.4300    3.0620 h1        1 KOL      0.119000
     47 H25         3.1260    5.5060    3.3920 h1        1 KOL      0.078667
     48 H25A        3.9590    4.3870    2.6040 h1        1 KOL      0.078667
     49 H25B        4.4130    4.8260    4.0760 h1        1 KOL      0.078667
     50 H26         3.5450    2.3470    5.3330 h1        1 KOL      0.078667
     51 H26A        2.1700    3.0280    5.8150 h1        1 KOL      0.078667
     52 H26B        3.5380    3.8570    5.8560 h1        1 KOL      0.078667
@<TRIPOS>BOND
     1    1    6 1   
     2    1   27 1   
     3    2    5 1   
     4    2   14 1   
     5    3    4 1   
     6    3    7 1   
     7    3   28 1   
     8    4   10 1   
     9    4   18 1   
    10    4   29 1   
    11    5   10 1   
    12    7    8 1   
    13    7    9 1   
    14    7   30 1   
    15    8   31 1   
    16    9   32 1   
    17    9   33 1   
    18    9   34 1   
    19   10   35 1   
    20   11   12 1   
    21   11   13 1   
    22   14   15 1   
    23   15   16 1   
    24   15   21 1   
    25   15   36 1   
    26   16   17 1   
    27   16   37 1   
    28   16   38 1   
    29   17   19 1   
    30   17   22 1   
    31   17   39 1   
    32   18   20 1   
    33   18   40 1   
    34   19   21 1   
    35   19   41 1   
    36   20   42 1   
    37   20   43 1   
    38   20   44 1   
    39   21   45 1   
    40   21   46 1   
    41   22   23 1   
    42   22   24 1   
    43   23   25 1   
    44   23   26 1   
    45   25   47 1   
    46   25   48 1   
    47   25   49 1   
    48   26   50 1   
    49   26   51 1   
    50   26   52 1   
@<TRIPOS>SUBSTRUCTURE
     1 KOL         1 TEMP              0 ****  ****    0 ROOT
