@<TRIPOS>MOLECULE
KOM
   29    31     1     0     0
SMALL
bcc


@<TRIPOS>ATOM
      1 O15        -0.0730    0.1190    0.0730 o         1 KOM     -0.560500
      2 C13         1.1470    0.0560   -0.0700 c         1 KOM      0.716800
      3 O14         1.7910   -0.0540    1.1630 os        1 KOM     -0.297200
      4 C4          3.1660   -0.1090    1.1780 ca        1 KOM      0.149100
      5 C5          3.7650   -0.1890    2.4570 ca        1 KOM      0.090100
      6 O9          2.9380   -0.2200    3.5500 oh        1 KOM     -0.463100
      7 C6          5.1670   -0.2340    2.5400 ca        1 KOM      0.075100
      8 O10         5.6930   -0.3120    3.8120 oh        1 KOM     -0.508100
      9 C1          5.9610   -0.1960    1.3820 ca        1 KOM     -0.196000
     10 C12         1.9290    0.0750   -1.2950 cc        1 KOM     -0.250200
     11 C11         3.2820   -0.0040   -1.2700 cd        1 KOM      0.098600
     12 C3          3.9590   -0.0850    0.0110 ca        1 KOM     -0.140800
     13 C2          5.3580   -0.1210    0.1380 ca        1 KOM     -0.074000
     14 C18         4.0520   -0.0040   -2.5170 ca        1 KOM     -0.078800
     15 C24         3.9150    1.0600   -3.4190 ca        1 KOM     -0.108500
     16 C23         4.6270    1.0570   -4.6170 ca        1 KOM     -0.131000
     17 C22         5.4700   -0.0090   -4.9290 ca        1 KOM     -0.116000
     18 C21         5.6020   -1.0750   -4.0380 ca        1 KOM     -0.131000
     19 C20         4.8990   -1.0740   -2.8350 ca        1 KOM     -0.108500
     20 HO9         3.4970   -0.2570    4.3430 ho        1 KOM      0.436000
     21 HO10        6.6580   -0.3150    3.7350 ho        1 KOM      0.435000
     22 H1          7.0560   -0.2230    1.4710 ha        1 KOM      0.143000
     23 H12         1.3540    0.1460   -2.2300 ha        1 KOM      0.173000
     24 H2          5.9800   -0.0850   -0.7710 ha        1 KOM      0.152000
     25 H24         3.2440    1.8990   -3.1760 ha        1 KOM      0.142000
     26 H23         4.5190    1.8980   -5.3190 ha        1 KOM      0.137500
     27 H22         6.0280   -0.0120   -5.8770 ha        1 KOM      0.137000
     28 H21         6.2610   -1.9200   -4.2850 ha        1 KOM      0.137500
     29 H20         5.0010   -1.9170   -2.1350 ha        1 KOM      0.142000
@<TRIPOS>BOND
     1    1    2 2   
     2    2    3 1   
     3    2   10 1   
     4    3    4 1   
     5    4    5 ar  
     6    4   12 ar  
     7    5    6 1   
     8    5    7 ar  
     9    6   20 1   
    10    7    8 1   
    11    7    9 ar  
    12    8   21 1   
    13    9   13 ar  
    14    9   22 1   
    15   10   11 2   
    16   10   23 1   
    17   11   12 1   
    18   11   14 1   
    19   12   13 ar  
    20   13   24 1   
    21   14   15 ar  
    22   14   19 ar  
    23   15   16 ar  
    24   15   25 1   
    25   16   17 ar  
    26   16   26 1   
    27   17   18 ar  
    28   17   27 1   
    29   18   19 ar  
    30   18   28 1   
    31   19   29 1   
@<TRIPOS>SUBSTRUCTURE
     1 KOM         1 TEMP              0 ****  ****    0 ROOT
