@<TRIPOS>MOLECULE
KOM
   29    31     1     0     0
SMALL
bcc


@<TRIPOS>ATOM
      1 O15        -0.0730    0.1180    0.0700 o         1 KOM     -0.560500
      2 C13         1.1470    0.0550   -0.0720 c         1 KOM      0.716800
      3 O14         1.7900   -0.0570    1.1610 os        1 KOM     -0.297200
      4 C4          3.1650   -0.1120    1.1770 ca        1 KOM      0.149100
      5 C5          3.7630   -0.1940    2.4570 ca        1 KOM      0.090100
      6 O9          2.9340   -0.2260    3.5490 oh        1 KOM     -0.463100
      7 C6          5.1650   -0.2380    2.5410 ca        1 KOM      0.075100
      8 O10         5.6890   -0.3180    3.8130 oh        1 KOM     -0.508100
      9 C1          5.9590   -0.1980    1.3830 ca        1 KOM     -0.196000
     10 C12         1.9300    0.0760   -1.2960 cc        1 KOM     -0.250200
     11 C11         3.2830   -0.0030   -1.2710 cd        1 KOM      0.098600
     12 C3          3.9580   -0.0860    0.0110 ca        1 KOM     -0.140800
     13 C2          5.3570   -0.1220    0.1390 ca        1 KOM     -0.074000
     14 C18         4.0530   -0.0020   -2.5170 ca        1 KOM     -0.078800
     15 C24         3.9160    1.0630   -3.4180 ca        1 KOM     -0.108500
     16 C23         4.6290    1.0610   -4.6160 ca        1 KOM     -0.131000
     17 C22         5.4730   -0.0050   -4.9280 ca        1 KOM     -0.116000
     18 C21         5.6050   -1.0710   -4.0380 ca        1 KOM     -0.131000
     19 C20         4.9010   -1.0710   -2.8350 ca        1 KOM     -0.108500
     20 HO9         3.4930   -0.2640    4.3420 ho        1 KOM      0.436000
     21 HO10        6.6550   -0.3200    3.7360 ho        1 KOM      0.435000
     22 H1          7.0540   -0.2250    1.4740 ha        1 KOM      0.143000
     23 H12         1.3550    0.1480   -2.2320 ha        1 KOM      0.173000
     24 H2          5.9800   -0.0850   -0.7700 ha        1 KOM      0.152000
     25 H24         3.2460    1.9010   -3.1750 ha        1 KOM      0.142000
     26 H23         4.5220    1.9030   -5.3170 ha        1 KOM      0.137500
     27 H22         6.0310   -0.0060   -5.8760 ha        1 KOM      0.137000
     28 H21         6.2640   -1.9160   -4.2850 ha        1 KOM      0.137500
     29 H20         5.0020   -1.9150   -2.1360 ha        1 KOM      0.142000
@<TRIPOS>BOND
     1    1    2 2   
     2    2    3 1   
     3    2   10 1   
     4    3    4 1   
     5    4    5 ar  
     6    4   12 ar  
     7    5    6 1   
     8    5    7 ar  
     9    6   20 1   
    10    7    8 1   
    11    7    9 ar  
    12    8   21 1   
    13    9   13 ar  
    14    9   22 1   
    15   10   11 2   
    16   10   23 1   
    17   11   12 1   
    18   11   14 1   
    19   12   13 ar  
    20   13   24 1   
    21   14   15 ar  
    22   14   19 ar  
    23   15   16 ar  
    24   15   25 1   
    25   16   17 ar  
    26   16   26 1   
    27   17   18 ar  
    28   17   27 1   
    29   18   19 ar  
    30   18   28 1   
    31   19   29 1   
@<TRIPOS>SUBSTRUCTURE
     1 KOM         1 TEMP              0 ****  ****    0 ROOT
