@<TRIPOS>MOLECULE
KOM
   29    26     1     0     0
SMALL
bcc


@<TRIPOS>ATOM
      1 O15        -4.3250   -0.0930    0.8730 o         1 KOM     -0.288000
      2 C13        -3.1140    0.0030    0.8600 c1        1 KOM      0.346000
      3 O14        -2.3880    0.0920    2.0930 o         1 KOM     -0.211000
      4 C4         -0.8970    0.0040    2.0920 c2        1 KOM      0.052000
      5 C5         -0.2010    0.0150    3.3050 c2        1 KOM      0.041000
      6 O9         -0.9070    0.0350    4.5190 oh        1 KOM     -0.222000
      7 C6          1.1940    0.0600    3.3090 c1        1 KOM      0.092000
      8 O10         1.8920    0.1410    4.5290 o         1 KOM     -0.218000
      9 C1          1.8990    0.0930    2.0950 c2        1 KOM     -0.210000
     10 C12        -2.3870    0.0060   -0.4240 c2        1 KOM     -0.238000
     11 C11        -0.9420    0.0340   -0.4290 c1        1 KOM      0.086000
     12 C3         -0.1910    0.0370    0.8770 c1        1 KOM     -0.126000
     13 C2          1.2060    0.0820    0.8830 c2        1 KOM     -0.069000
     14 C18        -0.1850   -0.0390   -1.7400 c2        1 KOM     -0.070000
     15 C24         0.0190   -1.2640   -2.3550 c2        1 KOM     -0.106000
     16 C23         0.6550   -1.3260   -3.5850 c1        1 KOM     -0.130000
     17 C22         1.0870   -0.1610   -4.2000 c1        1 KOM     -0.123500
     18 C21         0.8830    1.0640   -3.5860 c1        1 KOM     -0.123500
     19 C20         0.2470    1.1260   -2.3560 c1        1 KOM     -0.110000
     20 HO9        -1.0750    0.8760    4.7500 ho        1 KOM      0.240000
     21 HO10        2.5010   -0.5040    4.5660 ho        1 KOM      0.220000
     22 H1          2.8750    0.1250    2.0980 ha        1 KOM      0.143000
     23 H12        -2.8800    0.0890   -1.2640 ha        1 KOM      0.174000
     24 H2          1.6970    0.1050    0.0400 ha        1 KOM      0.152000
     25 H24        -0.2860   -2.0840   -1.9210 ha        1 KOM      0.142000
     26 H23         0.7980   -2.1880   -4.0170 ha        1 KOM      0.139000
     27 H22         1.5350   -0.2040   -5.0670 ha        1 KOM      0.137500
     28 H21         1.1880    1.8850   -4.0200 ha        1 KOM      0.137500
     29 H20         0.1030    1.9900   -1.9230 ha        1 KOM      0.142000
@<TRIPOS>BOND
     1    1    2 1   
     2    2   10 1   
     3    3    4 1   
     4    4    5 1   
     5    4   12 1   
     6    5    6 1   
     7    5    7 1   
     8    6   20 1   
     9    7    9 1   
    10    8   21 1   
    11    9   13 1   
    12    9   22 1   
    13   10   11 1   
    14   10   23 1   
    15   11   14 1   
    16   12   13 1   
    17   13   24 1   
    18   14   15 1   
    19   14   19 1   
    20   15   16 1   
    21   15   25 1   
    22   16   26 1   
    23   17   18 1   
    24   17   27 1   
    25   18   28 1   
    26   19   29 1   
@<TRIPOS>SUBSTRUCTURE
     1 KOM         1 TEMP              0 ****  ****    0 ROOT
