@<TRIPOS>MOLECULE
KOM
   29    31     1     0     0
SMALL
bcc


@<TRIPOS>ATOM
      1 O15         1.0070   -3.6980   -0.1680 o         1 KOM     -0.564500
      2 C13         0.6680   -2.5160   -0.1380 c         1 KOM      0.731800
      3 O14         1.7900   -1.6830   -0.1800 os        1 KOM     -0.348200
      4 C4          1.5940   -0.3190   -0.1260 ca        1 KOM      0.115100
      5 C5          2.7670    0.4600   -0.1370 ca        1 KOM      0.018100
      6 O9          4.0370   -0.0690   -0.2100 oh        1 KOM     -0.511100
      7 C6          2.6590    1.8610   -0.0690 ca        1 KOM      0.154100
      8 O10         3.7510    2.6860   -0.0760 oh        1 KOM     -0.485100
      9 C1          1.3910    2.4670    0.0130 ca        1 KOM     -0.160000
     10 C12        -0.6570   -1.9300   -0.0780 cc        1 KOM     -0.261200
     11 C11        -0.8400   -0.5850   -0.0510 cd        1 KOM      0.113600
     12 C3          0.3220    0.2830   -0.0580 ca        1 KOM     -0.144800
     13 C2          0.2480    1.6850    0.0190 ca        1 KOM     -0.071000
     14 C18        -2.1910   -0.0190   -0.0130 ca        1 KOM     -0.081800
     15 C24        -3.0760   -0.4000    1.0050 ca        1 KOM     -0.107500
     16 C23        -4.3700    0.1180    1.0360 ca        1 KOM     -0.131000
     17 C22        -4.7920    1.0090    0.0500 ca        1 KOM     -0.115000
     18 C21        -3.9170    1.3830   -0.9700 ca        1 KOM     -0.131000
     19 C20        -2.6200    0.8750   -1.0030 ca        1 KOM     -0.107500
     20 HO9         3.9570   -1.0360   -0.2280 ho        1 KOM      0.454000
     21 HO10        4.5490    2.1350   -0.1280 ho        1 KOM      0.446000
     22 H1          1.3310    3.5640    0.0730 ha        1 KOM      0.161000
     23 H12        -1.4960   -2.6430   -0.0680 ha        1 KOM      0.174000
     24 H2         -0.7410    2.1660    0.0910 ha        1 KOM      0.153000
     25 H24        -2.7450   -1.1070    1.7800 ha        1 KOM      0.141500
     26 H23        -5.0580   -0.1800    1.8410 ha        1 KOM      0.138500
     27 H22        -5.8140    1.4140    0.0740 ha        1 KOM      0.137000
     28 H21        -4.2500    2.0810   -1.7530 ha        1 KOM      0.138500
     29 H20        -1.9320    1.1680   -1.8110 ha        1 KOM      0.141500
@<TRIPOS>BOND
     1    1    2 2   
     2    2    3 1   
     3    2   10 1   
     4    3    4 1   
     5    4    5 ar  
     6    4   12 ar  
     7    5    6 1   
     8    5    7 ar  
     9    6   20 1   
    10    7    8 1   
    11    7    9 ar  
    12    8   21 1   
    13    9   13 ar  
    14    9   22 1   
    15   10   11 2   
    16   10   23 1   
    17   11   12 1   
    18   11   14 1   
    19   12   13 ar  
    20   13   24 1   
    21   14   15 ar  
    22   14   19 ar  
    23   15   16 ar  
    24   15   25 1   
    25   16   17 ar  
    26   16   26 1   
    27   17   18 ar  
    28   17   27 1   
    29   18   19 ar  
    30   18   28 1   
    31   19   29 1   
@<TRIPOS>SUBSTRUCTURE
     1 KOM         1 TEMP              0 ****  ****    0 ROOT
