@<TRIPOS>MOLECULE
KOP
    9     7     1     0     0
SMALL
bcc


@<TRIPOS>ATOM
      1 P          -1.0210   -0.3340    0.6250 p3        1 KOP      2.509000
      2 C1          1.1540    0.3090   -0.5860 c3        1 KOP      0.063000
      3 O4          0.5570   -0.3170    0.5270 o         1 KOP     -0.733000
      4 O1P        -1.4350   -0.4110    2.0750 o         1 KOP     -1.258000
      5 O2P        -1.5770    0.9270    0.0080 o         1 KOP     -1.258000
      6 O3P        -1.5580   -1.5360   -0.1160 o         1 KOP     -1.258000
      7 H1          2.0980    0.0440   -0.6430 h1        1 KOP     -0.021333
      8 H1A         1.0930    1.2830   -0.4850 h1        1 KOP     -0.021333
      9 H1B         0.6880    0.0350   -1.4050 h1        1 KOP     -0.021333
@<TRIPOS>BOND
     1    1    4 1   
     2    1    5 1   
     3    1    6 1   
     4    2    3 1   
     5    2    7 1   
     6    2    8 1   
     7    2    9 1   
@<TRIPOS>SUBSTRUCTURE
     1 KOP         1 TEMP              0 ****  ****    0 ROOT
