@<TRIPOS>MOLECULE
KOP
    9     8     1     0     0
SMALL
bcc


@<TRIPOS>ATOM
      1 P          -0.0530    0.0150   -0.0750 p5        1 KOP      1.316900
      2 C1          2.2600    0.9250    0.7200 c3        1 KOP      0.252700
      3 O4          1.6710   -0.1510    0.1240 os        1 KOP     -0.571200
      4 O1P        -0.5070    0.1940    1.3510 o         1 KOP     -0.938500
      5 O2P        -0.1410    1.2560   -0.9270 o         1 KOP     -0.938500
      6 O3P        -0.4200   -1.2840   -0.7400 o         1 KOP     -0.938500
      7 H1          2.8000    0.6190    1.6690 h1        1 KOP     -0.060633
      8 H1A         3.0600    1.3710    0.0520 h1        1 KOP     -0.060633
      9 H1B         1.5150    1.7270    0.9730 h1        1 KOP     -0.060633
@<TRIPOS>BOND
     1    1    3 1   
     2    1    4 1   
     3    1    5 1   
     4    1    6 1   
     5    2    3 1   
     6    2    7 1   
     7    2    8 1   
     8    2    9 1   
@<TRIPOS>SUBSTRUCTURE
     1 KOP         1 TEMP              0 ****  ****    0 ROOT
