@<TRIPOS>MOLECULE
KOP
    9     8     1     0     0
SMALL
bcc


@<TRIPOS>ATOM
      1 P          -0.0620    0.0490   -0.0890 p5        1 KOP      1.316900
      2 C1          2.2660    0.8910    0.7380 c3        1 KOP      0.252700
      3 O4          1.6420   -0.1920    0.1900 os        1 KOP     -0.571200
      4 O1P        -0.5570    0.3460    1.3040 o         1 KOP     -0.938500
      5 O2P        -0.0520    1.2330   -1.0220 o         1 KOP     -0.938500
      6 O3P        -0.4740   -1.2710   -0.6810 o         1 KOP     -0.938500
      7 H1          2.7540    0.6210    1.7250 h1        1 KOP     -0.060633
      8 H1A         3.1120    1.2500    0.0740 h1        1 KOP     -0.060633
      9 H1B         1.5570    1.7440    0.9090 h1        1 KOP     -0.060633
@<TRIPOS>BOND
     1    1    3 1   
     2    1    4 1   
     3    1    5 1   
     4    1    6 1   
     5    2    3 1   
     6    2    7 1   
     7    2    8 1   
     8    2    9 1   
@<TRIPOS>SUBSTRUCTURE
     1 KOP         1 TEMP              0 ****  ****    0 ROOT
