@<TRIPOS>MOLECULE
KOP
    9     8     1     0     0
SMALL
bcc


@<TRIPOS>ATOM
      1 P           0.3690   -0.0090    0.0780 p5        1 KOP      1.313900
      2 C1         -2.1830    0.0290   -0.0690 c3        1 KOP      0.208700
      3 O4         -1.0810    0.5380   -0.7060 os        1 KOP     -0.573200
      4 O1P         0.1890    0.5280    1.4760 o         1 KOP     -0.940833
      5 O2P         0.2470   -1.5070   -0.0520 o         1 KOP     -0.940833
      6 O3P         1.4410    0.6460   -0.7530 o         1 KOP     -0.940833
      7 H1         -2.1690   -1.0950   -0.0910 h1        1 KOP     -0.042633
      8 H1A        -2.2100    0.3620    1.0040 h1        1 KOP     -0.042633
      9 H1B        -3.1210    0.3880   -0.5830 h1        1 KOP     -0.042633
@<TRIPOS>BOND
     1    1    3 1   
     2    1    4 1   
     3    1    5 1   
     4    1    6 1   
     5    2    3 1   
     6    2    7 1   
     7    2    8 1   
     8    2    9 1   
@<TRIPOS>SUBSTRUCTURE
     1 KOP         1 TEMP              0 ****  ****    0 ROOT
