@<TRIPOS>MOLECULE
KOR
   30    30     1     0     0
SMALL
bcc


@<TRIPOS>ATOM
      1 OAO         1.7180   -2.7030   -3.5940 o         1 KOR     -0.854300
      2 CAN         1.9100   -2.4480   -2.3700 c         1 KOR      0.901600
      3 OAQ         2.6450   -1.5060   -1.9530 o         1 KOR     -0.854300
      4 CAJ         1.2020   -3.3740   -1.3300 c3        1 KOR      0.035500
      5 NAK         1.8410   -3.4040   -0.0250 n3        1 KOR     -0.914800
      6 CAI        -0.2950   -3.0350   -1.3130 c3        1 KOR     -0.060400
      7 C          -4.5970    2.0930    2.7490 c         1 KOR      0.716600
      8 O          -5.1190    3.1230    3.2310 o         1 KOR     -0.779500
      9 OXT        -3.8800    1.2810    3.4590 os        1 KOR     -0.460800
     10 N          -5.0540    2.8190    0.3770 n3        1 KOR     -0.889800
     11 OAA        -3.9810   -1.0710    2.4890 o         1 KOR     -0.554800
     12 CAH        -0.6330   -1.7440   -0.6100 c3        1 KOR     -0.052300
     13 SAG        -1.1620   -2.1500    1.0460 ss        1 KOR     -0.234500
     14 NAF        -1.5520   -0.7520    1.7770 n3        1 KOR     -0.697300
     15 SAE        -2.9540   -0.0170    2.3140 s6        1 KOR      0.711700
     16 CB         -3.5320    0.8860    0.8640 c3        1 KOR     -0.072600
     17 CA         -4.7570    1.7020    1.2580 c3        1 KOR      0.068500
     18 HAJ         1.2880   -4.4260   -1.7390 h1        1 KOR      0.032700
     19 HAK1        1.1850   -3.1170    0.6830 hn        1 KOR      0.341800
     20 HAK2        2.5940   -2.7350   -0.0230 hn        1 KOR      0.341800
     21 HAI3       -0.8630   -3.8800   -0.8360 hc        1 KOR      0.037200
     22 HAI2       -0.6240   -2.9700   -2.3850 hc        1 KOR      0.037200
     23 H          -4.2020    3.2810    0.1190 hn        1 KOR      0.333300
     24 H2         -5.6130    3.4810    0.8900 hn        1 KOR      0.333300
     25 HAH3        0.2560   -1.0670   -0.5940 h1        1 KOR      0.056200
     26 HAH2       -1.4500   -1.2080   -1.1490 h1        1 KOR      0.056200
     27 HAF        -0.7470   -0.2380    2.0470 hn        1 KOR      0.222700
     28 HB3        -3.7850    0.1980    0.0260 h1        1 KOR      0.064200
     29 HB2        -2.6990    1.5420    0.5200 h1        1 KOR      0.064200
     30 HA         -5.6600    1.0210    1.2190 h1        1 KOR      0.071700
@<TRIPOS>BOND
     1    1    2 1   
     2    2    3 1   
     3    2    4 1   
     4    4    5 1   
     5    4    6 1   
     6    4   18 1   
     7    5   19 1   
     8    5   20 1   
     9    6   12 1   
    10    6   21 1   
    11    6   22 1   
    12    7    8 2   
    13    7    9 1   
    14    7   17 1   
    15    9   15 1   
    16   10   17 1   
    17   10   23 1   
    18   10   24 1   
    19   11   15 2   
    20   12   13 1   
    21   12   25 1   
    22   12   26 1   
    23   13   14 1   
    24   14   15 2   
    25   14   27 1   
    26   15   16 1   
    27   16   17 1   
    28   16   28 1   
    29   16   29 1   
    30   17   30 1   
@<TRIPOS>SUBSTRUCTURE
     1 KOR         1 TEMP              0 ****  ****    0 ROOT
