@<TRIPOS>MOLECULE
KOT
   39    41     1     0     0
SMALL
bcc


@<TRIPOS>ATOM
      1 C14        -0.0770    0.2640    0.1000 ca        1 KOT     -0.111000
      2 C13         1.2860   -0.0270    0.0570 ca        1 KOT     -0.131500
      3 C12         1.9160   -0.6160    1.1530 ca        1 KOT     -0.123000
      4 C11         1.1770   -0.9170    2.2970 ca        1 KOT     -0.131500
      5 C10        -0.1840   -0.6310    2.3480 ca        1 KOT     -0.111000
      6 C9         -0.8250   -0.0360    1.2480 ca        1 KOT     -0.109500
      7 C8         -2.2390    0.2550    1.3160 cc        1 KOT      0.322800
      8 C7         -3.1230    0.0980    2.4010 cd        1 KOT     -0.192600
      9 N3         -3.0170    0.7930    0.2470 nc        1 KOT     -0.336000
     10 N2         -4.2170    0.9360    0.6140 nd        1 KOT     -0.170800
     11 N1         -4.3550    0.5710    1.9160 na        1 KOT      0.034400
     12 C1         -5.6160    0.4470    2.6270 c3        1 KOT      0.240800
     13 O5         -6.0210   -0.9310    2.5310 os        1 KOT     -0.435600
     14 C5         -7.1600   -1.2230    3.3460 c3        1 KOT      0.105100
     15 C6         -7.4200   -2.7220    3.1630 c3        1 KOT      0.141400
     16 O6         -6.3590   -3.4880    3.6870 oh        1 KOT     -0.592800
     17 C4         -8.3710   -0.3970    2.8880 c3        1 KOT      0.121100
     18 O4         -9.4220   -0.6650    3.7980 oh        1 KOT     -0.593800
     19 C3         -8.0140    1.0990    2.9080 c3        1 KOT      0.105100
     20 O3         -9.1230    1.7850    2.3570 oh        1 KOT     -0.601800
     21 C2         -6.7510    1.3430    2.0630 c3        1 KOT      0.091100
     22 O2         -6.4360    2.7120    2.2200 oh        1 KOT     -0.600800
     23 H14        -0.5610    0.7280   -0.7730 ha        1 KOT      0.139500
     24 H13         1.8650    0.2110   -0.8470 ha        1 KOT      0.134000
     25 H12         2.9910   -0.8440    1.1150 ha        1 KOT      0.133000
     26 H11         1.6700   -1.3830    3.1630 ha        1 KOT      0.134000
     27 H10        -0.7600   -0.8740    3.2530 ha        1 KOT      0.139500
     28 H7         -2.9900   -0.2740    3.4150 h4        1 KOT      0.196000
     29 H1         -5.4180    0.7080    3.7110 h2        1 KOT      0.076700
     30 H5         -6.9220   -0.9990    4.4230 h1        1 KOT      0.070700
     31 H6         -7.5800   -2.9540    2.0780 h1        1 KOT      0.068200
     32 H6A        -8.3260   -3.0060    3.7640 h1        1 KOT      0.068200
     33 HO6        -5.5750   -3.2810    3.1630 ho        1 KOT      0.410000
     34 H4         -8.6780   -0.6940    1.8470 h1        1 KOT      0.067700
     35 HO4       -10.1530   -0.0820    3.5490 ho        1 KOT      0.428000
     36 H3         -7.8420    1.4480    3.9650 h1        1 KOT      0.064700
     37 HO3        -8.8770    2.7190    2.3130 ho        1 KOT      0.429000
     38 H2         -6.9570    1.0910    0.9870 h1        1 KOT      0.088700
     39 HO2        -5.8360    2.9570    1.5040 ho        1 KOT      0.431000
@<TRIPOS>BOND
     1    1    2 ar  
     2    1    6 ar  
     3    1   23 1   
     4    2    3 ar  
     5    2   24 1   
     6    3    4 ar  
     7    3   25 1   
     8    4    5 ar  
     9    4   26 1   
    10    5    6 ar  
    11    5   27 1   
    12    6    7 1   
    13    7    8 2   
    14    7    9 1   
    15    8   11 1   
    16    8   28 1   
    17    9   10 2   
    18   10   11 1   
    19   11   12 1   
    20   12   13 1   
    21   12   21 1   
    22   12   29 1   
    23   13   14 1   
    24   14   15 1   
    25   14   17 1   
    26   14   30 1   
    27   15   16 1   
    28   15   31 1   
    29   15   32 1   
    30   16   33 1   
    31   17   18 1   
    32   17   19 1   
    33   17   34 1   
    34   18   35 1   
    35   19   20 1   
    36   19   21 1   
    37   19   36 1   
    38   20   37 1   
    39   21   22 1   
    40   21   38 1   
    41   22   39 1   
@<TRIPOS>SUBSTRUCTURE
     1 KOT         1 TEMP              0 ****  ****    0 ROOT
