@<TRIPOS>MOLECULE
KOT
   39    35     1     0     0
SMALL
bcc


@<TRIPOS>ATOM
      1 C14         2.3450    3.7480    1.3290 c1        1 KOT     -0.099000
      2 C13         2.8550    5.0340    1.3960 c1        1 KOT     -0.128500
      3 C12         3.2130    5.6960    0.2360 c1        1 KOT     -0.128500
      4 C11         3.0630    5.0780   -0.9830 c1        1 KOT     -0.128500
      5 C10         2.5520    3.7890   -1.0500 c1        1 KOT     -0.128500
      6 C9          2.1950    3.1280    0.1040 c1        1 KOT      0.002000
      7 C8          1.7370    1.7930    0.0360 c1        1 KOT     -0.110500
      8 C7          0.4510    1.4020   -0.1130 c1        1 KOT     -0.110500
      9 N3          2.5020    0.6860    0.1050 n2        1 KOT     -0.125000
     10 N2          1.6900   -0.3880   -0.0030 n2        1 KOT      0.028000
     11 N1          0.4240    0.0580   -0.1370 n2        1 KOT     -0.125000
     12 C1         -0.7210   -0.7370   -0.2530 c2        1 KOT      0.185000
     13 O5         -0.9680   -1.4090    1.0350 os        1 KOT     -0.280000
     14 C5         -2.0570   -2.3920    0.9680 c3        1 KOT     -0.036000
     15 C6         -2.1160   -3.1400    2.2700 c3        1 KOT     -0.012000
     16 O6         -2.4150   -2.2120    3.3470 oh        1 KOT     -0.320000
     17 C4         -1.8760   -3.3890   -0.1690 c3        1 KOT     -0.037000
     18 O4         -3.0530   -4.1840   -0.2760 oh        1 KOT     -0.313000
     19 C3         -1.6300   -2.7130   -1.4800 c3        1 KOT     -0.039000
     20 O3         -1.2890   -3.7150   -2.4640 oh        1 KOT     -0.326000
     21 C2         -0.5310   -1.7250   -1.4030 c3        1 KOT      0.014000
     22 O2         -0.4740   -1.0060   -2.6270 oh        1 KOT     -0.318000
     23 H14         2.0940    3.2820    2.1430 ha        1 KOT      0.154000
     24 H13         2.9620    5.4730    2.2620 ha        1 KOT      0.130500
     25 H12         3.5830    6.6310    0.2830 ha        1 KOT      0.130500
     26 H11         3.3120    5.5390   -1.7910 ha        1 KOT      0.130500
     27 H10         2.4460    3.3510   -1.9150 ha        1 KOT      0.130500
     28 H7         -0.3480    2.0100   -0.1930 DU        1 KOT      0.192000
     29 H1         -1.4690   -0.1720   -0.4550 h4        1 KOT      0.114000
     30 H5         -2.8950   -1.9210    0.8390 h1        1 KOT      0.094000
     31 H6         -1.2290   -3.5810    2.4440 h1        1 KOT      0.108500
     32 H6A        -2.8200   -3.8260    2.2220 h1        1 KOT      0.108500
     33 HO6        -2.6130   -2.6650    4.0790 ho        1 KOT      0.213000
     34 H4         -1.0810   -3.9990    0.0450 h1        1 KOT      0.150000
     35 HO4        -3.7210   -3.6880   -0.6630 ho        1 KOT      0.204000
     36 H3         -2.4530   -2.2520   -1.7640 h1        1 KOT      0.089000
     37 HO3        -2.0270   -3.9320   -2.9430 ho        1 KOT      0.225000
     38 H2          0.3430   -2.2180   -1.2730 h1        1 KOT      0.131000
     39 HO2         0.0170   -1.4370   -3.1900 ho        1 KOT      0.230000
@<TRIPOS>BOND
     1    1    6 1   
     2    1   23 1   
     3    2    3 1   
     4    2   24 1   
     5    3   25 1   
     6    4    5 1   
     7    4   26 1   
     8    5   27 1   
     9    7    8 1   
    10    7    9 1   
    11    8   11 1   
    12    9   10 1   
    13   10   11 1   
    14   12   13 1   
    15   12   21 1   
    16   12   29 1   
    17   13   14 1   
    18   14   15 1   
    19   14   17 1   
    20   14   30 1   
    21   15   16 1   
    22   15   31 1   
    23   15   32 1   
    24   16   33 1   
    25   17   18 1   
    26   17   19 1   
    27   17   34 1   
    28   18   35 1   
    29   19   20 1   
    30   19   21 1   
    31   19   36 1   
    32   20   37 1   
    33   21   22 1   
    34   21   38 1   
    35   22   39 1   
@<TRIPOS>SUBSTRUCTURE
     1 KOT         1 TEMP              0 ****  ****    0 ROOT
