@<TRIPOS>MOLECULE
KOT
   39    41     1     0     0
SMALL
bcc


@<TRIPOS>ATOM
      1 C14         4.7370    0.2910   -0.9060 ca        1 KOT     -0.111000
      2 C13         6.0560   -0.1080   -0.6970 ca        1 KOT     -0.131500
      3 C12         6.3880   -0.9000    0.4020 ca        1 KOT     -0.123000
      4 C11         5.3940   -1.2960    1.2960 ca        1 KOT     -0.131500
      5 C10         4.0730   -0.9020    1.0950 ca        1 KOT     -0.111000
      6 C9          3.7320   -0.1030   -0.0090 ca        1 KOT     -0.109500
      7 C8          2.3580    0.2980   -0.2040 cc        1 KOT      0.322800
      8 C7          1.2440    0.0730    0.6290 cd        1 KOT     -0.191600
      9 N3          1.8710    1.0400   -1.3230 nc        1 KOT     -0.336000
     10 N2          0.6290    1.2360   -1.2050 nd        1 KOT     -0.170800
     11 N1          0.1810    0.7120   -0.0330 na        1 KOT      0.034400
     12 C1         -1.2120    0.6030    0.3630 c3        1 KOT      0.240800
     13 O5         -1.6600   -0.7100   -0.0240 os        1 KOT     -0.435600
     14 C5         -2.9670   -1.0090    0.4730 c3        1 KOT      0.105100
     15 C6         -3.2610   -2.4420    0.0150 c3        1 KOT      0.141400
     16 O6         -2.3890   -3.3600    0.6330 oh        1 KOT     -0.592800
     17 C4         -3.9970   -0.0270   -0.1060 c3        1 KOT      0.121100
     18 O4         -5.2390   -0.3230    0.5060 oh        1 KOT     -0.593800
     19 C3         -3.5730    1.4160    0.2150 c3        1 KOT      0.105100
     20 O3         -4.4900    2.2630   -0.4520 oh        1 KOT     -0.601800
     21 C2         -2.1400    1.6620   -0.2920 c3        1 KOT      0.091100
     22 O2         -1.7950    2.9650    0.1330 oh        1 KOT     -0.600800
     23 H14         4.4900    0.9150   -1.7780 ha        1 KOT      0.139500
     24 H13         6.8380    0.2040   -1.4050 ha        1 KOT      0.134000
     25 H12         7.4300   -1.2130    0.5630 ha        1 KOT      0.133000
     26 H11         5.6510   -1.9220    2.1630 ha        1 KOT      0.134000
     27 H10         3.2950   -1.2210    1.8030 ha        1 KOT      0.139500
     28 H7          1.1250   -0.4420    1.5790 h4        1 KOT      0.196000
     29 H1         -1.2500    0.6980    1.4900 h2        1 KOT      0.076700
     30 H5         -2.9670   -0.9530    1.5960 h1        1 KOT      0.070700
     31 H6         -4.2930   -2.7240    0.3570 h1        1 KOT      0.068200
     32 H6A        -3.1840   -2.5100   -1.1020 h1        1 KOT      0.068200
     33 HO6        -1.4960   -3.1530    0.3280 ho        1 KOT      0.410000
     34 H4         -4.0770   -0.1540   -1.2210 h1        1 KOT      0.067700
     35 HO4        -5.8620    0.3490    0.1950 ho        1 KOT      0.428000
     36 H3         -3.6250    1.6030    1.3240 h1        1 KOT      0.064700
     37 HO3        -4.1900    3.1700   -0.3020 ho        1 KOT      0.429000
     38 H2         -2.1120    1.5760   -1.4120 h1        1 KOT      0.088700
     39 HO2        -1.0360    3.2510   -0.3920 ho        1 KOT      0.431000
@<TRIPOS>BOND
     1    1    2 ar  
     2    1    6 ar  
     3    1   23 1   
     4    2    3 ar  
     5    2   24 1   
     6    3    4 ar  
     7    3   25 1   
     8    4    5 ar  
     9    4   26 1   
    10    5    6 ar  
    11    5   27 1   
    12    6    7 1   
    13    7    8 2   
    14    7    9 1   
    15    8   11 1   
    16    8   28 1   
    17    9   10 2   
    18   10   11 1   
    19   11   12 1   
    20   12   13 1   
    21   12   21 1   
    22   12   29 1   
    23   13   14 1   
    24   14   15 1   
    25   14   17 1   
    26   14   30 1   
    27   15   16 1   
    28   15   31 1   
    29   15   32 1   
    30   16   33 1   
    31   17   18 1   
    32   17   19 1   
    33   17   34 1   
    34   18   35 1   
    35   19   20 1   
    36   19   21 1   
    37   19   36 1   
    38   20   37 1   
    39   21   22 1   
    40   21   38 1   
    41   22   39 1   
@<TRIPOS>SUBSTRUCTURE
     1 KOT         1 TEMP              0 ****  ****    0 ROOT
