@<TRIPOS>MOLECULE
KOT
   39    41     1     0     0
SMALL
bcc


@<TRIPOS>ATOM
      1 C14        -0.0640    0.2870    0.1280 ca        1 KOT     -0.111000
      2 C13         1.2980   -0.0060    0.0890 ca        1 KOT     -0.131500
      3 C12         1.9190   -0.6190    1.1770 ca        1 KOT     -0.123000
      4 C11         1.1730   -0.9410    2.3100 ca        1 KOT     -0.131500
      5 C10        -0.1880   -0.6520    2.3570 ca        1 KOT     -0.111000
      6 C9         -0.8200   -0.0340    1.2660 ca        1 KOT     -0.109500
      7 C8         -2.2340    0.2600    1.3310 cc        1 KOT      0.322800
      8 C7         -3.1240    0.0920    2.4100 cd        1 KOT     -0.191600
      9 N3         -3.0060    0.8120    0.2650 nc        1 KOT     -0.336000
     10 N2         -4.2070    0.9550    0.6280 nd        1 KOT     -0.170800
     11 N1         -4.3520    0.5740    1.9250 na        1 KOT      0.034400
     12 C1         -5.6170    0.4450    2.6290 c3        1 KOT      0.240800
     13 O5         -6.0240   -0.9310    2.5150 os        1 KOT     -0.435600
     14 C5         -7.1670   -1.2290    3.3220 c3        1 KOT      0.105100
     15 C6         -7.4300   -2.7260    3.1200 c3        1 KOT      0.141400
     16 O6         -6.3740   -3.5000    3.6400 oh        1 KOT     -0.592800
     17 C4         -8.3740   -0.3950    2.8680 c3        1 KOT      0.121100
     18 O4         -9.4300   -0.6710    3.7700 oh        1 KOT     -0.593800
     19 C3         -8.0140    1.0990    2.9060 c3        1 KOT      0.105100
     20 O3         -9.1200    1.7940    2.3580 oh        1 KOT     -0.601800
     21 C2         -6.7470    1.3510    2.0700 c3        1 KOT      0.091100
     22 O2         -6.4300    2.7160    2.2440 oh        1 KOT     -0.600800
     23 H14        -0.5420    0.7700   -0.7380 ha        1 KOT      0.139500
     24 H13         1.8830    0.2480   -0.8070 ha        1 KOT      0.134000
     25 H12         2.9940   -0.8490    1.1410 ha        1 KOT      0.133000
     26 H11         1.6580   -1.4260    3.1690 ha        1 KOT      0.134000
     27 H10        -0.7700   -0.9120    3.2540 ha        1 KOT      0.139500
     28 H7         -2.9960   -0.2910    3.4200 h4        1 KOT      0.196000
     29 H1         -5.4230    0.6930    3.7160 h2        1 KOT      0.076700
     30 H5         -6.9340   -1.0180    4.4020 h1        1 KOT      0.070700
     31 H6         -7.5860   -2.9440    2.0310 h1        1 KOT      0.068200
     32 H6A        -8.3390   -3.0150    3.7140 h1        1 KOT      0.068200
     33 HO6        -5.5860   -3.2890    3.1220 ho        1 KOT      0.410000
     34 H4         -8.6780   -0.6800    1.8220 h1        1 KOT      0.067700
     35 HO4       -10.1590   -0.0840    3.5230 ho        1 KOT      0.428000
     36 H3         -7.8460    1.4350    3.9670 h1        1 KOT      0.064700
     37 HO3        -8.8710    2.7280    2.3260 ho        1 KOT      0.429000
     38 H2         -6.9490    1.1110    0.9900 h1        1 KOT      0.088700
     39 HO2        -5.8260    2.9690    1.5330 ho        1 KOT      0.431000
@<TRIPOS>BOND
     1    1    2 ar  
     2    1    6 ar  
     3    1   23 1   
     4    2    3 ar  
     5    2   24 1   
     6    3    4 ar  
     7    3   25 1   
     8    4    5 ar  
     9    4   26 1   
    10    5    6 ar  
    11    5   27 1   
    12    6    7 1   
    13    7    8 2   
    14    7    9 1   
    15    8   11 1   
    16    8   28 1   
    17    9   10 2   
    18   10   11 1   
    19   11   12 1   
    20   12   13 1   
    21   12   21 1   
    22   12   29 1   
    23   13   14 1   
    24   14   15 1   
    25   14   17 1   
    26   14   30 1   
    27   15   16 1   
    28   15   31 1   
    29   15   32 1   
    30   16   33 1   
    31   17   18 1   
    32   17   19 1   
    33   17   34 1   
    34   18   35 1   
    35   19   20 1   
    36   19   21 1   
    37   19   36 1   
    38   20   37 1   
    39   21   22 1   
    40   21   38 1   
    41   22   39 1   
@<TRIPOS>SUBSTRUCTURE
     1 KOT         1 TEMP              0 ****  ****    0 ROOT
