@<TRIPOS>MOLECULE
KOU
   34    46     1     0     0
SMALL
bcc


@<TRIPOS>ATOM
      1 C           0.0000    0.0000    0.0000 c2        1 KOU      0.460000
      2 N           1.9960    1.1950   -0.6900 n7        1 KOU     -0.089000
      3 O          -0.6030    0.9090   -0.5190 o         1 KOU     -0.619000
      4 P           5.8380   -0.2490   -6.1160 p5        1 KOU      0.855500
      5 N1          4.1500    4.5180   -3.7310 n2        1 KOU      0.110000
      6 C2          3.3930    4.6700   -2.6630 c3        1 KOU     -0.425000
      7 C3          2.9060    3.5670   -1.9750 c3        1 KOU     -0.014000
      8 O3          2.1260    3.7280   -0.8760 oh        1 KOU     -0.257000
      9 C4          3.2320    2.2820   -2.4370 c3        1 KOU     -0.223000
     10 C5          4.0390    2.1760   -3.5760 DU        1 KOU      0.076000
     11 C6          4.4780    3.3280   -4.1960 c2        1 KOU     -0.348000
     12 CA          1.5070    0.0000    0.0000 DU        1 KOU     -0.650000
     13 CB          2.0170    0.0000    1.4430 DU        1 KOU     -0.424000
     14 OG          1.4480    1.1030    2.1490 oh        1 KOU     -0.468000
     15 O1P         6.8730   -1.0720   -5.1970 o         1 KOU     -0.679500
     16 O2P         6.6000    0.3040   -7.4220 o         1 KOU     -0.679500
     17 O3P         4.7310   -1.1400   -6.5310 o         1 KOU     -0.679500
     18 C4A         2.7400    1.0770   -1.7410 c2        1 KOU     -0.281000
     19 C5A         4.4230    0.8240   -4.1190 c3        1 KOU      0.354000
     20 OXT        -0.6710   -1.0060    0.5810 o         1 KOU     -0.619000
     21 HO3         2.3150    4.3160   -1.5880 DU        1 KOU      0.266000
     22 H6          4.4540    2.2460   -4.1630 DU        1 KOU      0.359000
     23 HA          0.9580    0.8950   -0.2650 DU        1 KOU      0.451000
     24 HB          2.5830    0.4090    0.6150 DU        1 KOU      0.195000
     25 HBA         2.1830   -0.6160    0.5680 DU        1 KOU      0.195000
     26 HOG         1.1170    0.2310    2.2910 DU        1 KOU      0.304000
     27 H2A         3.2890    5.1680   -1.6090 DU        1 KOU      0.072000
     28 H2AA        2.5710    5.3330   -1.5350 DU        1 KOU      0.109000
     29 H2AB        2.1350    5.8170   -1.6600 DU        1 KOU      0.109000
     30 H4A         2.4940    1.8530   -2.4550 DU        1 KOU      0.242000
     31 H5A         4.2390    1.8880   -4.0340 DU        1 KOU     -0.205000
     32 H5AA        3.4820    1.2810   -3.8410 DU        1 KOU      0.070000
     33 C2A         3.0530    6.0560   -2.1830 c3        1 KOU     -0.129000
     34 O4P         5.2430    0.9900   -5.2770 os        1 KOU     -0.439000
@<TRIPOS>BOND
     1    1    3 1   
     2    1   12 1   
     3    1   20 1   
     4    2   12 1   
     5    2   18 1   
     6    2   23 1   
     7    4   15 1   
     8    4   16 1   
     9    4   17 1   
    10    4   34 1   
    11    5    6 1   
    12    5   11 1   
    13    6    7 1   
    14    6   27 1   
    15    6   33 1   
    16    7    8 1   
    17    7    9 1   
    18    7   21 1   
    19    8   21 1   
    20    9   10 1   
    21    9   18 1   
    22    9   30 1   
    23   10   11 1   
    24   10   19 1   
    25   10   22 1   
    26   10   31 1   
    27   10   32 1   
    28   11   22 1   
    29   12   13 1   
    30   12   23 1   
    31   12   24 1   
    32   12   25 1   
    33   13   14 1   
    34   13   24 1   
    35   13   25 1   
    36   13   26 1   
    37   14   26 1   
    38   18   30 1   
    39   19   31 1   
    40   19   32 1   
    41   19   34 1   
    42   22   31 1   
    43   27   33 1   
    44   28   29 1   
    45   28   33 1   
    46   29   33 1   
@<TRIPOS>SUBSTRUCTURE
     1 KOU         1 TEMP              0 ****  ****    0 ROOT
