@<TRIPOS>MOLECULE
KOU
   34    29     1     0     0
SMALL
bcc


@<TRIPOS>ATOM
      1 C        -503.9030 -335.9270  700.0500 c2        1 KOU      0.358000
      2 N          99.3550  -95.7750  345.7710 n2        1 KOU     -0.392000
      3 O        -504.4420 -334.8450  700.4510 o         1 KOU     -0.587000
      4 P         581.2910 -780.2520 -928.8940 p3        1 KOU      2.389000
      5 N1         32.0560  591.5200 -112.8290 n2        1 KOU     -0.181000
      6 C2         32.2090  592.5670 -113.6920 c2        1 KOU     -0.101000
      7 C3         31.6280  593.8290 -113.4390 c2        1 KOU     -0.107000
      8 O3         31.7310  594.8980 -114.3240 oh        1 KOU     -0.294000
      9 C4         30.8640  594.0180 -112.2710 c2        1 KOU     -0.147000
     10 C5         30.7170  592.9340 -111.4210 c2        1 KOU     -0.212000
     11 C6         31.3310  591.6840 -111.7240 c1        1 KOU     -0.332000
     12 CA       -503.1460 -335.9250  698.7540 c2        1 KOU     -0.316000
     13 CB       -502.9840 -334.8560  697.9620 c2        1 KOU     -0.021000
     14 OG       -503.4730 -333.5960  698.1910 oh        1 KOU     -0.327000
     15 O1P       581.5160 -780.6300 -927.4820 o         1 KOU     -1.130333
     16 O2P       582.3720 -779.6060 -929.6590 o         1 KOU     -1.130333
     17 O3P       580.0070 -780.5720 -929.5420 o         1 KOU     -1.130333
     18 C4A       100.3140  -96.4550  345.7000 c1        1 KOU      0.119000
     19 C5A       580.6700 -778.3860 -926.0070 c1        1 KOU      0.201000
     20 OXT      -503.9770 -337.0100  700.6980 o         1 KOU     -0.587000
     21 HO3        32.6450  594.8940 -114.6370 ho        1 KOU      0.178000
     22 H6         30.1260  593.0240 -110.5020 ha        1 KOU      0.090000
     23 HA         98.5680  -95.2160  345.8290 hn        1 KOU      0.273000
     24 HB       -502.4260 -334.8620  697.0110 h4        1 KOU      0.102000
     25 HBA      -502.7080 -336.8910  698.4700 ha        1 KOU      0.110000
     26 HOG      -503.9660 -333.6040  699.0380 ho        1 KOU      0.268000
     27 H2A        33.3040  591.3390 -115.1140 hc        1 KOU      0.057333
     28 H2AA       33.9670  593.0050 -114.8500 hc        1 KOU      0.057333
     29 H2AB       32.4510  592.7780 -115.8170 hc        1 KOU      0.057333
     30 H4A        30.4090  594.9980 -112.0790 ha        1 KOU      0.090000
     31 H5A       200.5320 -129.3950 -122.3800 ha        1 KOU      0.000000
     32 H5AA      200.4550 -129.1070 -121.7730 ha        1 KOU      0.000000
     33 C2A        33.0250  592.4050 -114.9330 c3        1 KOU     -0.155000
     34 O4P       580.6570 -778.4940 -927.1740 o         1 KOU     -0.200000
@<TRIPOS>BOND
     1    1    3 1   
     2    1   12 1   
     3    1   20 1   
     4    2   18 1   
     5    2   23 1   
     6    4   15 1   
     7    4   16 1   
     8    4   17 1   
     9    5    6 1   
    10    5   11 1   
    11    6    7 1   
    12    6   33 1   
    13    7    8 1   
    14    7    9 1   
    15    8   21 1   
    16    9   10 1   
    17    9   30 1   
    18   10   11 1   
    19   10   22 1   
    20   12   13 1   
    21   12   25 1   
    22   13   14 1   
    23   13   24 1   
    24   14   26 1   
    25   19   34 1   
    26   27   33 1   
    27   28   33 1   
    28   29   33 1   
    29   31   32 1   
@<TRIPOS>SUBSTRUCTURE
     1 KOU         1 TEMP              0 ****  ****    0 ROOT
