@<TRIPOS>MOLECULE
KOU
   34    34     1     0     0
SMALL
bcc


@<TRIPOS>ATOM
      1 C          -4.6090    1.3930    0.6490 c         1 KOU      0.925600
      2 N          -2.5280    0.3380   -0.2670 n2        1 KOU     -0.619900
      3 O          -4.6660    2.0200    1.7420 o         1 KOU     -0.845800
      4 P           4.3290    0.6540   -0.2330 p5        1 KOU      1.315900
      5 N1          1.2940   -3.1300    0.1160 nb        1 KOU     -0.673000
      6 C2         -0.0550   -3.2860    0.2110 ca        1 KOU      0.290600
      7 C3         -0.9410   -2.1820    0.1890 ca        1 KOU      0.029800
      8 O3         -2.2730   -2.5030    0.3160 oh        1 KOU     -0.543100
      9 C4         -0.4290   -0.8660    0.0650 ca        1 KOU     -0.216900
     10 C5          0.9610   -0.7210   -0.0650 ca        1 KOU     -0.128600
     11 C6          1.7730   -1.8930   -0.0160 ca        1 KOU      0.357200
     12 CA         -3.2990    1.5560   -0.2000 c3        1 KOU     -0.033500
     13 CB         -3.7010    2.0710   -1.5960 c3        1 KOU      0.172400
     14 OG         -4.4850    1.1850   -2.3650 oh        1 KOU     -0.653800
     15 O1P         5.2160    1.1970   -1.3160 o         1 KOU     -0.925167
     16 O2P         4.5660   -0.7830    0.1670 o         1 KOU     -0.925167
     17 O3P         4.0110    1.5910    0.9030 o         1 KOU     -0.925167
     18 C4A        -1.2920    0.3270    0.1010 ce        1 KOU      0.480800
     19 C5A         1.6760    0.6010   -0.2370 c3        1 KOU      0.242700
     20 OXT        -5.5620    0.7060    0.1810 o         1 KOU     -0.845800
     21 HO3        -2.8050   -1.6990    0.2040 ho        1 KOU      0.456000
     22 H6          2.9010   -1.7320   -0.0730 h4        1 KOU      0.149100
     23 HA         -2.7160    2.3990    0.2860 h1        1 KOU      0.030700
     24 HB         -4.2820    3.0240   -1.4500 h1        1 KOU      0.009700
     25 HBA        -2.7930    2.2880   -2.2220 h1        1 KOU      0.009700
     26 HOG        -4.9830    0.6250   -1.7460 ho        1 KOU      0.451000
     27 H2A        -1.1620   -4.7330    1.3350 hc        1 KOU      0.018367
     28 H2AA       -1.3960   -4.8150   -0.4560 hc        1 KOU      0.018367
     29 H2AB        0.1360   -5.4540    0.2870 hc        1 KOU      0.018367
     30 H4A        -0.7600    1.2320    0.4820 h4        1 KOU     -0.016200
     31 H5A         0.9540    1.3260   -0.7200 h1        1 KOU      0.021200
     32 H5AA        1.9500    0.9860    0.7940 h1        1 KOU      0.021200
     33 C2A        -0.6380   -4.6520    0.3500 c3        1 KOU     -0.104400
     34 O4P         2.7910    0.5010   -1.0270 os        1 KOU     -0.563200
@<TRIPOS>BOND
     1    1    3 1   
     2    1   12 1   
     3    1   20 1   
     4    2   12 1   
     5    2   18 2   
     6    4   15 1   
     7    4   16 1   
     8    4   17 1   
     9    4   34 1   
    10    5    6 ar  
    11    5   11 ar  
    12    6    7 ar  
    13    6   33 1   
    14    7    8 1   
    15    7    9 ar  
    16    8   21 1   
    17    9   10 ar  
    18    9   18 1   
    19   10   11 ar  
    20   10   19 1   
    21   11   22 1   
    22   12   13 1   
    23   12   23 1   
    24   13   14 1   
    25   13   24 1   
    26   13   25 1   
    27   14   26 1   
    28   18   30 1   
    29   19   31 1   
    30   19   32 1   
    31   19   34 1   
    32   27   33 1   
    33   28   33 1   
    34   29   33 1   
@<TRIPOS>SUBSTRUCTURE
     1 KOU         1 TEMP              0 ****  ****    0 ROOT
