@<TRIPOS>MOLECULE
KOV
   44    46     1     0     0
SMALL
bcc


@<TRIPOS>ATOM
      1 S           1.0650    1.9070   -0.2870 ss        1 KOV     -0.350200
      2 C1         -3.5050   -1.5270    2.3100 c3        1 KOV      0.129700
      3 N1         -4.0990    0.2870    0.9780 n2        1 KOV     -0.397200
      4 O1         -3.3200   -0.7660    1.0930 os        1 KOV     -0.173300
      5 C2         -3.9300    1.0000   -0.1120 ce        1 KOV      0.279300
      6 N2         -1.6370    0.5640   -0.8580 n         1 KOV     -0.526900
      7 O2         -4.3320    3.0780   -1.3070 os        1 KOV     -0.334800
      8 C3         -4.7460    2.1840   -0.3070 cc        1 KOV      0.226400
      9 N3          1.2790   -0.7170   -1.1560 n         1 KOV     -0.333000
     10 O3         -3.3510    0.5320   -2.4040 o         1 KOV     -0.581100
     11 C4         -5.8980    2.6550    0.3020 cd        1 KOV     -0.219300
     12 N4          5.5800   -1.0820   -0.5540 n         1 KOV     -0.661000
     13 C5         -6.2270    3.9020   -0.3460 cd        1 KOV     -0.279300
     14 O5          5.1410    0.3150    1.3610 os        1 KOV     -0.426900
     15 C6         -5.2580    4.1170   -1.3070 cc        1 KOV      0.253600
     16 O6          7.1150    0.3610    0.4400 o         1 KOV     -0.611000
     17 C7         -2.9590    0.6740   -1.2330 c         1 KOV      0.582800
     18 O7          1.4300   -2.9230    1.0520 o         1 KOV     -0.793800
     19 C8         -0.6300    0.0840   -1.7360 cy        1 KOV      0.011700
     20 O8          3.4090   -3.0230   -0.0090 o         1 KOV     -0.793800
     21 C9          0.8240    0.6410   -1.5050 cy        1 KOV      0.110800
     22 C10        -0.0040   -1.3180   -1.3660 c         1 KOV      0.687500
     23 C11         2.1750   -0.9720   -0.1200 ce        1 KOV     -0.000600
     24 C12         2.8810    0.0180    0.4990 c2        1 KOV     -0.292400
     25 C13         2.7180    1.4570    0.2130 c3        1 KOV      0.081900
     26 C14         3.8650   -0.3030    1.5710 c3        1 KOV      0.192600
     27 C15         5.9880   -0.1740    0.3870 c         1 KOV      0.730100
     28 C16         2.3410   -2.4500    0.3380 c         1 KOV      0.928800
     29 H1         -2.7200   -2.3190    2.2000 h1        1 KOV      0.057367
     30 H1A        -3.3160   -0.8920    3.2070 h1        1 KOV      0.057367
     31 H1B        -4.5280   -1.9680    2.3420 h1        1 KOV      0.057367
     32 HN2        -1.3930    0.6310    0.1070 hn        1 KOV      0.340500
     33 H4         -6.4520    2.1830    1.1090 ha        1 KOV      0.168000
     34 HN4         6.2920   -1.5040   -1.0970 hn        1 KOV      0.336000
     35 HN4A        4.7180   -1.5820   -0.4470 hn        1 KOV      0.336000
     36 H5         -7.0770    4.5350   -0.1100 ha        1 KOV      0.157000
     37 H6         -5.0570    4.8890   -2.0440 h4        1 KOV      0.053100
     38 H8         -0.9690    0.1390   -2.8020 h1        1 KOV      0.113700
     39 H9          1.2990    0.9700   -2.4620 h2        1 KOV      0.092700
     40 H13         3.4330    1.7770   -0.5860 h1        1 KOV      0.074700
     41 H13A        2.9230    2.0690    1.1280 h1        1 KOV      0.074700
     42 H14         3.9920   -1.4110    1.7120 h1        1 KOV      0.071200
     43 H14A        3.5390    0.1640    2.5450 h1        1 KOV      0.071200
     44 O4         -0.4270   -2.4580   -1.3910 o         1 KOV     -0.501500
@<TRIPOS>BOND
     1    1   21 1   
     2    1   25 1   
     3    2    4 1   
     4    2   29 1   
     5    2   30 1   
     6    2   31 1   
     7    3    4 1   
     8    3    5 2   
     9    5    8 1   
    10    5   17 1   
    11    6   17 1   
    12    6   19 1   
    13    6   32 1   
    14    7    8 1   
    15    7   15 1   
    16    8   11 2   
    17    9   21 1   
    18    9   22 1   
    19    9   23 1   
    20   10   17 2   
    21   11   13 1   
    22   11   33 1   
    23   12   27 1   
    24   12   34 1   
    25   12   35 1   
    26   13   15 2   
    27   13   36 1   
    28   14   26 1   
    29   14   27 1   
    30   15   37 1   
    31   16   27 2   
    32   18   28 1   
    33   19   21 1   
    34   19   22 1   
    35   19   38 1   
    36   20   28 1   
    37   21   39 1   
    38   22   44 2   
    39   23   24 2   
    40   23   28 1   
    41   24   25 1   
    42   24   26 1   
    43   25   40 1   
    44   25   41 1   
    45   26   42 1   
    46   26   43 1   
@<TRIPOS>SUBSTRUCTURE
     1 KOV         1 TEMP              0 ****  ****    0 ROOT
