@<TRIPOS>MOLECULE
KOV
   46    47     1     0     0
SMALL
bcc


@<TRIPOS>ATOM
      1 S           1.5430    1.8370   -0.5780 ss        1 KOV      0.727000
      2 C1          2.3280   -8.2880   -2.5060 c3        1 KOV     -0.059000
      3 N1          1.4150   -6.6080   -1.1850 n2        1 KOV      0.061000
      4 O1          2.5060   -7.0580   -1.7480 os        1 KOV     -0.212000
      5 C2          1.5420   -5.5330   -0.4450 c2        1 KOV     -0.178000
      6 N2          0.8590   -1.6260   -1.0520 n3        1 KOV     -0.349000
      7 O2         -0.4860   -4.2360   -0.7960 os        1 KOV     -0.258000
      8 C3          0.3230   -4.9710    0.2300 c3        1 KOV     -0.030000
      9 N3          0.7100    0.3520    1.4750 n         1 KOV     -0.155000
     10 O3          2.8360   -3.5740   -0.0450 o         1 KOV     -0.344000
     11 C4         -0.5920   -6.0120    0.8300 c1        1 KOV      0.030000
     12 N4         -2.4520    3.5060    4.9050 n4        1 KOV     -0.102000
     13 C5         -1.8310   -5.8450    0.1340 c2        1 KOV     -0.350000
     14 O5         -0.8370    4.0130    3.2550 os        1 KOV     -0.247000
     15 C6         -1.7210   -4.8240   -0.7930 c2        1 KOV      0.099000
     16 O6         -0.3640    4.4990    5.4500 o         1 KOV     -0.232000
     17 C7          2.8140   -4.8010   -0.1810 c2        1 KOV      0.246000
     18 O7          1.0080    0.1250    4.3430 o         1 KOV     -0.512000
     19 C8          1.4740   -1.0370    0.0550 cy        1 KOV      0.076000
     20 O8         -0.5340    1.7510    4.4820 o         1 KOV     -0.512000
     21 C9          1.2620    0.5110    0.2330 cv        1 KOV     -0.267000
     22 C10         0.7940   -1.1230    1.4850 cv        1 KOV      0.295000
     23 C11         0.5440    1.4060    2.3750 c2        1 KOV     -0.001000
     24 C12         0.6640    2.6930    1.9350 c2        1 KOV     -0.202000
     25 C13         0.9040    3.0860    0.5240 c3        1 KOV     -0.335000
     26 C14         0.5670    3.8320    2.8950 c3        1 KOV      0.069000
     27 C15        -1.0860    4.0240    4.5880 c2        1 KOV      0.402000
     28 C16         0.3240    1.0440    3.8740 c2        1 KOV      0.411000
     29 H1          3.3670   -8.4750   -2.8760 h1        1 KOV      0.105000
     30 H1A         1.9800   -9.1100   -1.8370 h1        1 KOV      0.105000
     31 H1B         1.6170   -8.1250   -3.3490 h1        1 KOV      0.105000
     32 HN2         3.7340   -5.4230   -0.1180 h4        1 KOV      0.141000
     33 H4          0.6020   -4.1890    0.9900 h1        1 KOV      0.167000
     34 HN4        -2.3720    2.4660    4.9140 hn        1 KOV      0.280667
     35 HN4A       -3.1220    3.7910    4.1910 hn        1 KOV      0.280667
     36 H5         -2.4290   -4.3960   -1.5090 h4        1 KOV      0.189000
     37 H6         -2.7200   -6.4510    0.3150 ha        1 KOV      0.186000
     38 H8         -0.1310   -1.7410   -0.9870 hn        1 KOV      0.216500
     39 H9          2.5690   -1.3060    0.1290 h1        1 KOV      0.203000
     40 H13         1.6480    3.9290    0.4750 h1        1 KOV      0.149500
     41 H13A       -0.0550    3.4650    0.0780 h1        1 KOV      0.149500
     42 H14         0.8520    4.8100    2.4230 h1        1 KOV      0.137500
     43 H14A        1.1790    3.6350    3.8170 h1        1 KOV      0.137500
     44 O4          0.3970   -1.9490    2.2640 o         1 KOV     -0.122000
     45 H22         1.3150   -2.4630   -1.3640 hn        1 KOV      0.216500
     46 H43        -2.7330    3.8380    5.8320 hn        1 KOV      0.280667
@<TRIPOS>BOND
     1    1   21 1   
     2    1   25 1   
     3    2    4 1   
     4    2   29 1   
     5    2   30 1   
     6    2   31 1   
     7    3    4 1   
     8    3    5 1   
     9    5    8 1   
    10    5   17 1   
    11    6   19 1   
    12    6   38 1   
    13    6   45 1   
    14    7    8 1   
    15    7   15 1   
    16    8   11 1   
    17    8   33 1   
    18    9   21 1   
    19    9   22 1   
    20    9   23 1   
    21   10   17 1   
    22   11   13 1   
    23   12   27 1   
    24   12   34 1   
    25   12   35 1   
    26   12   46 1   
    27   13   15 1   
    28   13   37 1   
    29   14   26 1   
    30   14   27 1   
    31   15   36 1   
    32   16   27 1   
    33   17   32 1   
    34   18   28 1   
    35   19   21 1   
    36   19   22 1   
    37   19   39 1   
    38   20   28 1   
    39   22   44 1   
    40   23   24 1   
    41   23   28 1   
    42   24   25 1   
    43   24   26 1   
    44   25   40 1   
    45   25   41 1   
    46   26   42 1   
    47   26   43 1   
@<TRIPOS>SUBSTRUCTURE
     1 KOV         1 TEMP              0 ****  ****    0 ROOT
