@<TRIPOS>MOLECULE
KOV
   46    47     1     0     0
SMALL
bcc


@<TRIPOS>ATOM
      1 S           2.0380    1.0740   -0.2210 s4        1 KOV      0.575700
      2 C1         -0.6810   -2.9590   -2.5430 c3        1 KOV      0.097700
      3 N1          0.9380   -5.8650   -1.2750 ne        1 KOV      0.091700
      4 O1          0.2050   -5.9370   -2.1550 o         1 KOV     -0.070300
      5 C2          0.8110   -4.7640   -0.2990 ce        1 KOV      0.021600
      6 N2          0.7380   -2.3220    0.2720 ny        1 KOV     -0.670800
      7 O2         -0.4570   -2.3450    3.0720 o         1 KOV     -0.574100
      8 C3          1.0020   -5.1650    1.0990 ce        1 KOV     -0.161100
      9 N3          2.9430   -0.4220    1.7900 n         1 KOV     -0.151200
     10 O3          0.6400   -3.0470   -1.9780 os        1 KOV     -0.329900
     11 C4          0.1010   -4.9590    2.0190 c1        1 KOV      0.050200
     12 N4         -3.5280    0.4580    0.4930 nz        1 KOV     -0.788400
     13 C5         -0.7500   -4.6990    2.9720 ce        1 KOV     -0.268300
     14 O5         -1.2440    0.9950    0.2150 o         1 KOV     -0.719800
     15 C6         -0.7670   -3.3910    3.6570 c         1 KOV      0.596100
     16 O6         -1.9000   -1.1700   -0.0230 o         1 KOV     -0.719800
     17 C7          0.6690   -3.4590   -0.6610 c2        1 KOV      0.151100
     18 O7          3.5410   -0.1990    4.9190 o         1 KOV     -0.513500
     19 C8          2.1310   -1.7750    0.3780 cy        1 KOV      0.155700
     20 O8          2.7470    1.8740    4.6480 os        1 KOV     -0.392900
     21 C9          2.2760   -0.2940    0.4950 cv        1 KOV     -0.915600
     22 C10         2.7200   -1.8290    1.8500 c         1 KOV      0.711500
     23 C11         2.6690    0.5780    2.7080 ce        1 KOV     -0.071600
     24 C12         2.1260    1.7960    2.3800 c2        1 KOV     -0.169400
     25 C13         1.5800    2.1820    1.0800 c3        1 KOV      0.021100
     26 C14         2.1730    2.6880    3.5890 c3        1 KOV      0.165600
     27 C15        -2.0450    0.0490    0.1950 c         1 KOV      0.922600
     28 C16         3.0580    0.6150    4.1530 c         1 KOV      0.730800
     29 H1         -1.1400   -3.9760   -2.5830 h1        1 KOV      0.072033
     30 H1A        -0.4800   -2.5680   -3.5730 h1        1 KOV      0.072033
     31 H1B        -1.3110   -2.2520   -1.9520 h1        1 KOV      0.072033
     32 HN2         0.4020   -2.6200    1.2050 hn        1 KOV      0.482800
     33 H4          1.9650   -5.6640    1.3330 ha        1 KOV      0.207000
     34 HN4        -3.7370    1.3410    0.0310 hn        1 KOV      0.439800
     35 HN4A       -4.1570   -0.2710    0.1620 hn        1 KOV      0.439800
     36 H5         -1.0950   -3.4000    4.7190 h4        1 KOV      0.048200
     37 H6         -1.5000   -5.4390    3.3070 ha        1 KOV      0.187000
     38 H8          0.9140    0.8680   -0.8400 hs        1 KOV      0.217000
     39 H9          2.7770   -2.2630   -0.4000 hx        1 KOV      0.136700
     40 H13         1.9600    3.1990    0.7870 h1        1 KOV      0.120200
     41 H13A        0.4610    2.2680    1.1580 h1        1 KOV      0.120200
     42 H14         1.1570    3.0030    3.9380 h1        1 KOV      0.088200
     43 H14A        2.8460    3.5710    3.4540 h1        1 KOV      0.088200
     44 O4          2.9410   -2.7310    2.6310 o         1 KOV     -0.487500
     45 H22         0.0990   -1.5800   -0.0680 hn        1 KOV      0.482800
     46 H43        -3.6450    0.5750    1.4960 hn        1 KOV      0.439800
@<TRIPOS>BOND
     1    1   21 2   
     2    1   25 1   
     3    1   38 1   
     4    2   10 1   
     5    2   29 1   
     6    2   30 1   
     7    2   31 1   
     8    3    4 2   
     9    3    5 1   
    10    5    8 1   
    11    5   17 2   
    12    6   17 1   
    13    6   19 1   
    14    6   32 1   
    15    6   45 1   
    16    7   15 2   
    17    8   11 2   
    18    8   33 1   
    19    9   21 1   
    20    9   22 1   
    21    9   23 1   
    22   10   17 1   
    23   11   13 2   
    24   12   27 1   
    25   12   34 1   
    26   12   35 1   
    27   12   46 1   
    28   13   15 1   
    29   13   37 1   
    30   14   27 1   
    31   15   36 1   
    32   16   27 1   
    33   18   28 2   
    34   19   21 1   
    35   19   22 1   
    36   19   39 1   
    37   20   26 1   
    38   20   28 1   
    39   22   44 2   
    40   23   24 2   
    41   23   28 1   
    42   24   25 1   
    43   24   26 1   
    44   25   40 1   
    45   25   41 1   
    46   26   42 1   
    47   26   43 1   
@<TRIPOS>SUBSTRUCTURE
     1 KOV         1 TEMP              0 ****  ****    0 ROOT
