@<TRIPOS>MOLECULE
KP1
   25    24     1     0     0
SMALL
bcc


@<TRIPOS>ATOM
      1 CAA        -0.0040   -0.1300    0.1020 c3        1 KP1     -0.120100
      2 CAH         1.5130   -0.0140    0.0610 c3        1 KP1      0.154800
      3 CAB         2.0550    0.1130    1.4860 c3        1 KP1     -0.120100
      4 OAE         2.0870   -1.1710   -0.5530 oh        1 KP1     -0.604800
      5 CAG         1.9860    1.1940   -0.7520 c3        1 KP1     -0.053400
      6 CAI         1.4350    1.3450   -2.1730 c3        1 KP1      0.154800
      7 CAC         2.1490    2.5140   -2.8530 c3        1 KP1     -0.120100
      8 CAD         1.6160    0.0840   -3.0050 c3        1 KP1     -0.120100
      9 OAF         0.0460    1.6610   -2.0420 oh        1 KP1     -0.604800
     10 H1         -0.3150   -0.9150    0.8320 hc        1 KP1      0.043867
     11 H2         -0.3940   -0.3980   -0.9090 hc        1 KP1      0.043867
     12 H3         -0.4490    0.8490    0.3990 hc        1 KP1      0.043867
     13 H4          1.7780   -0.7880    2.0830 hc        1 KP1      0.043867
     14 H5          3.1670    0.1980    1.4660 hc        1 KP1      0.043867
     15 H6          1.6270    1.0160    1.9790 hc        1 KP1      0.043867
     16 H7          1.7720   -1.9330   -0.0530 ho        1 KP1      0.397000
     17 H8          3.1040    1.1390   -0.8310 hc        1 KP1      0.057700
     18 H9          1.7090    2.1150   -0.1760 hc        1 KP1      0.057700
     19 H10         3.2360    2.2900   -2.9570 hc        1 KP1      0.043867
     20 H11         1.7190    2.6870   -3.8690 hc        1 KP1      0.043867
     21 H12         2.0210    3.4440   -2.2510 hc        1 KP1      0.043867
     22 H13         1.3580    0.2810   -4.0720 hc        1 KP1      0.043867
     23 H14         0.9580   -0.7300   -2.6150 hc        1 KP1      0.043867
     24 H15         2.6750   -0.2630   -2.9380 hc        1 KP1      0.043867
     25 H16        -0.3050    1.7360   -2.9360 ho        1 KP1      0.397000
@<TRIPOS>BOND
     1    1    2 1   
     2    1   10 1   
     3    1   11 1   
     4    1   12 1   
     5    2    3 1   
     6    2    4 1   
     7    2    5 1   
     8    3   13 1   
     9    3   14 1   
    10    3   15 1   
    11    4   16 1   
    12    5    6 1   
    13    5   17 1   
    14    5   18 1   
    15    6    7 1   
    16    6    8 1   
    17    6    9 1   
    18    7   19 1   
    19    7   20 1   
    20    7   21 1   
    21    8   22 1   
    22    8   23 1   
    23    8   24 1   
    24    9   25 1   
@<TRIPOS>SUBSTRUCTURE
     1 KP1         1 TEMP              0 ****  ****    0 ROOT
