@<TRIPOS>MOLECULE
KP1
   25    24     1     0     0
SMALL
bcc


@<TRIPOS>ATOM
      1 CAA        -0.0040   -0.1280    0.1030 c3        1 KP1     -0.120100
      2 CAH         1.5130   -0.0130    0.0620 c3        1 KP1      0.154800
      3 CAB         2.0560    0.1160    1.4860 c3        1 KP1     -0.120100
      4 OAE         2.0860   -1.1710   -0.5510 oh        1 KP1     -0.604800
      5 CAG         1.9870    1.1940   -0.7530 c3        1 KP1     -0.053400
      6 CAI         1.4350    1.3430   -2.1740 c3        1 KP1      0.154800
      7 CAC         2.1490    2.5110   -2.8560 c3        1 KP1     -0.120100
      8 CAD         1.6160    0.0810   -3.0040 c3        1 KP1     -0.120100
      9 OAF         0.0460    1.6610   -2.0420 oh        1 KP1     -0.604800
     10 H1         -0.3140   -0.9120    0.8350 hc        1 KP1      0.043867
     11 H2         -0.3940   -0.3980   -0.9070 hc        1 KP1      0.043867
     12 H3         -0.4490    0.8510    0.3990 hc        1 KP1      0.043867
     13 H4          1.7790   -0.7840    2.0840 hc        1 KP1      0.043867
     14 H5          3.1680    0.2010    1.4660 hc        1 KP1      0.043867
     15 H6          1.6270    1.0200    1.9790 hc        1 KP1      0.043867
     16 H7          1.7720   -1.9320   -0.0500 ho        1 KP1      0.397000
     17 H8          3.1040    1.1390   -0.8330 hc        1 KP1      0.057700
     18 H9          1.7090    2.1170   -0.1780 hc        1 KP1      0.057700
     19 H10         3.2360    2.2870   -2.9590 hc        1 KP1      0.043867
     20 H11         1.7190    2.6830   -3.8720 hc        1 KP1      0.043867
     21 H12         2.0220    3.4420   -2.2550 hc        1 KP1      0.043867
     22 H13         1.3570    0.2770   -4.0720 hc        1 KP1      0.043867
     23 H14         0.9570   -0.7320   -2.6130 hc        1 KP1      0.043867
     24 H15         2.6740   -0.2660   -2.9380 hc        1 KP1      0.043867
     25 H16        -0.3060    1.7340   -2.9370 ho        1 KP1      0.397000
@<TRIPOS>BOND
     1    1    2 1   
     2    1   10 1   
     3    1   11 1   
     4    1   12 1   
     5    2    3 1   
     6    2    4 1   
     7    2    5 1   
     8    3   13 1   
     9    3   14 1   
    10    3   15 1   
    11    4   16 1   
    12    5    6 1   
    13    5   17 1   
    14    5   18 1   
    15    6    7 1   
    16    6    8 1   
    17    6    9 1   
    18    7   19 1   
    19    7   20 1   
    20    7   21 1   
    21    8   22 1   
    22    8   23 1   
    23    8   24 1   
    24    9   25 1   
@<TRIPOS>SUBSTRUCTURE
     1 KP1         1 TEMP              0 ****  ****    0 ROOT
