@<TRIPOS>MOLECULE
KP2
   28    30     1     0     0
SMALL
bcc


@<TRIPOS>ATOM
      1 C1          0.0150   -0.1530    0.0200 ca        1 KP2     -0.125500
      2 C2          1.4070   -0.1020    0.0030 ca        1 KP2     -0.132500
      3 C3          2.1170    0.0860    1.1890 ca        1 KP2     -0.131000
      4 C4          1.4290    0.2260    2.3940 ca        1 KP2     -0.132500
      5 C5          0.0360    0.1750    2.4180 ca        1 KP2     -0.125500
      6 C6         -0.6840   -0.0200    1.2300 ca        1 KP2     -0.027800
      7 C7         -2.1300   -0.0530    1.2380 cc        1 KP2     -0.045400
      8 C8         -2.9950   -0.9120    2.0100 ca        1 KP2     -0.399400
      9 C9         -2.8410   -1.9920    2.9340 ca        1 KP2      0.760200
     10 N1         -1.5750   -2.3880    3.3290 nv        1 KP2     -0.952500
     11 N2         -3.9330   -2.6160    3.4600 nb        1 KP2     -0.839000
     12 C10        -5.1930   -2.1350    3.1060 ca        1 KP2      0.909900
     13 N3         -6.2850   -2.7050    3.7810 nv        1 KP2     -0.922500
     14 N4         -5.4740   -1.1330    2.1980 nb        1 KP2     -0.800000
     15 C11        -4.3590   -0.5450    1.6770 ca        1 KP2      0.506800
     16 N5         -4.3040    0.4840    0.7300 na        1 KP2     -0.286100
     17 C12        -2.9590    0.7750    0.4760 cd        1 KP2     -0.122100
     18 H1         -0.5440   -0.3010   -0.9160 ha        1 KP2      0.142000
     19 H2          1.9470   -0.2100   -0.9500 ha        1 KP2      0.133000
     20 H3          3.2160    0.1280    1.1730 ha        1 KP2      0.132000
     21 H4          1.9850    0.3830    3.3300 ha        1 KP2      0.133000
     22 H5         -0.5050    0.2990    3.3680 ha        1 KP2      0.142000
     23 H6         -0.8220   -2.1020    2.7490 hn        1 KP2      0.430800
     24 H7         -1.4740   -3.2390    3.8270 hn        1 KP2      0.430800
     25 H8         -6.1210   -3.5880    4.2080 hn        1 KP2      0.419800
     26 H9         -7.1710   -2.5970    3.3440 hn        1 KP2      0.419800
     27 H10        -5.0830    0.9540    0.3510 hn        1 KP2      0.309700
     28 H11        -2.6880    1.5600   -0.2310 h4        1 KP2      0.172000
@<TRIPOS>BOND
     1    1    2 ar  
     2    1    6 ar  
     3    1   18 1   
     4    2    3 ar  
     5    2   19 1   
     6    3    4 ar  
     7    3   20 1   
     8    4    5 ar  
     9    4   21 1   
    10    5    6 ar  
    11    5   22 1   
    12    6    7 1   
    13    7    8 1   
    14    7   17 2   
    15    8    9 ar  
    16    8   15 ar  
    17    9   10 1   
    18    9   11 ar  
    19   10   23 1   
    20   10   24 1   
    21   11   12 ar  
    22   12   13 1   
    23   12   14 ar  
    24   13   25 1   
    25   13   26 1   
    26   14   15 ar  
    27   15   16 1   
    28   16   17 1   
    29   16   27 1   
    30   17   28 1   
@<TRIPOS>SUBSTRUCTURE
     1 KP2         1 TEMP              0 ****  ****    0 ROOT
