@<TRIPOS>MOLECULE
KP3
   76    81     1     0     0
SMALL
bcc


@<TRIPOS>ATOM
      1 O2         -0.4860    1.5600    1.3620 o         1 KP3     -0.581500
      2 C7          0.6710    1.2150    1.1540 c         1 KP3      0.744200
      3 C6          1.7310    0.6740    2.0150 ca        1 KP3     -0.285600
      4 C1          1.7350    0.3700    3.3700 ca        1 KP3      0.227100
      5 O3          0.6510    0.5550    4.1820 oh        1 KP3     -0.486100
      6 O1          1.1510    1.3310   -0.1450 os        1 KP3     -0.404900
      7 C9          2.5340    0.8770   -0.1930 c3        1 KP3      0.165700
      8 C5          2.8790    0.4630    1.2090 ca        1 KP3     -0.055300
      9 C4          4.0470   -0.0470    1.7400 ca        1 KP3     -0.103300
     10 C12         5.2440   -0.2860    0.9050 c3        1 KP3     -0.052800
     11 C3          4.0390   -0.3480    3.1300 ca        1 KP3      0.154100
     12 O4          5.1540   -0.9610    3.6910 os        1 KP3     -0.344900
     13 C14         6.2120   -0.0540    4.0070 c3        1 KP3      0.115700
     14 C2          2.9220   -0.1530    3.9510 ca        1 KP3     -0.117300
     15 C15         2.9590   -0.4860    5.4040 c3        1 KP3      0.004100
     16 C16         2.7840   -1.9440    5.6330 c2        1 KP3     -0.128200
     17 C17         1.7420   -2.4970    6.2690 c2        1 KP3     -0.147400
     18 C18         0.6100   -1.7220    6.8260 c3        1 KP3     -0.064900
     19 C19         1.6660   -3.9920    6.4220 c3        1 KP3      0.092500
     20 N1          1.8280   -4.4580    7.7870 na        1 KP3      0.048400
     21 C24         0.7800   -4.6900    8.6900 cc        1 KP3     -0.190600
     22 C23         1.4310   -5.0430    9.8850 cd        1 KP3      0.234600
     23 N3          2.8240   -4.9870    9.6220 nd        1 KP3     -0.353000
     24 N2          3.0160   -4.6390    8.4170 nc        1 KP3     -0.163800
     25 C25         0.8580   -5.4210   11.1940 c3        1 KP3      0.118100
     26 O5         -0.5670   -5.3280   11.0730 os        1 KP3     -0.422600
     27 C27        -1.2210   -5.6600   12.2930 c3        1 KP3      0.108400
     28 C28        -2.7030   -5.3400   12.1020 c3        1 KP3      0.092100
     29 C32        -3.5120   -5.7260   13.3610 c3        1 KP3      0.129100
     30 O7         -4.2910   -4.6520   13.8240 oh        1 KP3     -0.573800
     31 C31        -4.3370   -6.9650   12.9440 c3        1 KP3      0.081100
     32 O8         -5.7070   -6.6390   13.0350 oh        1 KP3     -0.592800
     33 C30        -3.9730   -7.2100   11.4400 c3        1 KP3      0.221800
     34 O6         -3.2420   -6.0670   10.9910 os        1 KP3     -0.390600
     35 N4         -3.2090   -8.4160   11.2170 na        1 KP3     -0.296000
     36 C39        -3.6570   -9.7180   11.4860 ca        1 KP3      0.449800
     37 N6         -4.8100  -10.1640   12.0720 nb        1 KP3     -0.759000
     38 C41        -4.8620  -11.5150   12.1460 ca        1 KP3      0.689900
     39 N7         -3.9640  -12.4510   11.7410 nb        1 KP3     -0.796000
     40 C43        -2.7980  -12.0070   11.1580 ca        1 KP3      0.765200
     41 N8         -1.8350  -12.8890   10.7470 nv        1 KP3     -0.958500
     42 C38        -2.5980  -10.5940   11.0010 ca        1 KP3     -0.229200
     43 N5         -1.5560   -9.8290   10.4540 nc        1 KP3     -0.548100
     44 C36        -1.9450   -8.5540   10.5900 cd        1 KP3      0.421700
     45 H1         -0.0720    0.9270    3.6440 ho        1 KP3      0.454000
     46 H2          3.1440    1.7420   -0.5540 h1        1 KP3      0.083200
     47 H3          2.5710    0.0250   -0.9180 h1        1 KP3      0.083200
     48 H4          4.9450   -0.5850   -0.1310 hc        1 KP3      0.053367
     49 H5          5.8610    0.6460    0.8360 hc        1 KP3      0.053367
     50 H6          5.8750   -1.0980    1.3440 hc        1 KP3      0.053367
     51 H7          5.8740    0.6840    4.7740 h1        1 KP3      0.046367
     52 H8          7.0120   -0.7190    4.4190 h1        1 KP3      0.046367
     53 H9          6.5640    0.4720    3.0870 h1        1 KP3      0.046367
     54 H10         3.9620   -0.1850    5.8200 hc        1 KP3      0.069200
     55 H11         2.1730    0.1090    5.9450 hc        1 KP3      0.069200
     56 H12         3.6050   -2.5640    5.2310 ha        1 KP3      0.139000
     57 H13        -0.2110   -2.3940    7.1770 hc        1 KP3      0.049367
     58 H14         0.1920   -1.0270    6.0510 hc        1 KP3      0.049367
     59 H15         0.9510   -1.1060    7.6970 hc        1 KP3      0.049367
     60 H16         2.4560   -4.4870    5.7860 h1        1 KP3      0.073200
     61 H17         0.6530   -4.3450    6.0710 h1        1 KP3      0.073200
     62 H18        -0.2750   -4.6040    8.4380 h4        1 KP3      0.201000
     63 H19         1.2130   -4.7220   12.0000 h1        1 KP3      0.050200
     64 H20         1.1410   -6.4760   11.4640 h1        1 KP3      0.050200
     65 H21        -0.8110   -5.0450   13.1380 h1        1 KP3      0.042700
     66 H22        -1.0690   -6.7520   12.5100 h1        1 KP3      0.042700
     67 H23        -2.8380   -4.2580   11.8290 h1        1 KP3      0.106700
     68 H24        -2.8330   -5.9740   14.2230 h1        1 KP3      0.092700
     69 H25        -5.0510   -4.5500   13.2330 ho        1 KP3      0.426000
     70 H26        -4.0930   -7.8460   13.5930 h1        1 KP3      0.084700
     71 H27        -6.1950   -7.4730   13.0080 ho        1 KP3      0.433000
     72 H28        -4.9060   -7.2450   10.8010 h2        1 KP3      0.106700
     73 H29        -5.7820  -11.9300   12.6110 h5        1 KP3      0.051100
     74 H30        -1.9830  -13.8650   10.8100 hn        1 KP3      0.450800
     75 H31        -1.0350  -12.5400   10.2820 hn        1 KP3      0.450800
     76 H32        -1.3850   -7.6600   10.2720 h5        1 KP3      0.097800
@<TRIPOS>BOND
     1    1    2 2   
     2    2    3 1   
     3    2    6 1   
     4    3    4 ar  
     5    3    8 ar  
     6    4    5 1   
     7    4   14 ar  
     8    5   45 1   
     9    6    7 1   
    10    7    8 1   
    11    7   46 1   
    12    7   47 1   
    13    8    9 ar  
    14    9   10 1   
    15    9   11 ar  
    16   10   48 1   
    17   10   49 1   
    18   10   50 1   
    19   11   12 1   
    20   11   14 ar  
    21   12   13 1   
    22   13   51 1   
    23   13   52 1   
    24   13   53 1   
    25   14   15 1   
    26   15   16 1   
    27   15   54 1   
    28   15   55 1   
    29   16   17 2   
    30   16   56 1   
    31   17   18 1   
    32   17   19 1   
    33   18   57 1   
    34   18   58 1   
    35   18   59 1   
    36   19   20 1   
    37   19   60 1   
    38   19   61 1   
    39   20   21 1   
    40   20   24 1   
    41   21   22 2   
    42   21   62 1   
    43   22   23 1   
    44   22   25 1   
    45   23   24 2   
    46   25   26 1   
    47   25   63 1   
    48   25   64 1   
    49   26   27 1   
    50   27   28 1   
    51   27   65 1   
    52   27   66 1   
    53   28   29 1   
    54   28   34 1   
    55   28   67 1   
    56   29   30 1   
    57   29   31 1   
    58   29   68 1   
    59   30   69 1   
    60   31   32 1   
    61   31   33 1   
    62   31   70 1   
    63   32   71 1   
    64   33   34 1   
    65   33   35 1   
    66   33   72 1   
    67   35   36 1   
    68   35   44 1   
    69   36   37 ar  
    70   36   42 ar  
    71   37   38 ar  
    72   38   39 ar  
    73   38   73 1   
    74   39   40 ar  
    75   40   41 1   
    76   40   42 ar  
    77   41   74 1   
    78   41   75 1   
    79   42   43 1   
    80   43   44 2   
    81   44   76 1   
@<TRIPOS>SUBSTRUCTURE
     1 KP3         1 TEMP              0 ****  ****    0 ROOT
