@<TRIPOS>MOLECULE
KP3
   76    81     1     0     0
SMALL
bcc


@<TRIPOS>ATOM
      1 O2         -0.5200    1.5700    1.3810 o         1 KP3     -0.581500
      2 C7          0.6380    1.2300    1.1670 c         1 KP3      0.744200
      3 C6          1.7030    0.6880    2.0220 ca        1 KP3     -0.285600
      4 C1          1.7130    0.3780    3.3750 ca        1 KP3      0.227100
      5 O3          0.6320    0.5560    4.1920 oh        1 KP3     -0.486100
      6 O1          1.1130    1.3530   -0.1330 os        1 KP3     -0.404900
      7 C9          2.4970    0.9040   -0.1880 c3        1 KP3      0.165700
      8 C5          2.8480    0.4850    1.2110 ca        1 KP3     -0.055300
      9 C4          4.0200   -0.0250    1.7350 ca        1 KP3     -0.103300
     10 C12         5.2140   -0.2560    0.8940 c3        1 KP3     -0.052800
     11 C3          4.0180   -0.3320    3.1240 ca        1 KP3      0.154100
     12 O4          5.1370   -0.9440    3.6780 os        1 KP3     -0.344900
     13 C14         6.1930   -0.0350    3.9940 c3        1 KP3      0.115700
     14 C2          2.9030   -0.1440    3.9500 ca        1 KP3     -0.117300
     15 C15         2.9470   -0.4830    5.4010 c3        1 KP3      0.004100
     16 C16         2.7750   -1.9430    5.6240 c2        1 KP3     -0.128200
     17 C17         1.7370   -2.5010    6.2620 c2        1 KP3     -0.147400
     18 C18         0.6060   -1.7300    6.8280 c3        1 KP3     -0.064900
     19 C19         1.6640   -3.9960    6.4090 c3        1 KP3      0.092500
     20 N1          1.8350   -4.4680    7.7710 na        1 KP3      0.048400
     21 C24         0.7920   -4.7030    8.6790 cc        1 KP3     -0.190600
     22 C23         1.4510   -5.0620    9.8690 cd        1 KP3      0.234600
     23 N3          2.8430   -5.0050    9.5970 nd        1 KP3     -0.353000
     24 N2          3.0270   -4.6530    8.3930 nc        1 KP3     -0.163800
     25 C25         0.8860   -5.4440   11.1800 c3        1 KP3      0.118100
     26 O5         -0.5390   -5.3430   11.0710 os        1 KP3     -0.422600
     27 C27        -1.1860   -5.6780   12.2950 c3        1 KP3      0.108400
     28 C28        -2.6670   -5.3490   12.1170 c3        1 KP3      0.092100
     29 C32        -3.4680   -5.7330   13.3810 c3        1 KP3      0.129100
     30 O7         -4.2370   -4.6570   13.8540 oh        1 KP3     -0.573800
     31 C31        -4.3040   -6.9670   12.9670 c3        1 KP3      0.081100
     32 O8         -5.6700   -6.6330   13.0710 oh        1 KP3     -0.592800
     33 C30        -3.9530   -7.2090   11.4600 c3        1 KP3      0.221800
     34 O6         -3.2190   -6.0700   11.0080 os        1 KP3     -0.390600
     35 N4         -3.1980   -8.4200   11.2270 na        1 KP3     -0.296000
     36 C39        -3.6520   -9.7190   11.4960 ca        1 KP3      0.449800
     37 N6         -4.8020  -10.1600   12.0910 nb        1 KP3     -0.759000
     38 C41        -4.8600  -11.5110   12.1620 ca        1 KP3      0.689900
     39 N7         -3.9720  -12.4510   11.7460 nb        1 KP3     -0.796000
     40 C43        -2.8080  -12.0120   11.1540 ca        1 KP3      0.765200
     41 N8         -1.8540  -12.8990   10.7330 nh        1 KP3     -0.958500
     42 C38        -2.6020  -10.6000   11.0000 ca        1 KP3     -0.229200
     43 N5         -1.5600   -9.8400   10.4460 nc        1 KP3     -0.548100
     44 C36        -1.9400   -8.5630   10.5890 cd        1 KP3      0.421700
     45 H1         -0.0950    0.9270    3.6590 ho        1 KP3      0.454000
     46 H2          2.5330    0.0560   -0.9170 h1        1 KP3      0.083200
     47 H3          3.1030    1.7720   -0.5470 h1        1 KP3      0.083200
     48 H4          5.8500   -1.0680    1.3280 hc        1 KP3      0.053367
     49 H5          4.9130   -0.5510   -0.1410 hc        1 KP3      0.053367
     50 H6          5.8280    0.6780    0.8280 hc        1 KP3      0.053367
     51 H7          6.5400    0.4960    3.0750 h1        1 KP3      0.046367
     52 H8          6.9970   -0.6990    4.4000 h1        1 KP3      0.046367
     53 H9          5.8550    0.6980    4.7660 h1        1 KP3      0.046367
     54 H10         2.1620    0.1070    5.9480 hc        1 KP3      0.069200
     55 H11         3.9510   -0.1830    5.8150 hc        1 KP3      0.069200
     56 H12         3.5950   -2.5600    5.2150 ha        1 KP3      0.139000
     57 H13         0.9500   -1.1170    7.6990 hc        1 KP3      0.049367
     58 H14        -0.2120   -2.4050    7.1800 hc        1 KP3      0.049367
     59 H15         0.1830   -1.0330    6.0580 hc        1 KP3      0.049367
     60 H16         2.4520   -4.4870    5.7660 h1        1 KP3      0.073200
     61 H17         0.6500   -4.3490    6.0620 h1        1 KP3      0.073200
     62 H18        -0.2640   -4.6150    8.4360 h4        1 KP3      0.201000
     63 H19         1.1660   -6.5020   11.4420 h1        1 KP3      0.050200
     64 H20         1.2510   -4.7520   11.9880 h1        1 KP3      0.050200
     65 H21        -0.7650   -5.0690   13.1390 h1        1 KP3      0.042700
     66 H22        -1.0380   -6.7710   12.5060 h1        1 KP3      0.042700
     67 H23        -2.7980   -4.2650   11.8480 h1        1 KP3      0.106700
     68 H24        -2.7840   -5.9890   14.2370 h1        1 KP3      0.092700
     69 H25        -5.0000   -4.5490   13.2700 ho        1 KP3      0.426000
     70 H26        -4.0590   -7.8510   13.6120 h1        1 KP3      0.084700
     71 H27        -6.1640   -7.4650   13.0450 ho        1 KP3      0.433000
     72 H28        -4.8920   -7.2370   10.8280 h2        1 KP3      0.106700
     73 H29        -5.7790  -11.9230   12.6330 h5        1 KP3      0.051100
     74 H30        -1.0560  -12.5530   10.2620 hn        1 KP3      0.450800
     75 H31        -2.0070  -13.8740   10.7940 hn        1 KP3      0.450800
     76 H32        -1.3780   -7.6710   10.2680 h5        1 KP3      0.097800
@<TRIPOS>BOND
     1    1    2 2   
     2    2    3 1   
     3    2    6 1   
     4    3    4 ar  
     5    3    8 ar  
     6    4    5 1   
     7    4   14 ar  
     8    5   45 1   
     9    6    7 1   
    10    7    8 1   
    11    7   46 1   
    12    7   47 1   
    13    8    9 ar  
    14    9   10 1   
    15    9   11 ar  
    16   10   48 1   
    17   10   49 1   
    18   10   50 1   
    19   11   12 1   
    20   11   14 ar  
    21   12   13 1   
    22   13   51 1   
    23   13   52 1   
    24   13   53 1   
    25   14   15 1   
    26   15   16 1   
    27   15   54 1   
    28   15   55 1   
    29   16   17 2   
    30   16   56 1   
    31   17   18 1   
    32   17   19 1   
    33   18   57 1   
    34   18   58 1   
    35   18   59 1   
    36   19   20 1   
    37   19   60 1   
    38   19   61 1   
    39   20   21 1   
    40   20   24 1   
    41   21   22 2   
    42   21   62 1   
    43   22   23 1   
    44   22   25 1   
    45   23   24 2   
    46   25   26 1   
    47   25   63 1   
    48   25   64 1   
    49   26   27 1   
    50   27   28 1   
    51   27   65 1   
    52   27   66 1   
    53   28   29 1   
    54   28   34 1   
    55   28   67 1   
    56   29   30 1   
    57   29   31 1   
    58   29   68 1   
    59   30   69 1   
    60   31   32 1   
    61   31   33 1   
    62   31   70 1   
    63   32   71 1   
    64   33   34 1   
    65   33   35 1   
    66   33   72 1   
    67   35   36 1   
    68   35   44 1   
    69   36   37 ar  
    70   36   42 ar  
    71   37   38 ar  
    72   38   39 ar  
    73   38   73 1   
    74   39   40 ar  
    75   40   41 1   
    76   40   42 ar  
    77   41   74 1   
    78   41   75 1   
    79   42   43 1   
    80   43   44 2   
    81   44   76 1   
@<TRIPOS>SUBSTRUCTURE
     1 KP3         1 TEMP              0 ****  ****    0 ROOT
