@<TRIPOS>MOLECULE
KPA
   18    17     1     0     0
SMALL
bcc


@<TRIPOS>ATOM
      1 OA          0.0810   -0.8070    0.2330 o         1 KPA     -0.613100
      2 CA          1.1700   -0.2410    0.0540 c         1 KPA      0.485100
      3 C           2.0750    0.0880    1.2490 c         1 KPA      0.831600
      4 OXT         2.9330   -0.7700    1.6160 o         1 KPA     -0.862800
      5 O           1.9340    1.2020    1.8370 o         1 KPA     -0.862800
      6 CB          1.7100    0.1490   -1.2900 c3        1 KPA     -0.175400
      7 CG          0.8630   -0.1950   -2.5100 c3        1 KPA     -0.032400
      8 CP          1.6590   -0.1850   -3.7740 c3        1 KPA     -0.276600
      9 P           0.6510    0.1740   -5.2190 p5        1 KPA      1.222700
     10 O1         -0.4120    1.1620   -4.7810 o         1 KPA     -0.971167
     11 O2          1.6630    0.7640   -6.1890 o         1 KPA     -0.971167
     12 O3          0.1090   -1.1690   -5.6680 o         1 KPA     -0.971167
     13 HB1         1.8960    1.2560   -1.2650 hc        1 KPA      0.043700
     14 HB2         2.7130   -0.3510   -1.3850 hc        1 KPA      0.043700
     15 HG1         0.3980   -1.2020   -2.3260 hc        1 KPA      0.044200
     16 HG2         0.0250    0.5470   -2.6260 hc        1 KPA      0.044200
     17 HP1         2.4460    0.6010   -3.7400 hc        1 KPA      0.011200
     18 HP2         2.1580   -1.1630   -3.9430 hc        1 KPA      0.011200
@<TRIPOS>BOND
     1    1    2 2   
     2    2    3 1   
     3    2    6 1   
     4    3    4 1   
     5    3    5 1   
     6    6    7 1   
     7    6   13 1   
     8    6   14 1   
     9    7    8 1   
    10    7   15 1   
    11    7   16 1   
    12    8    9 1   
    13    8   17 1   
    14    8   18 1   
    15    9   10 1   
    16    9   11 1   
    17    9   12 1   
@<TRIPOS>SUBSTRUCTURE
     1 KPA         1 TEMP              0 ****  ****    0 ROOT
