@<TRIPOS>MOLECULE
KPA
   18    17     1     0     0
SMALL
bcc


@<TRIPOS>ATOM
      1 OA          0.0690   -0.7020    0.2580 o         1 KPA     -0.613100
      2 CA          1.1850   -0.1980    0.0600 c         1 KPA      0.485100
      3 C           2.1200    0.1000    1.2390 c         1 KPA      0.831600
      4 OXT         2.9340   -0.7980    1.6100 o         1 KPA     -0.862800
      5 O           2.0460    1.2280    1.8110 o         1 KPA     -0.862800
      6 CB          1.7290    0.1420   -1.2970 c3        1 KPA     -0.175400
      7 CG          0.8500   -0.1740   -2.5020 c3        1 KPA     -0.032400
      8 CP          1.6300   -0.2250   -3.7740 c3        1 KPA     -0.276600
      9 P           0.6270    0.1660   -5.2140 p5        1 KPA      1.222700
     10 O1         -0.3780    1.2150   -4.7800 o         1 KPA     -0.971167
     11 O2          1.6560    0.6870   -6.2030 o         1 KPA     -0.971167
     12 O3          0.0090   -1.1530   -5.6360 o         1 KPA     -0.971167
     13 HB1         1.9740    1.2380   -1.2910 hc        1 KPA      0.043700
     14 HB2         2.7020   -0.4120   -1.3940 hc        1 KPA      0.043700
     15 HG1         0.3340   -1.1520   -2.2970 hc        1 KPA      0.044200
     16 HG2         0.0510    0.6100   -2.6200 hc        1 KPA      0.044200
     17 HP1         2.4590    0.5180   -3.7610 hc        1 KPA      0.011200
     18 HP2         2.0740   -1.2310   -3.9340 hc        1 KPA      0.011200
@<TRIPOS>BOND
     1    1    2 2   
     2    2    3 1   
     3    2    6 1   
     4    3    4 1   
     5    3    5 1   
     6    6    7 1   
     7    6   13 1   
     8    6   14 1   
     9    7    8 1   
    10    7   15 1   
    11    7   16 1   
    12    8    9 1   
    13    8   17 1   
    14    8   18 1   
    15    9   10 1   
    16    9   11 1   
    17    9   12 1   
@<TRIPOS>SUBSTRUCTURE
     1 KPA         1 TEMP              0 ****  ****    0 ROOT
