@<TRIPOS>MOLECULE
KPA
   18    17     1     0     0
SMALL
bcc


@<TRIPOS>ATOM
      1 OA          2.4250   -1.4670   -0.6460 o         1 KPA     -0.613100
      2 CA          2.4330   -0.3160   -0.1860 c         1 KPA      0.485100
      3 C           3.7630    0.4040    0.0740 c         1 KPA      0.831600
      4 OXT         4.2670    1.1040   -0.8550 o         1 KPA     -0.862800
      5 O           4.3220    0.2710    1.2040 o         1 KPA     -0.862800
      6 CB          1.1980    0.4750    0.1340 c3        1 KPA     -0.175400
      7 CG         -0.1460   -0.1850   -0.1460 c3        1 KPA     -0.032400
      8 CP         -1.2600    0.8080   -0.2260 c3        1 KPA     -0.276600
      9 P          -2.8520    0.0940    0.2050 p5        1 KPA      1.222700
     10 O1         -2.5960   -0.9320    1.2920 o         1 KPA     -0.971167
     11 O2         -3.6370    1.3030    0.6870 o         1 KPA     -0.971167
     12 O3         -3.3890   -0.4870   -1.0890 o         1 KPA     -0.971167
     13 HB1         1.2570    0.7560    1.2200 hc        1 KPA      0.043700
     14 HB2         1.2720    1.4280   -0.4570 hc        1 KPA      0.043700
     15 HG1        -0.0450   -0.7660   -1.1030 hc        1 KPA      0.044200
     16 HG2        -0.3990   -0.9200    0.6680 hc        1 KPA      0.044200
     17 HP1        -1.0920    1.6490    0.4840 hc        1 KPA      0.011200
     18 HP2        -1.3450    1.2350   -1.2480 hc        1 KPA      0.011200
@<TRIPOS>BOND
     1    1    2 2   
     2    2    3 1   
     3    2    6 1   
     4    3    4 1   
     5    3    5 1   
     6    6    7 1   
     7    6   13 1   
     8    6   14 1   
     9    7    8 1   
    10    7   15 1   
    11    7   16 1   
    12    8    9 1   
    13    8   17 1   
    14    8   18 1   
    15    9   10 1   
    16    9   11 1   
    17    9   12 1   
@<TRIPOS>SUBSTRUCTURE
     1 KPA         1 TEMP              0 ****  ****    0 ROOT
