@<TRIPOS>MOLECULE
KPC
   20    19     1     0     0
SMALL
bcc


@<TRIPOS>ATOM
      1 CAK         1.4670    0.8640   -1.0680 c3        1 KPC     -0.207100
      2 CAJ         1.5330   -0.3670   -0.2250 c         1 KPC      0.581100
      3 OAC         0.8740   -0.4860    0.8170 o         1 KPC     -0.562100
      4 CAI         2.4290   -1.4660   -0.7110 c3        1 KPC     -0.133300
      5 SAH         4.1310   -1.0050   -0.7150 ss        1 KPC     -0.324200
      6 CAG         4.3900   -0.4780   -2.3980 c3        1 KPC      0.058700
      7 CAF         5.7500    0.1160   -2.4850 c3        1 KPC     -0.279600
      8 SAE         6.0120    0.9500   -4.0610 s6        1 KPC      1.427800
      9 OAD         6.1580   -0.0970   -4.9970 o         1 KPC     -0.746867
     10 OAL         7.1830    1.7070   -3.8470 o         1 KPC     -0.746867
     11 OAB         4.8430    1.7250   -4.2470 o         1 KPC     -0.746867
     12 HAK1        0.6770    1.5590   -0.6930 hc        1 KPC      0.071700
     13 HAK2        2.4550    1.3900   -1.0400 hc        1 KPC      0.071700
     14 HAK3        1.2450    0.5950   -2.1290 hc        1 KPC      0.071700
     15 HAI1        2.3380   -2.3520   -0.0330 h1        1 KPC      0.084700
     16 HAI2        2.1050   -1.7710   -1.7360 h1        1 KPC      0.084700
     17 HAG1        4.2920   -1.3560   -3.0820 h1        1 KPC      0.067700
     18 HAG2        3.6130    0.2780   -2.6810 h1        1 KPC      0.067700
     19 HAF1        6.5340   -0.6700   -2.3700 h1        1 KPC      0.079200
     20 HAF2        5.9070    0.8640   -1.6710 h1        1 KPC      0.079200
@<TRIPOS>BOND
     1    1    2 1   
     2    1   12 1   
     3    1   13 1   
     4    1   14 1   
     5    2    3 2   
     6    2    4 1   
     7    4    5 1   
     8    4   15 1   
     9    4   16 1   
    10    5    6 1   
    11    6    7 1   
    12    6   17 1   
    13    6   18 1   
    14    7    8 1   
    15    7   19 1   
    16    7   20 1   
    17    8    9 1   
    18    8   10 1   
    19    8   11 1   
@<TRIPOS>SUBSTRUCTURE
     1 KPC         1 TEMP              0 ****  ****    0 ROOT
