@<TRIPOS>MOLECULE
KPC
   20    19     1     0     0
SMALL
bcc


@<TRIPOS>ATOM
      1 CAK         1.4630    0.8530   -1.0650 c3        1 KPC     -0.207100
      2 CAJ         1.6210   -0.2820   -0.1060 c         1 KPC      0.581100
      3 OAC         1.0090   -0.3240    0.9700 o         1 KPC     -0.562100
      4 CAI         2.5500   -1.3840   -0.5180 c3        1 KPC     -0.133300
      5 SAH         4.2260   -0.8510   -0.6400 ss        1 KPC     -0.324200
      6 CAG         4.3950   -0.4880   -2.3770 c3        1 KPC      0.058700
      7 CAF         5.7210    0.1530   -2.5820 c3        1 KPC     -0.279600
      8 SAE         5.8830    0.8320   -4.2430 s6        1 KPC      1.427800
      9 OAD         6.0410   -0.2980   -5.0740 o         1 KPC     -0.746867
     10 OAL         7.0240    1.6570   -4.1560 o         1 KPC     -0.746867
     11 OAB         4.6730    1.5340   -4.4550 o         1 KPC     -0.746867
     12 HAK1        0.6550    1.5460   -0.7280 hc        1 KPC      0.071700
     13 HAK2        2.4250    1.4220   -1.1310 hc        1 KPC      0.071700
     14 HAK3        1.2150    0.4660   -2.0830 hc        1 KPC      0.071700
     15 HAI1        2.5270   -2.1990    0.2490 h1        1 KPC      0.084700
     16 HAI2        2.2020   -1.8070   -1.4920 h1        1 KPC      0.084700
     17 HAG1        4.3130   -1.4340   -2.9650 h1        1 KPC      0.067700
     18 HAG2        3.5730    0.2010   -2.7010 h1        1 KPC      0.067700
     19 HAF1        6.5450   -0.5820   -2.4210 h1        1 KPC      0.079200
     20 HAF2        5.8730    0.9870   -1.8540 h1        1 KPC      0.079200
@<TRIPOS>BOND
     1    1    2 1   
     2    1   12 1   
     3    1   13 1   
     4    1   14 1   
     5    2    3 2   
     6    2    4 1   
     7    4    5 1   
     8    4   15 1   
     9    4   16 1   
    10    5    6 1   
    11    6    7 1   
    12    6   17 1   
    13    6   18 1   
    14    7    8 1   
    15    7   19 1   
    16    7   20 1   
    17    8    9 1   
    18    8   10 1   
    19    8   11 1   
@<TRIPOS>SUBSTRUCTURE
     1 KPC         1 TEMP              0 ****  ****    0 ROOT
