@<TRIPOS>MOLECULE
KPC
   20    19     1     0     0
SMALL
bcc


@<TRIPOS>ATOM
      1 CAK        -1.0730   -0.8320    3.3750 c3        1 KPC     -0.207100
      2 CAJ        -0.2900    0.3410    3.8670 c         1 KPC      0.581100
      3 OAC         0.1090    0.4220    5.0360 o         1 KPC     -0.562100
      4 CAI        -0.0240    1.4330    2.8750 c3        1 KPC     -0.133300
      5 SAH         1.0120    0.9090    1.5480 ss        1 KPC     -0.324200
      6 CAG        -0.1650    0.4770    0.2800 c3        1 KPC      0.058700
      7 CAF         0.5810   -0.1620   -0.8350 c3        1 KPC     -0.279600
      8 SAE        -0.5320   -0.9080   -2.0390 s6        1 KPC      1.427800
      9 OAD        -1.4670   -1.6250   -1.2570 o         1 KPC     -0.746867
     10 OAL         0.3170   -1.7220   -2.8200 o         1 KPC     -0.746867
     11 OAB        -1.0890    0.1870   -2.7340 o         1 KPC     -0.746867
     12 HAK1       -1.3300   -1.5180    4.2180 hc        1 KPC      0.071700
     13 HAK2       -2.0140   -0.4900    2.8800 hc        1 KPC      0.071700
     14 HAK3       -0.4660   -1.3960    2.6210 hc        1 KPC      0.071700
     15 HAI1       -1.0000    1.8130    2.4830 h1        1 KPC      0.084700
     16 HAI2        0.5060    2.2790    3.3820 h1        1 KPC      0.084700
     17 HAG1       -0.9270   -0.2300    0.6980 h1        1 KPC      0.067700
     18 HAG2       -0.6930    1.3980   -0.0670 h1        1 KPC      0.067700
     19 HAF1        1.2200    0.5850   -1.3640 h1        1 KPC      0.079200
     20 HAF2        1.2570   -0.9640   -0.4510 h1        1 KPC      0.079200
@<TRIPOS>BOND
     1    1    2 1   
     2    1   12 1   
     3    1   13 1   
     4    1   14 1   
     5    2    3 2   
     6    2    4 1   
     7    4    5 1   
     8    4   15 1   
     9    4   16 1   
    10    5    6 1   
    11    6    7 1   
    12    6   17 1   
    13    6   18 1   
    14    7    8 1   
    15    7   19 1   
    16    7   20 1   
    17    8    9 1   
    18    8   10 1   
    19    8   11 1   
@<TRIPOS>SUBSTRUCTURE
     1 KPC         1 TEMP              0 ****  ****    0 ROOT
