@<TRIPOS>MOLECULE
KPC
   20    18     1     0     0
SMALL
bcc


@<TRIPOS>ATOM
      1 CAK        -3.8500   -0.0260    1.7610 c3        1 KPC     -0.207100
      2 CAJ        -2.3370    0.0190    1.7700 c         1 KPC      0.581100
      3 OAC        -1.7400    0.1610    2.8180 o         1 KPC     -0.562100
      4 CAI        -1.5690   -0.1120    0.4730 c3        1 KPC     -0.133300
      5 SAH         0.1500    0.2050    0.7700 ss        1 KPC     -0.324200
      6 CAG         1.0580   -0.0030   -0.7390 c3        1 KPC      0.058700
      7 CAF         2.5180    0.3110   -0.4960 c3        1 KPC     -0.314100
      8 SAE         3.4530   -0.0570   -1.9570 s4        1 KPC      1.647500
      9 OAD         3.4120   -1.5320   -2.2770 o         1 KPC     -0.675400
     10 OAL         2.9550    0.7700   -3.1180 os        1 KPC     -1.075000
     11 OAB         4.9310    0.1520   -1.7290 o         1 KPC     -0.675400
     12 HAK1       -4.1800   -0.0960    2.6810 hc        1 KPC      0.071700
     13 HAK2       -4.1500   -0.8040    1.2460 hc        1 KPC      0.071700
     14 HAK3       -4.1990    0.7920    1.3500 hc        1 KPC      0.071700
     15 HAI1       -1.6780   -1.0170    0.1190 h1        1 KPC      0.084700
     16 HAI2       -1.9120    0.5350   -0.1760 h1        1 KPC      0.084700
     17 HAG1        0.7030    0.6040   -1.4190 h1        1 KPC      0.067700
     18 HAG2        0.9700   -0.9270   -1.0480 h1        1 KPC      0.067700
     19 HAF1        2.6160    1.2590   -0.2760 h1        1 KPC      0.079200
     20 HAF2        2.8490   -0.2320    0.2480 h1        1 KPC      0.079200
@<TRIPOS>BOND
     1    1    2 1   
     2    1   12 1   
     3    1   13 1   
     4    1   14 1   
     5    2    3 2   
     6    2    4 1   
     7    4    5 1   
     8    4   15 1   
     9    4   16 1   
    10    5    6 1   
    11    6    7 1   
    12    6   17 1   
    13    6   18 1   
    14    7    8 1   
    15    7   19 1   
    16    7   20 1   
    17    8    9 1   
    18    8   11 1   
@<TRIPOS>SUBSTRUCTURE
     1 KPC         1 TEMP              0 ****  ****    0 ROOT
