@<TRIPOS>MOLECULE
KPG
   28    37     1     0     0
SMALL
bcc


@<TRIPOS>ATOM
      1 P           0.0000    0.0000    0.0000 p5        1 KPG      0.935500
      2 C1          6.1930    5.0680    0.1070 DU        1 KPG      0.557000
      3 C2          6.1120    3.7550    0.8880 DU        1 KPG     -0.343000
      4 O2          5.8640    4.0360    2.2680 oh        1 KPG     -0.354000
      5 C3          4.9730    2.8990    0.3300 DU        1 KPG     -0.276000
      6 O3          5.2210    2.6180   -1.0480 oh        1 KPG     -0.449000
      7 C4          4.8920    1.5850    1.1120 DU        1 KPG     -0.340000
      8 O4          6.1630    0.9330    1.0810 oh        1 KPG     -0.342000
      9 C5          3.8540    0.6920    0.4850 DU        1 KPG      0.133000
     10 O5          4.1950   -0.2570   -0.1800 o         1 KPG     -0.358000
     11 C6          2.3890    0.9800    0.6870 c3        1 KPG      0.110000
     12 O6          1.6100    0.0000    0.0000 os        1 KPG     -0.385000
     13 O1P        -0.4930    0.0000    1.3950 o         1 KPG     -0.586500
     14 O2P        -0.5360    1.3150   -0.7580 o         1 KPG     -0.586500
     15 O3P        -0.5370   -1.3130   -0.7590 o         1 KPG     -0.586500
     16 H2          6.2250    4.2140   -0.0860 DU        1 KPG     -0.160000
     17 HO2         5.5790    4.6310    1.5950 DU        1 KPG      0.257000
     18 H3          6.0190    3.0580    0.5620 DU        1 KPG      0.110000
     19 HO3         5.5410    2.9430   -0.2230 DU        1 KPG      0.347000
     20 H4          4.4590    2.5170    0.7680 DU        1 KPG      0.171000
     21 HO4         5.7290    1.4270    0.4050 DU        1 KPG      0.277000
     22 H6          3.2550    1.2970    1.2550 DU        1 KPG      0.182000
     23 H6A         3.4150    0.8120    0.9900 DU        1 KPG      0.182000
     24 HO11        4.5430    5.0390    0.5590 ho        1 KPG      0.220000
     25 HO12        6.5710    5.2530    0.5130 DU        1 KPG      0.327000
     26 H1          6.5570    5.2890   -0.8890 ha        1 KPG     -0.063000
     27 O11         5.0040    5.8280    0.3290 oh        1 KPG     -0.355000
     28 O12         7.3270    5.8160    0.5500 oh        1 KPG     -0.626000
@<TRIPOS>BOND
     1    1   12 1   
     2    1   13 1   
     3    1   14 1   
     4    1   15 1   
     5    2    3 1   
     6    2   16 1   
     7    2   25 1   
     8    2   26 1   
     9    2   27 1   
    10    2   28 1   
    11    3    4 1   
    12    3    5 1   
    13    3   16 1   
    14    3   17 1   
    15    3   18 1   
    16    4   17 1   
    17    5    6 1   
    18    5    7 1   
    19    5   18 1   
    20    5   19 1   
    21    5   20 1   
    22    6   19 1   
    23    7    8 1   
    24    7    9 1   
    25    7   20 1   
    26    7   21 1   
    27    8   21 1   
    28    9   10 1   
    29    9   11 1   
    30    9   22 1   
    31    9   23 1   
    32   11   12 1   
    33   11   22 1   
    34   11   23 1   
    35   22   23 1   
    36   24   27 1   
    37   25   28 1   
@<TRIPOS>SUBSTRUCTURE
     1 KPG         1 TEMP              0 ****  ****    0 ROOT
