@<TRIPOS>MOLECULE
KPG
   28    27     1     0     0
SMALL
bcc


@<TRIPOS>ATOM
      1 P          -1.3910   -1.5320   -0.4340 p5        1 KPG      1.345900
      2 C1          3.3750   -1.2460    0.8550 c3        1 KPG      0.321900
      3 C2          2.8350   -0.2430   -0.1870 c3        1 KPG      0.124100
      4 O2          2.5490   -0.9300   -1.3850 oh        1 KPG     -0.665800
      5 C3          1.6170    0.5130    0.3550 c3        1 KPG      0.047100
      6 O3          2.0270    1.2160    1.5250 oh        1 KPG     -0.632800
      7 C4          1.0950    1.5220   -0.6820 c3        1 KPG      0.019100
      8 O4          2.0100    2.5920   -0.8700 oh        1 KPG     -0.614800
      9 C5         -0.2720    2.0510   -0.2780 c         1 KPG      0.524100
     10 O5         -0.3800    3.2320    0.0920 o         1 KPG     -0.626100
     11 C6         -1.4730    1.1240   -0.3990 c3        1 KPG      0.117400
     12 O6         -1.3370    0.0050    0.3760 os        1 KPG     -0.567200
     13 O1P        -1.8530   -1.1630   -1.8120 o         1 KPG     -0.919833
     14 O2P         0.0930   -1.8590   -0.3540 o         1 KPG     -0.919833
     15 O3P        -2.3010   -2.3400    0.4290 o         1 KPG     -0.919833
     16 H2          3.6570    0.4800   -0.4480 h1        1 KPG      0.052700
     17 HO2         1.6720   -1.3650   -1.2910 ho        1 KPG      0.491000
     18 H3          0.7820   -0.2420    0.5710 h1        1 KPG      0.184700
     19 HO3         1.2580    1.2140    2.1060 ho        1 KPG      0.407000
     20 H4          1.0250    1.0100   -1.6840 h1        1 KPG      0.118700
     21 HO4         2.0680    3.0440   -0.0180 ho        1 KPG      0.400000
     22 H6         -2.3740    1.7190   -0.0590 h1        1 KPG      0.038700
     23 H6A        -1.5960    0.8550   -1.4930 h1        1 KPG      0.038700
     24 HO11        1.6760   -2.2250    0.7700 ho        1 KPG      0.450500
     25 HO12        3.9980   -2.4650   -0.5050 ho        1 KPG      0.450500
     26 H1          3.8560   -0.7180    1.7240 h2        1 KPG      0.064700
     27 O11         2.4530   -2.1600    1.3670 oh        1 KPG     -0.664800
     28 O12         4.3880   -2.0510    0.2760 oh        1 KPG     -0.664800
@<TRIPOS>BOND
     1    1   12 1   
     2    1   13 1   
     3    1   14 1   
     4    1   15 1   
     5    2    3 1   
     6    2   26 1   
     7    2   27 1   
     8    2   28 1   
     9    3    4 1   
    10    3    5 1   
    11    3   16 1   
    12    4   17 1   
    13    5    6 1   
    14    5    7 1   
    15    5   18 1   
    16    6   19 1   
    17    7    8 1   
    18    7    9 1   
    19    7   20 1   
    20    8   21 1   
    21    9   10 2   
    22    9   11 1   
    23   11   12 1   
    24   11   22 1   
    25   11   23 1   
    26   24   27 1   
    27   25   28 1   
@<TRIPOS>SUBSTRUCTURE
     1 KPG         1 TEMP              0 ****  ****    0 ROOT
