@<TRIPOS>MOLECULE
KPH
   24    23     1     0     0
SMALL
bcc


@<TRIPOS>ATOM
      1 O1          2.0640   -0.1870    1.8330 o         1 KPH     -0.949833
      2 P1          1.9950    0.3850    0.4330 p5        1 KPH      1.195700
      3 O2          3.3160    0.3840   -0.3030 o         1 KPH     -0.949833
      4 C1          1.0480   -0.9020   -0.4720 c3        1 KPH     -0.060700
      5 N1          1.8700   -2.1030   -0.4220 n3        1 KPH     -0.903800
      6 C2         -0.2930   -1.0270    0.2080 c3        1 KPH     -0.017400
      7 C3         -1.3900   -0.2950   -0.5450 c3        1 KPH     -0.076400
      8 C4         -2.7020   -0.3620    0.2080 c3        1 KPH     -0.109400
      9 C5         -3.8170    0.3420   -0.5610 c3        1 KPH      0.131800
     10 N2         -5.1040    0.4130    0.1000 n3        1 KPH     -0.911800
     11 O3          1.1560    1.6330    0.2810 o         1 KPH     -0.949833
     12 H2          0.9270   -0.6010   -1.5390 h1        1 KPH      0.025700
     13 H3          2.7740   -1.8080   -0.7680 hn        1 KPH      0.328300
     14 H4          2.0110   -2.2920    0.5610 hn        1 KPH      0.328300
     15 H5         -0.6150   -2.0990    0.3320 hc        1 KPH      0.017200
     16 H6         -0.1910   -0.5900    1.2410 hc        1 KPH      0.017200
     17 H7         -1.0840    0.7790   -0.6770 hc        1 KPH      0.046700
     18 H8         -1.5230   -0.7450   -1.5640 hc        1 KPH      0.046700
     19 H9         -2.9870   -1.4330    0.3870 hc        1 KPH      0.026200
     20 H10        -2.5670    0.1190    1.2120 hc        1 KPH      0.026200
     21 H11        -3.4870    1.3940   -0.7930 h1        1 KPH      0.045700
     22 H12        -3.9720   -0.1870   -1.5440 h1        1 KPH      0.045700
     23 H13        -5.3840   -0.5060    0.3900 hn        1 KPH      0.323800
     24 H14        -5.0260    0.9740    0.9280 hn        1 KPH      0.323800
@<TRIPOS>BOND
     1    1    2 1   
     2    2    3 1   
     3    2    4 1   
     4    2   11 1   
     5    4    5 1   
     6    4    6 1   
     7    4   12 1   
     8    5   13 1   
     9    5   14 1   
    10    6    7 1   
    11    6   15 1   
    12    6   16 1   
    13    7    8 1   
    14    7   17 1   
    15    7   18 1   
    16    8    9 1   
    17    8   19 1   
    18    8   20 1   
    19    9   10 1   
    20    9   21 1   
    21    9   22 1   
    22   10   23 1   
    23   10   24 1   
@<TRIPOS>SUBSTRUCTURE
     1 KPH         1 TEMP              0 ****  ****    0 ROOT
