@<TRIPOS>MOLECULE
KPH
   24    22     1     0     0
SMALL
bcc


@<TRIPOS>ATOM
      1 O1         -1.5340   -1.1790   -3.2660 o         1 KPH     -0.950500
      2 P1         -0.0240   -1.1790   -3.2660 p4        1 KPH      1.572000
      3 O2          0.4800    0.0540   -3.9780 os        1 KPH     -1.262000
      4 C1          0.5810   -1.1790   -1.5560 c3        1 KPH     -0.042700
      5 N1          1.9990   -1.2950   -1.5540 n3        1 KPH     -0.882800
      6 C2          0.1800    0.1110   -0.8800 c3        1 KPH     -0.051400
      7 C3         -0.0700   -0.1460    0.5900 c3        1 KPH     -0.065400
      8 C4         -0.4620    1.1480    1.2690 c3        1 KPH     -0.115400
      9 C5         -0.7180    0.8900    2.7380 c3        1 KPH      0.132800
     10 N2         -1.0930    2.1090    3.3760 n3        1 KPH     -0.912800
     11 O3          0.4800   -2.4120   -3.9780 o         1 KPH     -0.999300
     12 H2          0.1920   -1.9340   -1.0730 h1        1 KPH      0.004700
     13 H3          2.3120   -1.2070   -2.4060 hn        1 KPH      0.310800
     14 H4          2.2370   -2.1110   -1.2250 hn        1 KPH      0.310800
     15 H5         -0.6340    0.4560   -1.2930 hc        1 KPH      0.061700
     16 H6          0.8970    0.7670   -0.9780 hc        1 KPH      0.061700
     17 H7         -0.7910   -0.7960    0.6880 hc        1 KPH      0.014700
     18 H8          0.7420   -0.4960    1.0020 hc        1 KPH      0.014700
     19 H9          0.2600    1.7980    1.1730 hc        1 KPH      0.033700
     20 H10        -1.2730    1.5000    0.8550 hc        1 KPH      0.033700
     21 H11        -1.4380    0.2380    2.8330 h1        1 KPH      0.039700
     22 H12         0.0940    0.5420    3.1530 h1        1 KPH      0.039700
     23 H13        -1.9240    2.0190    3.7390 hn        1 KPH      0.326300
     24 H14        -0.4930    2.3040    4.0350 hn        1 KPH      0.326300
@<TRIPOS>BOND
     1    1    2 1   
     2    2    4 1   
     3    2   11 2   
     4    4    5 1   
     5    4    6 1   
     6    4   12 1   
     7    5   13 1   
     8    5   14 1   
     9    6    7 1   
    10    6   15 1   
    11    6   16 1   
    12    7    8 1   
    13    7   17 1   
    14    7   18 1   
    15    8    9 1   
    16    8   19 1   
    17    8   20 1   
    18    9   10 1   
    19    9   21 1   
    20    9   22 1   
    21   10   23 1   
    22   10   24 1   
@<TRIPOS>SUBSTRUCTURE
     1 KPH         1 TEMP              0 ****  ****    0 ROOT
