@<TRIPOS>MOLECULE
KPI
   29    28     1     0     0
SMALL
bcc


@<TRIPOS>ATOM
      1 OXT        -4.3840    1.8710   -0.3620 o         1 KPI     -0.853800
      2 N          -3.9150   -1.6490    0.5930 n3        1 KPI     -0.894800
      3 CA         -3.5350   -0.2470    0.4610 c3        1 KPI      0.024500
      4 CB         -2.1530   -0.0390   -0.1660 c3        1 KPI     -0.065400
      5 CG         -1.0380   -0.6020    0.6890 c3        1 KPI     -0.075400
      6 CD          0.3260   -0.3900    0.0630 c3        1 KPI     -0.090400
      7 CE          1.4160   -0.9920    0.9530 c3        1 KPI      0.110800
      8 NZ          2.7660   -0.9690    0.4550 n2        1 KPI     -0.629900
      9 CX1         3.4640    0.1100    0.3960 ce        1 KPI      0.384300
     10 C1          3.0450    1.5060    0.7490 c3        1 KPI     -0.181400
     11 CX2         4.9430    0.0810   -0.0610 c         1 KPI      0.836300
     12 O1          5.1830    0.1540   -1.2950 o         1 KPI     -0.832300
     13 O2          5.8170    0.0520    0.8490 o         1 KPI     -0.832300
     14 C          -4.5730    0.6240   -0.3190 c         1 KPI      0.887600
     15 O          -5.5720    0.0460   -0.8430 o         1 KPI     -0.853800
     16 HA         -3.5050    0.1670    1.5120 h1        1 KPI      0.039700
     17 HB         -2.1200   -0.5060   -1.1840 hc        1 KPI      0.043700
     18 HBA        -2.0130    1.0670   -0.3000 hc        1 KPI      0.043700
     19 HG         -1.0650   -0.1140    1.7000 hc        1 KPI      0.030200
     20 HGA        -1.2010   -1.7000    0.8520 hc        1 KPI      0.030200
     21 HD          0.3550   -0.8670   -0.9500 hc        1 KPI      0.039200
     22 HDA         0.5160    0.7060   -0.0800 hc        1 KPI      0.039200
     23 HE          1.3420   -0.5010    1.9680 h1        1 KPI      0.018700
     24 HEA         1.1750   -2.0850    1.1020 h1        1 KPI      0.018700
     25 H1          3.8810    2.0100    1.2920 hc        1 KPI      0.035700
     26 H1A         2.8380    2.0690   -0.1940 hc        1 KPI      0.035700
     27 H1B         2.1300    1.5360    1.3910 hc        1 KPI      0.035700
     28 H          -4.9220   -1.6910    0.5800 hn        1 KPI      0.327300
     29 H2         -3.6010   -2.1480   -0.2200 hn        1 KPI      0.327300
@<TRIPOS>BOND
     1    1   14 1   
     2    2    3 1   
     3    2   28 1   
     4    2   29 1   
     5    3    4 1   
     6    3   14 1   
     7    3   16 1   
     8    4    5 1   
     9    4   17 1   
    10    4   18 1   
    11    5    6 1   
    12    5   19 1   
    13    5   20 1   
    14    6    7 1   
    15    6   21 1   
    16    6   22 1   
    17    7    8 1   
    18    7   23 1   
    19    7   24 1   
    20    8    9 2   
    21    9   10 1   
    22    9   11 1   
    23   10   25 1   
    24   10   26 1   
    25   10   27 1   
    26   11   12 1   
    27   11   13 1   
    28   14   15 1   
@<TRIPOS>SUBSTRUCTURE
     1 KPI         1 TEMP              0 ****  ****    0 ROOT
