@<TRIPOS>MOLECULE
KPK
   46    49     1     0     0
SMALL
bcc


@<TRIPOS>ATOM
      1 O27         6.1480   -2.6950   -1.3910 o         1 KPK     -0.844800
      2 C24         6.5340   -2.0500   -0.3740 c         1 KPK      0.910600
      3 O26         7.5470   -2.3510    0.3180 o         1 KPK     -0.844800
      4 C20         5.7360   -0.7990    0.0470 c3        1 KPK     -0.193400
      5 C16         4.2560   -1.0020   -0.1750 c3        1 KPK     -0.072400
      6 C12         3.4950    0.2880    0.0120 c3        1 KPK      0.000700
      7 S8          1.7960   -0.1510   -0.2730 ss        1 KPK     -0.148300
      8 C3          0.9330    1.2980   -0.1330 cc        1 KPK      0.422700
      9 N7          1.4040    2.4930    0.2950 nd        1 KPK     -0.594100
     10 C5          0.3200    3.3860    0.2170 ca        1 KPK      0.086400
     11 C10         0.2240    4.7490    0.5210 ca        1 KPK     -0.084000
     12 C15        -0.9990    5.3810    0.3400 ca        1 KPK     -0.157000
     13 C11        -2.1240    4.6930   -0.1390 ca        1 KPK     -0.133000
     14 C6         -2.0730    3.3410   -0.4550 ca        1 KPK     -0.130000
     15 C2         -0.8530    2.6820   -0.2790 ca        1 KPK     -0.075200
     16 N1         -0.4360    1.3650   -0.5210 na        1 KPK     -0.164300
     17 C4         -1.2580    0.2610   -0.9120 c3        1 KPK      0.108500
     18 C9         -2.1010   -0.3640    0.1500 cc        1 KPK     -0.109400
     19 C14        -2.0180   -0.0940    1.4910 cd        1 KPK     -0.131400
     20 S19        -3.1100   -0.9720    2.4140 ss        1 KPK      0.030500
     21 C17        -3.7580   -1.7670    1.0740 ca        1 KPK     -0.079100
     22 C21        -4.7830   -2.7170    1.0670 ca        1 KPK     -0.102000
     23 C25        -5.1760   -3.2700   -0.1390 ca        1 KPK     -0.123000
     24 C22        -4.5500   -2.8850   -1.3340 ca        1 KPK     -0.139000
     25 C18        -3.5260   -1.9400   -1.3540 ca        1 KPK     -0.037300
     26 C13        -3.1190   -1.3590   -0.1350 ca        1 KPK     -0.057800
     27 C23        -2.9030   -1.5930   -2.6520 c3        1 KPK     -0.059800
     28 H2          5.9440   -0.5700    1.1210 hc        1 KPK      0.025700
     29 H3          6.1040    0.0610   -0.5680 hc        1 KPK      0.025700
     30 H4          4.1070   -1.4040   -1.2150 hc        1 KPK      0.063200
     31 H5          3.8770   -1.7780    0.5420 hc        1 KPK      0.063200
     32 H6          3.6300    0.6950    1.0420 h1        1 KPK      0.073700
     33 H7          3.8300    1.0650   -0.7150 h1        1 KPK      0.073700
     34 H8          1.1010    5.2970    0.8920 ha        1 KPK      0.143000
     35 H9         -1.0920    6.4520    0.5760 ha        1 KPK      0.122000
     36 H10        -3.0710    5.2380   -0.2660 ha        1 KPK      0.121000
     37 H11        -2.9570    2.8080   -0.8290 ha        1 KPK      0.132000
     38 H12        -1.9410    0.6300   -1.7340 h1        1 KPK      0.078700
     39 H13        -0.5710   -0.5360   -1.3350 h1        1 KPK      0.078700
     40 H14        -1.3240    0.6090    1.9580 h4        1 KPK      0.187000
     41 H15        -5.2620   -3.0190    2.0090 ha        1 KPK      0.133000
     42 H16        -5.9790   -4.0210   -0.1680 ha        1 KPK      0.128000
     43 H17        -4.8770   -3.3480   -2.2780 ha        1 KPK      0.129000
     44 H18        -3.1570   -0.5410   -2.9400 hc        1 KPK      0.048367
     45 H19        -1.7900   -1.6930   -2.5990 hc        1 KPK      0.048367
     46 H20        -3.2700   -2.2680   -3.4660 hc        1 KPK      0.048367
@<TRIPOS>BOND
     1    1    2 1   
     2    2    3 1   
     3    2    4 1   
     4    4    5 1   
     5    4   28 1   
     6    4   29 1   
     7    5    6 1   
     8    5   30 1   
     9    5   31 1   
    10    6    7 1   
    11    6   32 1   
    12    6   33 1   
    13    7    8 1   
    14    8    9 2   
    15    8   16 1   
    16    9   10 1   
    17   10   11 ar  
    18   10   15 ar  
    19   11   12 ar  
    20   11   34 1   
    21   12   13 ar  
    22   12   35 1   
    23   13   14 ar  
    24   13   36 1   
    25   14   15 ar  
    26   14   37 1   
    27   15   16 1   
    28   16   17 1   
    29   17   18 1   
    30   17   38 1   
    31   17   39 1   
    32   18   19 2   
    33   18   26 1   
    34   19   20 1   
    35   19   40 1   
    36   20   21 1   
    37   21   22 ar  
    38   21   26 ar  
    39   22   23 ar  
    40   22   41 1   
    41   23   24 ar  
    42   23   42 1   
    43   24   25 ar  
    44   24   43 1   
    45   25   26 ar  
    46   25   27 1   
    47   27   44 1   
    48   27   45 1   
    49   27   46 1   
@<TRIPOS>SUBSTRUCTURE
     1 KPK         1 TEMP              0 ****  ****    0 ROOT
