@<TRIPOS>MOLECULE
KPK
   46    49     1     0     0
SMALL
bcc


@<TRIPOS>ATOM
      1 O27        -0.3250   -1.0760   -0.3150 o         1 KPK     -0.844800
      2 C24         0.7040   -0.3770   -0.0920 c         1 KPK      0.910600
      3 O26         0.9870    0.1360    1.0270 o         1 KPK     -0.844800
      4 C20         1.6980   -0.1450   -1.2490 c3        1 KPK     -0.193400
      5 C16         0.9710    0.0170   -2.5630 c3        1 KPK     -0.072400
      6 C12         1.9350    0.0100   -3.7230 c3        1 KPK      0.000700
      7 S8          0.9060    0.2200   -5.1580 ss        1 KPK     -0.148300
      8 C3          1.9640    0.1490   -6.4780 cc        1 KPK      0.422700
      9 N7          3.3170    0.1340   -6.4420 nd        1 KPK     -0.594100
     10 C5          3.7380    0.0520   -7.7810 ca        1 KPK      0.086400
     11 C10         5.0190   -0.0050   -8.3440 ca        1 KPK     -0.084000
     12 C15         5.1300   -0.0840   -9.7260 ca        1 KPK     -0.157000
     13 C11         4.0000   -0.1130  -10.5590 ca        1 KPK     -0.133000
     14 C6          2.7110   -0.0610  -10.0430 ca        1 KPK     -0.130000
     15 C2          2.5740    0.0220   -8.6540 ca        1 KPK     -0.075200
     16 N1          1.4570    0.0560   -7.8060 na        1 KPK     -0.164300
     17 C4          0.0840    0.1570   -8.1960 c3        1 KPK      0.108500
     18 C9         -0.3980    1.5000   -8.6330 cc        1 KPK     -0.109400
     19 C14         0.3030    2.6710   -8.5190 cd        1 KPK     -0.131400
     20 S19        -0.5300    4.0040   -9.1070 ss        1 KPK      0.029500
     21 C17        -1.8800    3.0920   -9.5470 ca        1 KPK     -0.079100
     22 C21        -3.0580    3.5550  -10.1400 ca        1 KPK     -0.102000
     23 C25        -4.0670    2.6510  -10.4210 ca        1 KPK     -0.123000
     24 C22        -3.9100    1.2930  -10.1090 ca        1 KPK     -0.139000
     25 C18        -2.7470    0.8070   -9.5160 ca        1 KPK     -0.037300
     26 C13        -1.7040    1.7120   -9.2320 ca        1 KPK     -0.057800
     27 C23        -2.6590   -0.6390   -9.2040 c3        1 KPK     -0.059800
     28 H2          2.3190    0.7580   -1.0300 hc        1 KPK      0.025700
     29 H3          2.3800   -1.0320   -1.2930 hc        1 KPK      0.025700
     30 H4          0.3930    0.9790   -2.5490 hc        1 KPK      0.063200
     31 H5          0.2260   -0.8210   -2.6580 hc        1 KPK      0.063200
     32 H6          2.4970   -0.9520   -3.7780 h1        1 KPK      0.073700
     33 H7          2.6740    0.8410   -3.6440 h1        1 KPK      0.073700
     34 H8          5.9080    0.0130   -7.6990 ha        1 KPK      0.143000
     35 H9          6.1290   -0.1280  -10.1840 ha        1 KPK      0.122000
     36 H10         4.1400   -0.1770  -11.6480 ha        1 KPK      0.121000
     37 H11         1.8320   -0.0830  -10.7000 ha        1 KPK      0.132000
     38 H12        -0.0730   -0.5710   -9.0480 h1        1 KPK      0.078700
     39 H13        -0.5410   -0.1750   -7.3090 h1        1 KPK      0.078700
     40 H14         1.3030    2.7760   -8.0920 h4        1 KPK      0.187000
     41 H15        -3.1750    4.6230  -10.3740 ha        1 KPK      0.133000
     42 H16        -5.0030    2.9940  -10.8870 ha        1 KPK      0.128000
     43 H17        -4.7340    0.5980  -10.3350 ha        1 KPK      0.129000
     44 H18        -1.8980   -1.1350   -9.8570 hc        1 KPK      0.048367
     45 H19        -3.6410   -1.1470   -9.3750 hc        1 KPK      0.048367
     46 H20        -2.3730   -0.7970   -8.1340 hc        1 KPK      0.048367
@<TRIPOS>BOND
     1    1    2 1   
     2    2    3 1   
     3    2    4 1   
     4    4    5 1   
     5    4   28 1   
     6    4   29 1   
     7    5    6 1   
     8    5   30 1   
     9    5   31 1   
    10    6    7 1   
    11    6   32 1   
    12    6   33 1   
    13    7    8 1   
    14    8    9 2   
    15    8   16 1   
    16    9   10 1   
    17   10   11 ar  
    18   10   15 ar  
    19   11   12 ar  
    20   11   34 1   
    21   12   13 ar  
    22   12   35 1   
    23   13   14 ar  
    24   13   36 1   
    25   14   15 ar  
    26   14   37 1   
    27   15   16 1   
    28   16   17 1   
    29   17   18 1   
    30   17   38 1   
    31   17   39 1   
    32   18   19 2   
    33   18   26 1   
    34   19   20 1   
    35   19   40 1   
    36   20   21 1   
    37   21   22 ar  
    38   21   26 ar  
    39   22   23 ar  
    40   22   41 1   
    41   23   24 ar  
    42   23   42 1   
    43   24   25 ar  
    44   24   43 1   
    45   25   26 ar  
    46   25   27 1   
    47   27   44 1   
    48   27   45 1   
    49   27   46 1   
@<TRIPOS>SUBSTRUCTURE
     1 KPK         1 TEMP              0 ****  ****    0 ROOT
