@<TRIPOS>MOLECULE
KPK
   46    49     1     0     0
SMALL
bcc


@<TRIPOS>ATOM
      1 O27        -0.3230   -1.0660   -0.3100 o         1 KPK     -0.844800
      2 C24         0.7050   -0.3630   -0.0900 c         1 KPK      0.910600
      3 O26         0.9860    0.1540    1.0270 o         1 KPK     -0.844800
      4 C20         1.6980   -0.1340   -1.2470 c3        1 KPK     -0.193400
      5 C16         0.9700    0.0230   -2.5610 c3        1 KPK     -0.072400
      6 C12         1.9350    0.0150   -3.7220 c3        1 KPK      0.000700
      7 S8          0.9060    0.2220   -5.1570 ss        1 KPK     -0.148300
      8 C3          1.9630    0.1480   -6.4770 cc        1 KPK      0.422700
      9 N7          3.3160    0.1330   -6.4410 nd        1 KPK     -0.594100
     10 C5          3.7370    0.0500   -7.7800 ca        1 KPK      0.086400
     11 C10         5.0180   -0.0070   -8.3430 ca        1 KPK     -0.084000
     12 C15         5.1290   -0.0890   -9.7250 ca        1 KPK     -0.157000
     13 C11         3.9990   -0.1180  -10.5570 ca        1 KPK     -0.133000
     14 C6          2.7100   -0.0670  -10.0410 ca        1 KPK     -0.130000
     15 C2          2.5740    0.0180   -8.6530 ca        1 KPK     -0.075200
     16 N1          1.4570    0.0540   -7.8050 na        1 KPK     -0.164300
     17 C4          0.0830    0.1540   -8.1950 c3        1 KPK      0.108500
     18 C9         -0.3980    1.4970   -8.6330 cc        1 KPK     -0.109400
     19 C14         0.3030    2.6690   -8.5210 cd        1 KPK     -0.131400
     20 S19        -0.5300    4.0000   -9.1100 ss        1 KPK      0.030500
     21 C17        -1.8790    3.0890   -9.5500 ca        1 KPK     -0.079100
     22 C21        -3.0570    3.5510  -10.1450 ca        1 KPK     -0.102000
     23 C25        -4.0660    2.6470  -10.4260 ca        1 KPK     -0.123000
     24 C22        -3.9090    1.2890  -10.1120 ca        1 KPK     -0.139000
     25 C18        -2.7470    0.8030   -9.5180 ca        1 KPK     -0.037300
     26 C13        -1.7030    1.7090   -9.2340 ca        1 KPK     -0.057800
     27 C23        -2.6580   -0.6420   -9.2040 c3        1 KPK     -0.059800
     28 H2          2.3170    0.7720   -1.0310 hc        1 KPK      0.025700
     29 H3          2.3820   -1.0190   -1.2880 hc        1 KPK      0.025700
     30 H4          0.3910    0.9840   -2.5500 hc        1 KPK      0.063200
     31 H5          0.2270   -0.8160   -2.6550 hc        1 KPK      0.063200
     32 H6          2.4970   -0.9460   -3.7750 h1        1 KPK      0.073700
     33 H7          2.6730    0.8470   -3.6440 h1        1 KPK      0.073700
     34 H8          5.9080    0.0110   -7.6980 ha        1 KPK      0.143000
     35 H9          6.1280   -0.1340  -10.1830 ha        1 KPK      0.122000
     36 H10         4.1390   -0.1840  -11.6460 ha        1 KPK      0.121000
     37 H11         1.8310   -0.0890  -10.6980 ha        1 KPK      0.132000
     38 H12        -0.0740   -0.5740   -9.0460 h1        1 KPK      0.078700
     39 H13        -0.5420   -0.1760   -7.3080 h1        1 KPK      0.078700
     40 H14         1.3020    2.7740   -8.0930 h4        1 KPK      0.187000
     41 H15        -3.1740    4.6190  -10.3800 ha        1 KPK      0.133000
     42 H16        -5.0010    2.9900  -10.8920 ha        1 KPK      0.128000
     43 H17        -4.7330    0.5940  -10.3380 ha        1 KPK      0.129000
     44 H18        -1.8980   -1.1390   -9.8570 hc        1 KPK      0.048367
     45 H19        -3.6400   -1.1500   -9.3750 hc        1 KPK      0.048367
     46 H20        -2.3730   -0.8000   -8.1340 hc        1 KPK      0.048367
@<TRIPOS>BOND
     1    1    2 1   
     2    2    3 1   
     3    2    4 1   
     4    4    5 1   
     5    4   28 1   
     6    4   29 1   
     7    5    6 1   
     8    5   30 1   
     9    5   31 1   
    10    6    7 1   
    11    6   32 1   
    12    6   33 1   
    13    7    8 1   
    14    8    9 2   
    15    8   16 1   
    16    9   10 1   
    17   10   11 ar  
    18   10   15 ar  
    19   11   12 ar  
    20   11   34 1   
    21   12   13 ar  
    22   12   35 1   
    23   13   14 ar  
    24   13   36 1   
    25   14   15 ar  
    26   14   37 1   
    27   15   16 1   
    28   16   17 1   
    29   17   18 1   
    30   17   38 1   
    31   17   39 1   
    32   18   19 2   
    33   18   26 1   
    34   19   20 1   
    35   19   40 1   
    36   20   21 1   
    37   21   22 ar  
    38   21   26 ar  
    39   22   23 ar  
    40   22   41 1   
    41   23   24 ar  
    42   23   42 1   
    43   24   25 ar  
    44   24   43 1   
    45   25   26 ar  
    46   25   27 1   
    47   27   44 1   
    48   27   45 1   
    49   27   46 1   
@<TRIPOS>SUBSTRUCTURE
     1 KPK         1 TEMP              0 ****  ****    0 ROOT
