@<TRIPOS>MOLECULE
KPK
   46    39     1     0     0
SMALL
bcc


@<TRIPOS>ATOM
      1 O27         0.8990   -0.8000    7.8520 o         1 KPK     -0.580000
      2 C24         1.1530   -1.7740    7.1090 c1        1 KPK      0.330000
      3 O26         0.7050   -2.9020    7.3900 o         1 KPK     -0.580000
      4 C20         1.8840   -1.5610    5.8140 c2        1 KPK     -0.222000
      5 C16         0.8930   -1.0420    4.7500 c3        1 KPK     -0.151000
      6 C12         1.6510   -0.7750    3.3970 c3        1 KPK     -0.261000
      7 S8          0.4700   -0.3490    2.1370 ss        1 KPK      0.259000
      8 C3          1.2970   -0.2850    0.5350 c2        1 KPK     -0.129000
      9 N7          2.6600   -0.4090    0.5600 n2        1 KPK     -0.167000
     10 C5          3.1030   -0.4220   -0.7220 c1        1 KPK     -0.053000
     11 C10         4.3960   -0.4530   -1.2700 c1        1 KPK     -0.121333
     12 C15         4.5700   -0.3640   -2.6650 c1        1 KPK     -0.121333
     13 C11         3.4490   -0.2430   -3.5040 c1        1 KPK     -0.121333
     14 C6          2.1750   -0.2130   -2.9570 c1        1 KPK     -0.121333
     15 C2          2.0030   -0.3030   -1.5500 c1        1 KPK     -0.030000
     16 N1          0.9000   -0.2200   -0.7710 n1        1 KPK     -0.190000
     17 C4         -0.5060   -0.3060   -1.0320 c2        1 KPK      0.046000
     18 C9         -1.0410    1.0810   -1.3840 c2        1 KPK     -0.119000
     19 C14        -0.4600    2.3640   -1.0480 c1        1 KPK     -0.371000
     20 S19        -1.4770    3.4620   -1.4450 ss        1 KPK      0.501000
     21 C17        -2.7460    2.7360   -2.0600 c1        1 KPK     -0.306000
     22 C21        -3.9770    3.2260   -2.5510 c1        1 KPK     -0.121333
     23 C25        -4.9780    2.3120   -3.0190 c1        1 KPK     -0.121333
     24 C22        -4.7350    0.9240   -2.9890 c1        1 KPK     -0.139000
     25 C18        -3.5010    0.4290   -2.4980 c1        1 KPK     -0.031000
     26 C13        -2.5030    1.3350   -2.0310 c1        1 KPK     -0.046000
     27 C23        -3.7800   -1.1190   -2.5130 c3        1 KPK     -0.185000
     28 H2          2.2700   -2.4060    5.5150 ha        1 KPK      0.065000
     29 H3          2.6300   -0.8740    5.9530 ha        1 KPK      0.065000
     30 H4          0.4720   -0.1800    5.0740 hc        1 KPK      0.102500
     31 H5          0.2020   -1.7020    4.6050 hc        1 KPK      0.102500
     32 H6          2.2940   -0.0190    3.5190 h1        1 KPK      0.112500
     33 H7          2.1590   -1.6110    3.1210 h1        1 KPK      0.112500
     34 H8          5.1690   -0.5340   -0.6870 ha        1 KPK      0.129833
     35 H9          5.4700   -0.3860   -3.0490 ha        1 KPK      0.129833
     36 H10         3.5720   -0.1930   -4.5220 ha        1 KPK      0.129833
     37 H11         1.3820   -0.1650   -3.5490 ha        1 KPK      0.129833
     38 H12        -0.6650   -0.9290   -1.7940 ha        1 KPK      0.117000
     39 H13        -0.9780   -0.6490   -0.2190 ha        1 KPK      0.117000
     40 H14         0.4380    2.5120   -0.7070 DU        1 KPK      0.187000
     41 H15        -4.1500    4.1860   -2.5650 ha        1 KPK      0.129833
     42 H16        -5.8070    2.6440   -3.3500 ha        1 KPK      0.129833
     43 H17        -5.4270    0.2950   -3.3110 ha        1 KPK      0.128000
     44 H18        -4.7600   -1.2810   -2.4750 hc        1 KPK      0.087000
     45 H19        -3.3600   -1.5270   -1.7570 hc        1 KPK      0.087000
     46 H20        -3.4170   -1.5070   -3.3360 hc        1 KPK      0.087000
@<TRIPOS>BOND
     1    1    2 1   
     2    2    3 1   
     3    4    5 1   
     4    4   28 1   
     5    4   29 1   
     6    5    6 1   
     7    5   30 1   
     8    5   31 1   
     9    6    7 1   
    10    6   32 1   
    11    6   33 1   
    12    7    8 1   
    13    8    9 1   
    14    8   16 1   
    15    9   10 1   
    16   10   15 1   
    17   11   12 1   
    18   11   34 1   
    19   12   35 1   
    20   13   14 1   
    21   13   36 1   
    22   14   37 1   
    23   17   18 1   
    24   17   38 1   
    25   17   39 1   
    26   18   19 1   
    27   18   26 1   
    28   19   20 1   
    29   20   21 1   
    30   21   26 1   
    31   22   23 1   
    32   22   41 1   
    33   23   42 1   
    34   24   25 1   
    35   24   43 1   
    36   25   27 1   
    37   27   44 1   
    38   27   45 1   
    39   27   46 1   
@<TRIPOS>SUBSTRUCTURE
     1 KPK         1 TEMP              0 ****  ****    0 ROOT
