@<TRIPOS>MOLECULE
KPL
   19    18     1     0     0
SMALL
bcc


@<TRIPOS>ATOM
      1 O2          1.8420   -0.0000    0.4810 o         1 KPL     -0.577100
      2 C5          0.6050    0.0000    0.5280 c         1 KPL      0.456100
      3 C6         -0.1630    0.0000    1.8700 c         1 KPL      0.847600
      4 O4         -1.4250    0.0000    1.8450 o         1 KPL     -0.804800
      5 O3          0.5280    0.0000    2.9200 o         1 KPL     -0.804800
      6 C2         -0.1880   -0.0000   -0.7830 c3        1 KPL     -0.144000
      7 C3         -1.0550    1.2460   -0.8460 c3        1 KPL     -0.081100
      8 C1         -1.0550   -1.2460   -0.8460 c3        1 KPL     -0.081100
      9 C4          0.7970   -0.0000   -1.9590 c3        1 KPL      0.131400
     10 O1          0.0690   -0.0000   -3.1820 oh        1 KPL     -0.609800
     11 H31        -0.4200    2.1620   -0.7910 hc        1 KPL      0.040700
     12 H32        -1.6230    1.2610   -1.8070 hc        1 KPL      0.040700
     13 H33        -1.7710    1.2460    0.0150 hc        1 KPL      0.040700
     14 H11        -0.4200   -2.1620   -0.7910 hc        1 KPL      0.040700
     15 H12        -1.7710   -1.2460    0.0150 hc        1 KPL      0.040700
     16 H13        -1.6230   -1.2610   -1.8070 hc        1 KPL      0.040700
     17 H41         1.4480    0.9140   -1.9080 h1        1 KPL      0.022700
     18 H42         1.4480   -0.9140   -1.9080 h1        1 KPL      0.022700
     19 HO1         0.7320   -0.0000   -3.8810 ho        1 KPL      0.377000
@<TRIPOS>BOND
     1    1    2 2   
     2    2    3 1   
     3    2    6 1   
     4    3    4 1   
     5    3    5 1   
     6    6    7 1   
     7    6    8 1   
     8    6    9 1   
     9    7   11 1   
    10    7   12 1   
    11    7   13 1   
    12    8   14 1   
    13    8   15 1   
    14    8   16 1   
    15    9   10 1   
    16    9   17 1   
    17    9   18 1   
    18   10   19 1   
@<TRIPOS>SUBSTRUCTURE
     1 KPL         1 TEMP              0 ****  ****    0 ROOT
