@<TRIPOS>MOLECULE
KPL
   19    18     1     0     0
SMALL
bcc


@<TRIPOS>ATOM
      1 O2         -0.0180   -0.2600    0.0570 o         1 KPL     -0.594100
      2 C5          1.2110   -0.1330    0.0290 c         1 KPL      0.476100
      3 C6          2.0970   -0.0970    1.2890 c         1 KPL      0.861600
      4 O4          2.5500   -1.1970    1.7020 o         1 KPL     -0.812300
      5 O3          2.3220    1.0320    1.7990 o         1 KPL     -0.812300
      6 C2          1.9480   -0.0010   -1.3070 c3        1 KPL     -0.157000
      7 C3          2.9350   -1.1490   -1.4350 c3        1 KPL     -0.076100
      8 C1          2.6830    1.3300   -1.3280 c3        1 KPL     -0.076100
      9 C4          0.9340   -0.0540   -2.4530 c3        1 KPL      0.136400
     10 O1          1.6230    0.0700   -3.6930 oh        1 KPL     -0.609800
     11 H31         3.6010   -1.1790   -0.5370 hc        1 KPL      0.039700
     12 H32         3.5480   -1.0200   -2.3590 hc        1 KPL      0.039700
     13 H33         2.3890   -2.1200   -1.5000 hc        1 KPL      0.039700
     14 H11         3.3370    1.4150   -0.4250 hc        1 KPL      0.039700
     15 H12         3.3010    1.4060   -2.2540 hc        1 KPL      0.039700
     16 H13         1.9520    2.1730   -1.3140 hc        1 KPL      0.039700
     17 H41         0.1960    0.7850   -2.3450 h1        1 KPL      0.024700
     18 H42         0.3810   -1.0310   -2.4240 h1        1 KPL      0.024700
     19 HO1         0.9440    0.0300   -4.3750 ho        1 KPL      0.378000
@<TRIPOS>BOND
     1    1    2 2   
     2    2    3 1   
     3    2    6 1   
     4    3    4 1   
     5    3    5 1   
     6    6    7 1   
     7    6    8 1   
     8    6    9 1   
     9    7   11 1   
    10    7   12 1   
    11    7   13 1   
    12    8   14 1   
    13    8   15 1   
    14    8   16 1   
    15    9   10 1   
    16    9   17 1   
    17    9   18 1   
    18   10   19 1   
@<TRIPOS>SUBSTRUCTURE
     1 KPL         1 TEMP              0 ****  ****    0 ROOT
