@<TRIPOS>MOLECULE
KPL
   19    18     1     0     0
SMALL
bcc


@<TRIPOS>ATOM
      1 O2          0.0140   -0.4260    0.0640 o         1 KPL     -0.594100
      2 C5          1.2310   -0.2070    0.0310 c         1 KPL      0.476100
      3 C6          2.1180   -0.1210    1.2870 c         1 KPL      0.861600
      4 O4          2.6570   -1.1880    1.6830 o         1 KPL     -0.812300
      5 O3          2.2600    1.0150    1.8120 o         1 KPL     -0.812300
      6 C2          1.9480   -0.0030   -1.3070 c3        1 KPL     -0.157000
      7 C3          3.0140   -1.0760   -1.4570 c3        1 KPL     -0.076100
      8 C1          2.5840    1.3770   -1.3130 c3        1 KPL     -0.076100
      9 C4          0.9330   -0.1140   -2.4480 c3        1 KPL      0.136400
     10 O1          1.6030    0.0760   -3.6890 oh        1 KPL     -0.609800
     11 H31         3.6850   -1.0700   -0.5620 hc        1 KPL      0.039700
     12 H32         3.6110   -0.8900   -2.3810 hc        1 KPL      0.039700
     13 H33         2.5390   -2.0830   -1.5330 hc        1 KPL      0.039700
     14 H11         3.2370    1.4970   -0.4130 hc        1 KPL      0.039700
     15 H12         3.1890    1.5100   -2.2410 hc        1 KPL      0.039700
     16 H13         1.7950    2.1650   -1.2830 hc        1 KPL      0.039700
     17 H41         0.1370    0.6690   -2.3250 h1        1 KPL      0.024700
     18 H42         0.4510   -1.1280   -2.4300 h1        1 KPL      0.024700
     19 HO1         0.9250   -0.0040   -4.3680 ho        1 KPL      0.378000
@<TRIPOS>BOND
     1    1    2 2   
     2    2    3 1   
     3    2    6 1   
     4    3    4 1   
     5    3    5 1   
     6    6    7 1   
     7    6    8 1   
     8    6    9 1   
     9    7   11 1   
    10    7   12 1   
    11    7   13 1   
    12    8   14 1   
    13    8   15 1   
    14    8   16 1   
    15    9   10 1   
    16    9   17 1   
    17    9   18 1   
    18   10   19 1   
@<TRIPOS>SUBSTRUCTURE
     1 KPL         1 TEMP              0 ****  ****    0 ROOT
