@<TRIPOS>MOLECULE
KPL
   19    17     1     0     0
SMALL
bcc


@<TRIPOS>ATOM
      1 O2         -2.0030    0.1780    1.0300 o         1 KPL     -0.364000
      2 C5         -0.7880    0.1780    1.0300 c1        1 KPL      0.191000
      3 C6         -0.0310    0.1780    2.3400 c1        1 KPL      0.331000
      4 O4          0.3450   -0.9100    2.8500 o         1 KPL     -0.545500
      5 O3          0.2220    1.2660    2.9210 o         1 KPL     -0.545500
      6 C2         -0.0310    0.1780   -0.2800 c3        1 KPL     -0.149000
      7 C3          1.2280    1.0030   -0.1350 c3        1 KPL     -0.198000
      8 C1         -0.9020    0.7730   -1.3650 c3        1 KPL     -0.198000
      9 C4          0.3360   -1.2420   -0.6500 c3        1 KPL      0.001000
     10 O1         -0.7100   -2.1110   -0.2750 oh        1 KPL     -0.359000
     11 H31         1.6800    1.0620   -0.9980 hc        1 KPL      0.079500
     12 H32         1.8220    0.5800    0.5140 hc        1 KPL      0.079500
     13 H33         0.9960    1.9000    0.1730 hc        1 KPL      0.079500
     14 H11        -1.6760    0.1970   -1.5130 hc        1 KPL      0.079500
     15 H12        -0.3880    0.8460   -2.1910 hc        1 KPL      0.079500
     16 H13        -1.2040    1.6590   -1.0900 hc        1 KPL      0.079500
     17 H41         1.1550   -1.4990   -0.1840 h1        1 KPL      0.067000
     18 H42         0.4780   -1.3010   -1.6140 h1        1 KPL      0.067000
     19 HO1        -0.5300   -2.9320   -0.5620 ho        1 KPL      0.226000
@<TRIPOS>BOND
     1    1    2 1   
     2    2    6 1   
     3    3    4 1   
     4    3    5 1   
     5    6    7 1   
     6    6    8 1   
     7    6    9 1   
     8    7   11 1   
     9    7   12 1   
    10    7   13 1   
    11    8   14 1   
    12    8   15 1   
    13    8   16 1   
    14    9   10 1   
    15    9   17 1   
    16    9   18 1   
    17   10   19 1   
@<TRIPOS>SUBSTRUCTURE
     1 KPL         1 TEMP              0 ****  ****    0 ROOT
