@<TRIPOS>MOLECULE
KPN
   40    41     1     0     0
SMALL
bcc


@<TRIPOS>ATOM
      1 C'         -3.9620   -1.4170   -1.0080 c         1 KPN      0.898600
      2 C1          1.0760    0.5100    1.0950 ca        1 KPN      0.412200
      3 N1          2.4070    0.6160    0.9750 nb        1 KPN     -0.674000
      4 C2          0.3020   -0.5080    0.4880 ca        1 KPN     -0.148600
      5 N2          5.2710   -1.3260    0.1010 nb        1 KPN     -0.661000
      6 C3          0.9740   -1.4500   -0.2980 ca        1 KPN     -0.098000
      7 C4          2.3620   -1.3610   -0.4360 ca        1 KPN     -0.212300
      8 C5          3.0450   -0.3160    0.2150 cp        1 KPN      0.317300
      9 C6          4.5190   -0.1960    0.0610 cp        1 KPN      0.373300
     10 C7          5.0880    1.0850   -0.1310 ca        1 KPN     -0.211300
     11 C8          6.4700    1.1940   -0.2880 ca        1 KPN     -0.105000
     12 C9          7.2500    0.0380   -0.2510 ca        1 KPN     -0.258300
     13 N1'        -5.7370    3.5050    0.1280 n3        1 KPN     -0.905800
     14 O1'        -3.1310   -2.3600   -1.1210 o         1 KPN     -0.830300
     15 C10         6.6000   -1.1930   -0.0540 ca        1 KPN      0.388200
     16 C2'        -4.9430    2.4590    0.7260 c3        1 KPN      0.133800
     17 C3'        -4.0230    1.7020   -0.2620 c3        1 KPN      0.037000
     18 N4'        -3.3050    0.6080    0.3570 n         1 KPN     -0.427800
     19 C5'        -3.9960   -0.6650    0.3570 c3        1 KPN     -0.058000
     20 C7'        -1.9220    0.6750    0.4450 c         1 KPN      0.663100
     21 O7'        -1.3380    1.7820    0.3800 o         1 KPN     -0.661100
     22 C8'        -1.1610   -0.6160    0.6990 c3        1 KPN     -0.137100
     23 O3         -4.7690   -1.0380   -1.8970 o         1 KPN     -0.830300
     24 H1          0.5770    1.3030    1.6850 h4        1 KPN      0.043100
     25 H3          0.4120   -2.2490   -0.8060 ha        1 KPN      0.161000
     26 H4          2.9090   -2.0940   -1.0440 ha        1 KPN      0.146000
     27 H7          4.4460    1.9770   -0.1490 ha        1 KPN      0.162000
     28 H8          6.9350    2.1790   -0.4380 ha        1 KPN      0.131000
     29 H9          8.3390    0.0810   -0.3700 ha        1 KPN      0.133000
     30 HN1'       -5.1440    4.1780   -0.3190 hn        1 KPN      0.337800
     31 HN1A       -6.3480    3.1200   -0.5690 hn        1 KPN      0.337800
     32 H10         7.1760   -2.1350   -0.0140 h4        1 KPN      0.013100
     33 H2'        -4.3120    2.9230    1.5350 h1        1 KPN      0.050700
     34 H2'A       -5.6470    1.7280    1.2130 h1        1 KPN      0.050700
     35 H3'        -4.6460    1.2790   -1.1070 h1        1 KPN      0.069700
     36 H3'A       -3.2850    2.4350   -0.6960 h1        1 KPN      0.069700
     37 H5'        -5.0710   -0.4670    0.6210 h1        1 KPN      0.036700
     38 H5'A       -3.5540   -1.3220    1.1550 h1        1 KPN      0.036700
     39 H8'        -1.5810   -1.4270    0.0230 hc        1 KPN      0.108700
     40 H8'A       -1.3530   -0.9280    1.7630 hc        1 KPN      0.108700
@<TRIPOS>BOND
     1    1   14 1   
     2    1   19 1   
     3    1   23 1   
     4    2    3 ar  
     5    2    4 ar  
     6    2   24 1   
     7    3    8 ar  
     8    4    6 ar  
     9    4   22 1   
    10    5    9 ar  
    11    5   15 ar  
    12    6    7 ar  
    13    6   25 1   
    14    7    8 ar  
    15    7   26 1   
    16    8    9 1   
    17    9   10 ar  
    18   10   11 ar  
    19   10   27 1   
    20   11   12 ar  
    21   11   28 1   
    22   12   15 ar  
    23   12   29 1   
    24   13   16 1   
    25   13   30 1   
    26   13   31 1   
    27   15   32 1   
    28   16   17 1   
    29   16   33 1   
    30   16   34 1   
    31   17   18 1   
    32   17   35 1   
    33   17   36 1   
    34   18   19 1   
    35   18   20 1   
    36   19   37 1   
    37   19   38 1   
    38   20   21 2   
    39   20   22 1   
    40   22   39 1   
    41   22   40 1   
@<TRIPOS>SUBSTRUCTURE
     1 KPN         1 TEMP              0 ****  ****    0 ROOT
