@<TRIPOS>MOLECULE
KPN
   40    33     1     0     0
SMALL
bcc


@<TRIPOS>ATOM
      1 C'          1.0060    3.8710   -2.9560 c1        1 KPN      0.785000
      2 C1         -0.6980   -1.0640    0.7870 c1        1 KPN      0.002500
      3 N1         -0.3790   -2.2670    1.3820 n1        1 KPN     -0.473800
      4 C2          0.0000   -0.6400   -0.3350 c1        1 KPN     -0.047100
      5 N2          2.1710   -4.1220    2.3700 n1        1 KPN     -0.459800
      6 C3          1.0030   -1.4150   -0.8460 c1        1 KPN     -0.078500
      7 C4          1.3170   -2.6090   -0.2530 c1        1 KPN     -0.078500
      8 C5          0.6140   -3.0330    0.8740 c1        1 KPN      0.313800
      9 C6          1.0370   -4.1800    1.5690 c1        1 KPN      0.047000
     10 C7          0.3540   -5.3830    1.4100 c1        1 KPN     -0.091500
     11 C8          0.8130   -6.5370    2.0620 c1        1 KPN     -0.078500
     12 C9          1.9440   -6.4740    2.8590 c1        1 KPN     -0.078500
     13 N1'        -2.6330    5.6990    0.4800 n3        1 KPN     -0.905800
     14 O1'         1.9520    3.7850   -2.1320 o         1 KPN     -0.798500
     15 C10         2.6240   -5.2600    3.0130 c1        1 KPN      0.308300
     16 C2'        -2.3120    4.4760   -0.2970 c3        1 KPN      0.133800
     17 C3'        -0.8050    4.2520   -0.3190 c3        1 KPN      0.037000
     18 N4'        -0.5110    3.1040   -1.1450 n         1 KPN     -0.391400
     19 C5'        -0.4030    3.2600   -2.6020 c2        1 KPN      0.134400
     20 C7'        -0.1280    1.8130   -0.5100 c         1 KPN      0.664100
     21 O7'         0.5240    1.8090    0.4850 o         1 KPN     -0.659100
     22 C8'        -0.5330    0.5100   -1.1500 c3        1 KPN     -0.172300
     23 O3          1.2120    4.3500   -4.0930 o         1 KPN     -0.798500
     24 H1         -1.4670   -0.5810    1.0760 ha        1 KPN      0.123500
     25 H3          1.4990   -1.1170   -1.6410 ha        1 KPN      0.085250
     26 H4          2.0950   -3.1360   -0.5800 ha        1 KPN      0.085250
     27 H7         -0.4030   -5.4450    0.7580 ha        1 KPN      0.101500
     28 H8          0.4090   -7.4230    1.8470 ha        1 KPN      0.085250
     29 H9          2.0440   -7.2940    3.4730 ha        1 KPN      0.085250
     30 HN1'       -3.1280    6.2860   -0.0560 hn        1 KPN      0.337800
     31 HN1A       -3.1350    5.4670    1.2250 hn        1 KPN      0.337800
     32 H10         3.4040   -5.2890    3.6640 ha        1 KPN      0.093500
     33 H2'        -2.6400    4.5800   -1.2200 h1        1 KPN      0.050700
     34 H2'A       -2.7360    3.7250    0.1080 h1        1 KPN      0.050700
     35 H3'        -0.4810    4.0860    0.6000 h1        1 KPN      0.069700
     36 H3'A       -0.3540    5.0530   -0.6900 h1        1 KPN      0.069700
     37 H5'        -1.1170    3.8630   -2.9260 h4        1 KPN     -0.053700
     38 H5'A       -0.5000    2.3560   -3.0460 h4        1 KPN     -0.053700
     39 H8'        -1.4920    0.4560   -1.1890 hc        1 KPN      0.108700
     40 H8'A       -0.1660    0.4650   -2.0580 hc        1 KPN      0.108700
@<TRIPOS>BOND
     1    1   14 2   
     2    1   23 2   
     3    2    4 3   
     4    2   24 1   
     5    3    8 3   
     6    4   22 1   
     7    5   15 3   
     8    6    7 3   
     9    6   25 1   
    10    7   26 1   
    11    9   10 3   
    12   10   27 1   
    13   11   12 3   
    14   11   28 1   
    15   12   29 1   
    16   13   16 1   
    17   13   30 1   
    18   13   31 1   
    19   15   32 1   
    20   16   17 1   
    21   16   33 1   
    22   16   34 1   
    23   17   18 1   
    24   17   35 1   
    25   17   36 1   
    26   18   19 2   
    27   18   20 1   
    28   19   37 1   
    29   19   38 1   
    30   20   21 2   
    31   20   22 1   
    32   22   39 1   
    33   22   40 1   
@<TRIPOS>SUBSTRUCTURE
     1 KPN         1 TEMP              0 ****  ****    0 ROOT
