@<TRIPOS>MOLECULE
KPS
   34    34     1     0     0
SMALL
bcc


@<TRIPOS>ATOM
      1 O3T         2.6840    1.4670    2.0310 o         1 KPS     -0.927500
      2 P           3.3760    1.8550    0.7650 p5        1 KPS      1.333900
      3 O1P         3.5990    3.3310    0.4830 o         1 KPS     -0.927500
      4 O2P         4.5230    1.0100    0.2780 o         1 KPS     -0.927500
      5 O5'         2.1950    1.6190   -0.4840 os        1 KPS     -0.573200
      6 C5'         2.6690    1.3400   -1.7400 c3        1 KPS      0.194400
      7 C4'         3.0760    2.6150   -2.5340 c3        1 KPS      0.095100
      8 O4'         2.3500    3.7410   -2.0900 oh        1 KPS     -0.660800
      9 C3'         4.5910    2.8580   -2.3450 c3        1 KPS      0.044100
     10 O3'         5.3190    1.9840   -3.2020 oh        1 KPS     -0.643800
     11 C2'         4.9690    4.3140   -2.6520 c3        1 KPS      0.184100
     12 O2'         4.7130    5.1550   -1.5420 oh        1 KPS     -0.694800
     13 C1'         6.4520    4.4460   -3.0300 c3        1 KPS     -0.047200
     14 C5          6.8160    5.7860   -3.5560 cc        1 KPS     -0.209400
     15 C6          6.2070    6.9330   -3.1390 cd        1 KPS      0.017600
     16 N1          6.5650    8.1820   -3.6260 ns        1 KPS     -0.468100
     17 C2          7.5800    8.3220   -4.5820 c         1 KPS      0.794500
     18 O2          7.8980    9.4550   -5.0240 o         1 KPS     -0.707500
     19 N3          8.2270    7.1630   -5.0250 ns        1 KPS     -0.596500
     20 C4          7.8970    5.8680   -4.5550 c         1 KPS      0.710700
     21 O4          8.5500    4.9230   -5.0280 o         1 KPS     -0.628500
     22 H3          1.8450    0.8330   -2.3240 h1        1 KPS     -0.007300
     23 H4          3.5550    0.6470   -1.6830 h1        1 KPS     -0.007300
     24 H5          2.8380    2.5020   -3.6250 h1        1 KPS      0.015700
     25 H6          2.3830    3.7010   -1.1030 ho        1 KPS      0.475000
     26 H7          4.8280    2.6310   -1.2480 h1        1 KPS      0.155700
     27 H8          5.4100    1.1660   -2.6970 ho        1 KPS      0.418000
     28 H9          4.3370    4.6980   -3.5030 h1        1 KPS      0.021700
     29 H10         4.2940    4.6340   -0.8190 ho        1 KPS      0.511000
     30 H11         6.6960    3.6660   -3.8010 hc        1 KPS      0.076700
     31 H12         7.0700    4.2320   -2.1170 hc        1 KPS      0.076700
     32 H14         5.3890    6.9220   -2.3830 h4        1 KPS      0.229000
     33 H15         8.9460    7.2730   -5.7040 hn        1 KPS      0.330500
     34 H13         6.1020    9.0030   -3.3180 hn        1 KPS      0.342500
@<TRIPOS>BOND
     1    1    2 1   
     2    2    3 1   
     3    2    4 1   
     4    2    5 1   
     5    5    6 1   
     6    6    7 1   
     7    6   22 1   
     8    6   23 1   
     9    7    8 1   
    10    7    9 1   
    11    7   24 1   
    12    8   25 1   
    13    9   10 1   
    14    9   11 1   
    15    9   26 1   
    16   10   27 1   
    17   11   12 1   
    18   11   13 1   
    19   11   28 1   
    20   12   29 1   
    21   13   14 1   
    22   13   30 1   
    23   13   31 1   
    24   14   15 2   
    25   14   20 1   
    26   15   16 1   
    27   15   32 1   
    28   16   17 1   
    29   16   34 1   
    30   17   18 2   
    31   17   19 1   
    32   19   20 1   
    33   19   33 1   
    34   20   21 2   
@<TRIPOS>SUBSTRUCTURE
     1 KPS         1 TEMP              0 ****  ****    0 ROOT
