@<TRIPOS>MOLECULE
KPS
   34    34     1     0     0
SMALL
bcc


@<TRIPOS>ATOM
      1 O3T        -4.6740    1.7320    1.8850 o         1 KPS     -0.916167
      2 P          -3.4460    0.9880    1.4710 p5        1 KPS      1.331900
      3 O1P        -2.1520    1.7640    1.2980 o         1 KPS     -0.916167
      4 O2P        -3.2050   -0.3850    2.0400 o         1 KPS     -0.916167
      5 O5'        -3.6710    0.6500   -0.2150 os        1 KPS     -0.588200
      6 C5'        -3.0360   -0.4580   -0.7150 c3        1 KPS      0.186400
      7 C4'        -1.5500   -0.1910   -1.0910 c3        1 KPS      0.097100
      8 O4'        -1.3460    1.1680   -1.4130 oh        1 KPS     -0.643800
      9 C3'        -0.6530   -0.5880    0.1040 c3        1 KPS      0.031100
     10 O3'        -0.4870   -2.0030    0.1190 oh        1 KPS     -0.633800
     11 C2'         0.7220    0.0910    0.0260 c3        1 KPS      0.161100
     12 O2'         0.6680    1.4150    0.5270 oh        1 KPS     -0.634800
     13 C1'         1.7820   -0.6860    0.8180 c3        1 KPS     -0.018200
     14 C5          3.1680   -0.2040    0.5910 cc        1 KPS     -0.335400
     15 C6          3.4620    1.1020    0.3340 cd        1 KPS      0.077600
     16 N1          4.7630    1.5450    0.1370 n         1 KPS     -0.417100
     17 C2          5.8450    0.6570    0.1920 c         1 KPS      0.780500
     18 O2          7.0220    1.0620    0.0090 o         1 KPS     -0.713500
     19 N3          5.5750   -0.6900    0.4600 n         1 KPS     -0.603500
     20 C4          4.2650   -1.1860    0.6690 c         1 KPS      0.726700
     21 O4          4.1640   -2.4030    0.9000 o         1 KPS     -0.706500
     22 H3         -3.0780   -1.3050    0.0280 h1        1 KPS      0.007700
     23 H4         -3.5680   -0.7740   -1.6600 h1        1 KPS      0.007700
     24 H5         -1.2560   -0.7740   -2.0030 h1        1 KPS      0.038700
     25 H6         -1.8110    1.6770   -0.7050 ho        1 KPS      0.415000
     26 H7         -1.1920   -0.2390    1.0520 h1        1 KPS      0.161700
     27 H8         -1.2500   -2.3330    0.6110 ho        1 KPS      0.399000
     28 H9          1.0470    0.1640   -1.0510 h1        1 KPS      0.047700
     29 H10        -0.2580    1.6410    0.7740 ho        1 KPS      0.450000
     30 H11         1.5410   -0.5990    1.9120 hc        1 KPS      0.043200
     31 H12         1.7160   -1.7720    0.5370 hc        1 KPS      0.043200
     32 H14         2.6680    1.8820    0.2710 h4        1 KPS      0.282000
     33 H15         6.3510   -1.3110    0.4960 hn        1 KPS      0.315500
     34 H13         4.9540    2.4990   -0.0590 hn        1 KPS      0.436500
@<TRIPOS>BOND
     1    1    2 1   
     2    2    3 1   
     3    2    4 1   
     4    2    5 1   
     5    5    6 1   
     6    6    7 1   
     7    6   22 1   
     8    6   23 1   
     9    7    8 1   
    10    7    9 1   
    11    7   24 1   
    12    8   25 1   
    13    9   10 1   
    14    9   11 1   
    15    9   26 1   
    16   10   27 1   
    17   11   12 1   
    18   11   13 1   
    19   11   28 1   
    20   12   29 1   
    21   13   14 1   
    22   13   30 1   
    23   13   31 1   
    24   14   15 2   
    25   14   20 1   
    26   15   16 1   
    27   15   32 1   
    28   16   17 1   
    29   16   34 1   
    30   17   18 2   
    31   17   19 1   
    32   19   20 1   
    33   19   33 1   
    34   20   21 2   
@<TRIPOS>SUBSTRUCTURE
     1 KPS         1 TEMP              0 ****  ****    0 ROOT
