@<TRIPOS>MOLECULE
KPS
   34    34     1     0     0
SMALL
bcc


@<TRIPOS>ATOM
      1 O3T        -0.0750    1.5070   -1.8160 o         1 KPS     -0.838000
      2 P           1.0090    1.3190   -0.8310 p5        1 KPS      1.423800
      3 O1P         0.8750    1.3150    0.6400 o         1 KPS     -0.838000
      4 O2P         1.7310   -0.0710   -1.3060 oh        1 KPS     -0.784400
      5 O5'         2.2420    2.3380   -1.2530 os        1 KPS     -0.574200
      6 C5'         3.3400    2.2600   -0.3950 c3        1 KPS      0.134400
      7 C4'         4.2700    3.4650   -0.6070 c3        1 KPS      0.102100
      8 O4'         5.0590    3.6440    0.5640 oh        1 KPS     -0.599800
      9 C3'         5.1840    3.3170   -1.8380 c3        1 KPS      0.095100
     10 O3'         4.7120    2.3380   -2.7460 oh        1 KPS     -0.615800
     11 C2'         5.3910    4.6590   -2.5850 c3        1 KPS      0.123100
     12 O2'         5.5030    5.7160   -1.6500 oh        1 KPS     -0.614800
     13 C1'         6.6030    4.5330   -3.5130 c3        1 KPS      0.015800
     14 C5          6.9560    5.7680   -4.2450 ce        1 KPS     -0.491500
     15 C6          6.5160    5.9730   -5.5470 c1        1 KPS     -0.081900
     16 N1          6.8960    7.1090   -6.2030 n         1 KPS     -0.414500
     17 C2          7.7130    8.1030   -5.6310 c         1 KPS      0.699100
     18 O2          8.0500    9.1510   -6.2570 o         1 KPS     -0.738100
     19 N3          8.1660    7.8880   -4.3260 n         1 KPS     -0.588500
     20 C4          7.8070    6.7330   -3.5810 c         1 KPS      0.676300
     21 O4          8.2850    6.6660   -2.4180 o         1 KPS     -0.719100
     22 H3          3.8920    1.3020   -0.6050 h1        1 KPS      0.038200
     23 H4          2.9800    2.2540    0.6740 h1        1 KPS      0.038200
     24 H5          3.6700    4.4130   -0.6880 h1        1 KPS      0.102700
     25 H6          5.5500    2.8250    0.6950 ho        1 KPS      0.377000
     26 H7          6.1880    2.9230   -1.5040 h1        1 KPS      0.044700
     27 H8          3.7680    2.5070   -2.8830 ho        1 KPS      0.429000
     28 H9          4.4660    4.8930   -3.1820 h1        1 KPS      0.066700
     29 H10         6.4450    5.8610   -1.4840 ho        1 KPS      0.421000
     30 H11         7.4850    4.2110   -2.8930 hc        1 KPS      0.035700
     31 H12         6.3720    3.7140   -4.2450 hc        1 KPS      0.035700
     32 H14         1.5880   -0.2450   -2.2290 ho        1 KPS      0.422000
     33 H15         8.7310    8.5880   -3.9070 hn        1 KPS      0.302500
     34 H13         6.5690    7.2830   -7.1210 hn        1 KPS      0.315500
@<TRIPOS>BOND
     1    1    2 1   
     2    2    3 1   
     3    2    4 1   
     4    2    5 1   
     5    4   32 1   
     6    5    6 1   
     7    6    7 1   
     8    6   22 1   
     9    6   23 1   
    10    7    8 1   
    11    7    9 1   
    12    7   24 1   
    13    8   25 1   
    14    9   10 1   
    15    9   11 1   
    16    9   26 1   
    17   10   27 1   
    18   11   12 1   
    19   11   13 1   
    20   11   28 1   
    21   12   29 1   
    22   13   14 1   
    23   13   30 1   
    24   13   31 1   
    25   14   15 2   
    26   14   20 1   
    27   15   16 2   
    28   16   17 1   
    29   16   34 1   
    30   17   18 2   
    31   17   19 1   
    32   19   20 1   
    33   19   33 1   
    34   20   21 2   
@<TRIPOS>SUBSTRUCTURE
     1 KPS         1 TEMP              0 ****  ****    0 ROOT
