@<TRIPOS>MOLECULE
KPS
   34    34     1     0     0
SMALL
bcc


@<TRIPOS>ATOM
      1 O3T         2.6160    1.5240    2.0220 o         1 KPS     -0.927500
      2 P           3.3380    1.8970    0.7690 p5        1 KPS      1.333900
      3 O1P         3.5210    3.3700    0.4480 o         1 KPS     -0.927500
      4 O2P         4.5310    1.0790    0.3500 o         1 KPS     -0.927500
      5 O5'         2.2120    1.5800   -0.5110 os        1 KPS     -0.573200
      6 C5'         2.7390    1.2790   -1.7410 c3        1 KPS      0.194400
      7 C4'         3.1290    2.5420   -2.5610 c3        1 KPS      0.095100
      8 O4'         2.3490    3.6540   -2.1800 oh        1 KPS     -0.660800
      9 C3'         4.6280    2.8460   -2.3280 c3        1 KPS      0.044100
     10 O3'         5.4150    1.9720   -3.1310 oh        1 KPS     -0.643800
     11 C2'         4.9670    4.3040   -2.6680 c3        1 KPS      0.184100
     12 O2'         4.6300    5.1710   -1.6010 oh        1 KPS     -0.694800
     13 C1'         6.4600    4.4760   -2.9840 c3        1 KPS     -0.047200
     14 C5          6.8030    5.8110   -3.5350 cc        1 KPS     -0.209400
     15 C6          6.1510    6.9510   -3.1650 cd        1 KPS      0.017600
     16 N1          6.4890    8.1970   -3.6750 n         1 KPS     -0.468100
     17 C2          7.5270    8.3400   -4.6060 c         1 KPS      0.794500
     18 O2          7.8270    9.4700   -5.0690 o         1 KPS     -0.707500
     19 N3          8.2190    7.1890   -4.9990 n         1 KPS     -0.596500
     20 C4          7.9100    5.8980   -4.5040 c         1 KPS      0.710700
     21 O4          8.6040    4.9600   -4.9320 o         1 KPS     -0.628500
     22 H3          3.6470    0.6200   -1.6310 h1        1 KPS     -0.007300
     23 H4          1.9550    0.7250   -2.3360 h1        1 KPS     -0.007300
     24 H5          2.9350    2.3860   -3.6550 h1        1 KPS      0.015700
     25 H6          2.3480    3.6470   -1.1920 ho        1 KPS      0.475000
     26 H7          4.8330    2.6610   -1.2170 h1        1 KPS      0.155700
     27 H8          5.5170    1.1730   -2.5960 ho        1 KPS      0.418000
     28 H9          4.3610    4.6360   -3.5590 h1        1 KPS      0.022700
     29 H10         4.2100    4.6570   -0.8730 ho        1 KPS      0.511000
     30 H11         7.0420    4.3110   -2.0380 hc        1 KPS      0.076700
     31 H12         6.7650    3.6820   -3.7180 hc        1 KPS      0.076700
     32 H14         5.3110    6.9360   -2.4340 h4        1 KPS      0.229000
     33 H15         8.9540    7.3020   -5.6590 hn        1 KPS      0.330500
     34 H13         5.9940    9.0120   -3.4040 hn        1 KPS      0.342500
@<TRIPOS>BOND
     1    1    2 1   
     2    2    3 1   
     3    2    4 1   
     4    2    5 1   
     5    5    6 1   
     6    6    7 1   
     7    6   22 1   
     8    6   23 1   
     9    7    8 1   
    10    7    9 1   
    11    7   24 1   
    12    8   25 1   
    13    9   10 1   
    14    9   11 1   
    15    9   26 1   
    16   10   27 1   
    17   11   12 1   
    18   11   13 1   
    19   11   28 1   
    20   12   29 1   
    21   13   14 1   
    22   13   30 1   
    23   13   31 1   
    24   14   15 2   
    25   14   20 1   
    26   15   16 1   
    27   15   32 1   
    28   16   17 1   
    29   16   34 1   
    30   17   18 2   
    31   17   19 1   
    32   19   20 1   
    33   19   33 1   
    34   20   21 2   
@<TRIPOS>SUBSTRUCTURE
     1 KPS         1 TEMP              0 ****  ****    0 ROOT
