@<TRIPOS>MOLECULE
KPT
   38    43     1     0     0
SMALL
bcc


@<TRIPOS>ATOM
      1 C36         0.0630    0.2180   -0.1310 c3        1 KPT      0.324200
      2 O4          1.4620   -0.1620   -0.0550 os        1 KPT     -0.304900
      3 O3         -0.3860    0.4740    1.2330 os        1 KPT     -0.325900
      4 C18         0.7040    0.2530    2.0530 ca        1 KPT      0.094100
      5 C13         0.7820    0.3670    3.4470 ca        1 KPT     -0.085000
      6 C14        -0.3050    0.7340    4.2770 ca        1 KPT      0.054700
      7 C17         1.8160   -0.1290    1.2840 ca        1 KPT      0.074100
      8 C16         3.0580   -0.4180    1.8570 ca        1 KPT     -0.030000
      9 C15         3.1550   -0.3100    3.2390 ca        1 KPT     -0.124000
     10 C12         2.0560    0.0750    4.0400 ca        1 KPT      0.013000
     11 C11         2.1500    0.1910    5.4540 ca        1 KPT     -0.103000
     12 C10         1.0690    0.5850    6.2290 ca        1 KPT      0.037700
     13 N          -0.1700    0.8400    5.6110 na        1 KPT      0.026900
     14 C9         -1.3190    1.2080    6.4460 c3        1 KPT     -0.000700
     15 C8         -1.3160    0.5060    7.7990 c3        1 KPT     -0.056100
     16 C6          1.1670    0.7280    7.6850 ca        1 KPT     -0.093000
     17 C5          0.0020    0.6570    8.4700 ca        1 KPT     -0.053300
     18 C4          0.0480    0.7260    9.8760 ca        1 KPT     -0.112000
     19 C7          2.4390    0.9250    8.2740 ca        1 KPT     -0.083000
     20 C3          2.4720    0.9960    9.6490 ca        1 KPT      0.067100
     21 C2          1.2950    0.8900   10.4440 ca        1 KPT      0.110100
     22 O2          1.6330    0.9950   11.7780 os        1 KPT     -0.311900
     23 O1          3.5690    1.1750   10.4760 os        1 KPT     -0.318900
     24 C1          3.0730    1.1760   11.8400 c3        1 KPT      0.320200
     25 H1         -0.0210    1.1690   -0.7140 h2        1 KPT      0.101700
     26 H21        -0.5220   -0.6430   -0.5390 h2        1 KPT      0.101700
     27 H2         -1.3000    0.9420    3.8240 h4        1 KPT      0.210000
     28 H3          3.9150   -0.7170    1.2320 ha        1 KPT      0.190000
     29 H4          4.1180   -0.5290    3.7320 ha        1 KPT      0.171000
     30 H5          3.1100   -0.0500    5.9410 ha        1 KPT      0.187000
     31 H6         -1.2720    2.3270    6.5970 h1        1 KPT      0.097700
     32 H7         -2.2680    0.9550    5.8920 h1        1 KPT      0.097700
     33 H8         -1.5540   -0.5870    7.6810 hc        1 KPT      0.094200
     34 H9         -2.1350    0.9630    8.4190 hc        1 KPT      0.094200
     35 H10        -0.8640    0.6570   10.4860 ha        1 KPT      0.177000
     36 H11         3.3550    1.0330    7.6790 ha        1 KPT      0.166000
     37 H12         3.5170    0.3050   12.3830 h2        1 KPT      0.095700
     38 H14         3.2860    2.1740   12.2970 h2        1 KPT      0.095700
@<TRIPOS>BOND
     1    1    2 1   
     2    1    3 1   
     3    1   25 1   
     4    1   26 1   
     5    2    7 1   
     6    3    4 1   
     7    4    5 ar  
     8    4    7 ar  
     9    5    6 ar  
    10    5   10 ar  
    11    6   13 2   
    12    6   27 1   
    13    7    8 ar  
    14    8    9 ar  
    15    8   28 1   
    16    9   10 ar  
    17    9   29 1   
    18   10   11 ar  
    19   11   12 ar  
    20   11   30 1   
    21   12   13 1   
    22   12   16 1   
    23   13   14 1   
    24   14   15 1   
    25   14   31 1   
    26   14   32 1   
    27   15   17 1   
    28   15   33 1   
    29   15   34 1   
    30   16   17 ar  
    31   16   19 ar  
    32   17   18 ar  
    33   18   21 ar  
    34   18   35 1   
    35   19   20 ar  
    36   19   36 1   
    37   20   21 ar  
    38   20   23 1   
    39   21   22 1   
    40   22   24 1   
    41   23   24 1   
    42   24   37 1   
    43   24   38 1   
@<TRIPOS>SUBSTRUCTURE
     1 KPT         1 TEMP              0 ****  ****    0 ROOT
