@<TRIPOS>MOLECULE
KPT
   38    43     1     0     0
SMALL
bcc


@<TRIPOS>ATOM
      1 C36         0.0560    0.1960   -0.1290 c3        1 KPT      0.324200
      2 O4          1.4490   -0.2030   -0.0510 os        1 KPT     -0.304900
      3 O3         -0.3890    0.4630    1.2340 os        1 KPT     -0.325900
      4 C18         0.6970    0.2310    2.0550 ca        1 KPT      0.094100
      5 C13         0.7770    0.3490    3.4480 ca        1 KPT     -0.085000
      6 C14        -0.3050    0.7350    4.2770 ca        1 KPT      0.054700
      7 C17         1.8040   -0.1710    1.2880 ca        1 KPT      0.074100
      8 C16         3.0420   -0.4740    1.8620 ca        1 KPT     -0.030000
      9 C15         3.1400   -0.3620    3.2440 ca        1 KPT     -0.124000
     10 C12         2.0470    0.0420    4.0430 ca        1 KPT      0.013000
     11 C11         2.1420    0.1630    5.4560 ca        1 KPT     -0.103000
     12 C10         1.0660    0.5740    6.2290 ca        1 KPT      0.037700
     13 N          -0.1690    0.8440    5.6100 na        1 KPT      0.026900
     14 C9         -1.3120    1.2330    6.4430 c3        1 KPT     -0.000700
     15 C8         -1.3190    0.5360    7.8000 c3        1 KPT     -0.056100
     16 C6          1.1660    0.7220    7.6850 ca        1 KPT     -0.093000
     17 C5          0.0010    0.6710    8.4700 ca        1 KPT     -0.053300
     18 C4          0.0470    0.7450    9.8760 ca        1 KPT     -0.112000
     19 C7          2.4410    0.9030    8.2740 ca        1 KPT     -0.083000
     20 C3          2.4750    0.9790    9.6480 ca        1 KPT      0.067100
     21 C2          1.2960    0.8930   10.4430 ca        1 KPT      0.110100
     22 O2          1.6350    0.9990   11.7770 os        1 KPT     -0.311900
     23 O1          3.5740    1.1450   10.4750 os        1 KPT     -0.318900
     24 C1          3.0780    1.1590   11.8390 c3        1 KPT      0.320200
     25 H1         -0.0140    1.1450   -0.7160 h2        1 KPT      0.101700
     26 H21        -0.5400   -0.6590   -0.5330 h2        1 KPT      0.101700
     27 H2         -1.2970    0.9550    3.8230 h4        1 KPT      0.210000
     28 H3          3.8950   -0.7880    1.2390 ha        1 KPT      0.190000
     29 H4          4.1000   -0.5930    3.7370 ha        1 KPT      0.171000
     30 H5          3.0990   -0.0910    5.9450 ha        1 KPT      0.187000
     31 H6         -2.2640    0.9910    5.8900 h1        1 KPT      0.097700
     32 H7         -1.2500    2.3510    6.5900 h1        1 KPT      0.097700
     33 H8         -2.1320    1.0070    8.4180 hc        1 KPT      0.094200
     34 H9         -1.5730   -0.5540    7.6860 hc        1 KPT      0.094200
     35 H10        -0.8660    0.6910   10.4860 ha        1 KPT      0.177000
     36 H11         3.3580    0.9960    7.6780 ha        1 KPT      0.166000
     37 H12         3.5090    0.2840   12.3850 h2        1 KPT      0.095700
     38 H14         3.3050    2.1560   12.2920 h2        1 KPT      0.095700
@<TRIPOS>BOND
     1    1    2 1   
     2    1    3 1   
     3    1   25 1   
     4    1   26 1   
     5    2    7 1   
     6    3    4 1   
     7    4    5 ar  
     8    4    7 ar  
     9    5    6 ar  
    10    5   10 ar  
    11    6   13 2   
    12    6   27 1   
    13    7    8 ar  
    14    8    9 ar  
    15    8   28 1   
    16    9   10 ar  
    17    9   29 1   
    18   10   11 ar  
    19   11   12 ar  
    20   11   30 1   
    21   12   13 1   
    22   12   16 1   
    23   13   14 1   
    24   14   15 1   
    25   14   31 1   
    26   14   32 1   
    27   15   17 1   
    28   15   33 1   
    29   15   34 1   
    30   16   17 ar  
    31   16   19 ar  
    32   17   18 ar  
    33   18   21 ar  
    34   18   35 1   
    35   19   20 ar  
    36   19   36 1   
    37   20   21 ar  
    38   20   23 1   
    39   21   22 1   
    40   22   24 1   
    41   23   24 1   
    42   24   37 1   
    43   24   38 1   
@<TRIPOS>SUBSTRUCTURE
     1 KPT         1 TEMP              0 ****  ****    0 ROOT
