@<TRIPOS>MOLECULE
KPV
   25    25     1     0     0
SMALL
bcc


@<TRIPOS>ATOM
      1 C1         -0.1940    0.0820    0.1200 ca        1 KPV     -0.057300
      2 C2          1.2030    0.0890    0.0060 ca        1 KPV     -0.129500
      3 C3          2.0030   -0.0270    1.1400 ca        1 KPV     -0.133500
      4 C4          1.4190   -0.1520    2.4010 ca        1 KPV     -0.147000
      5 C5          0.0310   -0.1580    2.5230 ca        1 KPV     -0.133500
      6 C6         -0.7720   -0.0420    1.3890 ca        1 KPV     -0.129500
      7 C7         -1.0460    0.1910   -1.0950 c3        1 KPV     -0.044100
      8 C8         -0.9260    1.5480   -1.7640 c3        1 KPV     -0.068400
      9 C9         -1.7650    1.6090   -3.0190 c3        1 KPV     -0.198400
     10 C10        -1.6490    2.9160   -3.7640 c         1 KPV      0.468100
     11 C11        -2.5140    2.9660   -5.0340 c         1 KPV      0.854600
     12 O1         -1.9900    2.5430   -6.0980 o         1 KPV     -0.815800
     13 O2         -3.6960    3.3810   -4.9060 o         1 KPV     -0.815800
     14 O3         -0.9200    3.8320   -3.3670 o         1 KPV     -0.592100
     15 H2          1.6630    0.1960   -0.9880 ha        1 KPV      0.134000
     16 H3          3.0980   -0.0160    1.0410 ha        1 KPV      0.121000
     17 H4          2.0520   -0.2420    3.2950 ha        1 KPV      0.119000
     18 H5         -0.4340   -0.2520    3.5150 ha        1 KPV      0.121000
     19 H6         -1.8680   -0.0420    1.4910 ha        1 KPV      0.134000
     20 H71        -2.1210    0.0050   -0.8310 hc        1 KPV      0.044700
     21 H72        -0.7420   -0.6080   -1.8250 hc        1 KPV      0.044700
     22 H81        -1.2520    2.3550   -1.0580 hc        1 KPV      0.048200
     23 H82         0.1460    1.7540   -2.0220 hc        1 KPV      0.048200
     24 H91        -2.8500    1.4600   -2.7710 hc        1 KPV      0.063200
     25 H92        -1.4660    0.7940   -3.7300 hc        1 KPV      0.063200
@<TRIPOS>BOND
     1    1    2 ar  
     2    1    6 ar  
     3    1    7 1   
     4    2    3 ar  
     5    2   15 1   
     6    3    4 ar  
     7    3   16 1   
     8    4    5 ar  
     9    4   17 1   
    10    5    6 ar  
    11    5   18 1   
    12    6   19 1   
    13    7    8 1   
    14    7   20 1   
    15    7   21 1   
    16    8    9 1   
    17    8   22 1   
    18    8   23 1   
    19    9   10 1   
    20    9   24 1   
    21    9   25 1   
    22   10   11 1   
    23   10   14 2   
    24   11   12 1   
    25   11   13 1   
@<TRIPOS>SUBSTRUCTURE
     1 KPV         1 TEMP              0 ****  ****    0 ROOT
