@<TRIPOS>MOLECULE
KPV
   25    22     1     0     0
SMALL
bcc


@<TRIPOS>ATOM
      1 C1         -0.0730   -0.4450    1.3900 c1        1 KPV     -0.023100
      2 C2          1.0780   -1.2020    1.5410 c1        1 KPV     -0.077500
      3 C3          1.7550   -1.2020    2.7510 c1        1 KPV     -0.077500
      4 C4          1.2790   -0.4450    3.8100 c1        1 KPV     -0.077500
      5 C5          0.1280    0.3110    3.6600 c1        1 KPV     -0.077500
      6 C6         -0.5480    0.3110    2.4500 c1        1 KPV     -0.075500
      7 C7         -0.8410   -0.4880    0.0870 c3        1 KPV     -0.078300
      8 C8         -0.2000    0.4550   -0.9070 c3        1 KPV     -0.068400
      9 C9         -1.0300    0.4950   -2.1710 c3        1 KPV     -0.198400
     10 C10        -0.2030    1.0680   -3.3000 c         1 KPV      0.468100
     11 C11        -0.2630    0.4420   -4.6760 c         1 KPV      0.854600
     12 O1          0.6040   -0.4020   -5.0220 o         1 KPV     -0.815800
     13 O2         -1.1800    0.7670   -5.4760 o         1 KPV     -0.815800
     14 O3          0.5030    2.0380   -3.1050 o         1 KPV     -0.592100
     15 H2          1.4130   -1.7350    0.7950 ha        1 KPV      0.067250
     16 H3          2.5660   -1.7350    2.8570 ha        1 KPV      0.067250
     17 H4          1.7550   -0.4450    4.6620 ha        1 KPV      0.067250
     18 H5         -0.2060    0.8460    4.4050 ha        1 KPV      0.067250
     19 H6         -1.3610    0.8420    2.3450 ha        1 KPV      0.072500
     20 H71        -0.8260   -1.3980   -0.2700 hc        1 KPV      0.044700
     21 H72        -1.7670   -0.2150    0.2450 hc        1 KPV      0.044700
     22 H81        -0.1510    1.3520   -0.5210 hc        1 KPV      0.048200
     23 H82         0.7020    0.1410   -1.1190 hc        1 KPV      0.048200
     24 H91        -1.8180    1.0570   -2.0260 hc        1 KPV      0.063200
     25 H92        -1.3150   -0.4110   -2.4030 hc        1 KPV      0.063200
@<TRIPOS>BOND
     1    1    6 3   
     2    1    7 1   
     3    2    3 3   
     4    2   15 1   
     5    3   16 1   
     6    4    5 3   
     7    4   17 1   
     8    5   18 1   
     9    6   19 1   
    10    7    8 1   
    11    7   20 1   
    12    7   21 1   
    13    8    9 1   
    14    8   22 1   
    15    8   23 1   
    16    9   10 1   
    17    9   24 1   
    18    9   25 1   
    19   10   11 1   
    20   10   14 2   
    21   11   12 1   
    22   11   13 1   
@<TRIPOS>SUBSTRUCTURE
     1 KPV         1 TEMP              0 ****  ****    0 ROOT
