@<TRIPOS>MOLECULE
KPV
   25    25     1     0     0
SMALL
bcc


@<TRIPOS>ATOM
      1 C1         -0.1420    0.0640    0.0860 ca        1 KPV     -0.057300
      2 C2          1.2520    0.1760   -0.0080 ca        1 KPV     -0.129500
      3 C3          2.0470    0.0690    1.1300 ca        1 KPV     -0.133500
      4 C4          1.4610   -0.1520    2.3770 ca        1 KPV     -0.147000
      5 C5          0.0750   -0.2620    2.4790 ca        1 KPV     -0.133500
      6 C6         -0.7230   -0.1550    1.3410 ca        1 KPV     -0.129500
      7 C7         -0.9870    0.1640   -1.1350 c3        1 KPV     -0.044100
      8 C8         -0.9600    1.5540   -1.7430 c3        1 KPV     -0.068400
      9 C9         -1.7880    1.6080   -3.0060 c3        1 KPV     -0.198400
     10 C10        -1.7620    2.9520   -3.6910 c         1 KPV      0.468100
     11 C11        -2.6120    2.9930   -4.9710 c         1 KPV      0.854600
     12 O1         -2.0450    2.6590   -6.0450 o         1 KPV     -0.815800
     13 O2         -3.8240    3.3130   -4.8430 o         1 KPV     -0.815800
     14 O3         -1.1090    3.9010   -3.2430 o         1 KPV     -0.592100
     15 H2          1.7130    0.3580   -0.9910 ha        1 KPV      0.134000
     16 H3          3.1390    0.1630    1.0460 ha        1 KPV      0.121000
     17 H4          2.0890   -0.2350    3.2740 ha        1 KPV      0.119000
     18 H5         -0.3910   -0.4320    3.4600 ha        1 KPV      0.121000
     19 H6         -1.8160   -0.2380    1.4290 ha        1 KPV      0.134000
     20 H71        -2.0480   -0.1120   -0.8930 hc        1 KPV      0.044700
     21 H72        -0.6180   -0.5780   -1.8940 hc        1 KPV      0.044700
     22 H81        -1.3520    2.3030   -1.0070 hc        1 KPV      0.048200
     23 H82         0.0960    1.8490   -1.9770 hc        1 KPV      0.048200
     24 H91        -2.8610    1.3680   -2.7800 hc        1 KPV      0.063200
     25 H92        -1.4210    0.8500   -3.7470 hc        1 KPV      0.063200
@<TRIPOS>BOND
     1    1    2 ar  
     2    1    6 ar  
     3    1    7 1   
     4    2    3 ar  
     5    2   15 1   
     6    3    4 ar  
     7    3   16 1   
     8    4    5 ar  
     9    4   17 1   
    10    5    6 ar  
    11    5   18 1   
    12    6   19 1   
    13    7    8 1   
    14    7   20 1   
    15    7   21 1   
    16    8    9 1   
    17    8   22 1   
    18    8   23 1   
    19    9   10 1   
    20    9   24 1   
    21    9   25 1   
    22   10   11 1   
    23   10   14 2   
    24   11   12 1   
    25   11   13 1   
@<TRIPOS>SUBSTRUCTURE
     1 KPV         1 TEMP              0 ****  ****    0 ROOT
