@<TRIPOS>MOLECULE
KPV
   25    25     1     0     0
SMALL
bcc


@<TRIPOS>ATOM
      1 C1          2.3020   -0.4660   -0.1740 ca        1 KPV     -0.057300
      2 C2          3.1140   -0.3050   -1.3030 ca        1 KPV     -0.129500
      3 C3          4.4100    0.1930   -1.1750 ca        1 KPV     -0.133500
      4 C4          4.9090    0.5350    0.0810 ca        1 KPV     -0.147000
      5 C5          4.1050    0.3800    1.2100 ca        1 KPV     -0.133500
      6 C6          2.8100   -0.1180    1.0850 ca        1 KPV     -0.129500
      7 C7          0.9230   -1.0120   -0.3020 c3        1 KPV     -0.044100
      8 C8         -0.1390    0.0160    0.0410 c3        1 KPV     -0.068400
      9 C9         -1.5220   -0.5830   -0.0520 c3        1 KPV     -0.198400
     10 C10        -2.6240    0.3740    0.3280 c         1 KPV      0.468100
     11 C11        -4.0260   -0.2470    0.2240 c         1 KPV      0.854600
     12 O1         -4.4650   -0.8410    1.2440 o         1 KPV     -0.815800
     13 O2         -4.6120   -0.1570   -0.8870 o         1 KPV     -0.815800
     14 O3         -2.3890    1.5340    0.6850 o         1 KPV     -0.592100
     15 H2          2.7230   -0.5680   -2.2970 ha        1 KPV      0.134000
     16 H3          5.0380    0.3190   -2.0690 ha        1 KPV      0.121000
     17 H4          5.9290    0.9290    0.1800 ha        1 KPV      0.119000
     18 H5          4.4920    0.6530    2.2020 ha        1 KPV      0.121000
     19 H6          2.1720   -0.2340    1.9740 ha        1 KPV      0.134000
     20 H71         0.7520   -1.3850   -1.3470 hc        1 KPV      0.044700
     21 H72         0.8170   -1.8950    0.3850 hc        1 KPV      0.044700
     22 H81         0.0290    0.4090    1.0780 hc        1 KPV      0.048200
     23 H82        -0.0640    0.8920   -0.6540 hc        1 KPV      0.048200
     24 H91        -1.7280   -0.9320   -1.0980 hc        1 KPV      0.063200
     25 H92        -1.6090   -1.4740    0.6250 hc        1 KPV      0.063200
@<TRIPOS>BOND
     1    1    2 ar  
     2    1    6 ar  
     3    1    7 1   
     4    2    3 ar  
     5    2   15 1   
     6    3    4 ar  
     7    3   16 1   
     8    4    5 ar  
     9    4   17 1   
    10    5    6 ar  
    11    5   18 1   
    12    6   19 1   
    13    7    8 1   
    14    7   20 1   
    15    7   21 1   
    16    8    9 1   
    17    8   22 1   
    18    8   23 1   
    19    9   10 1   
    20    9   24 1   
    21    9   25 1   
    22   10   11 1   
    23   10   14 2   
    24   11   12 1   
    25   11   13 1   
@<TRIPOS>SUBSTRUCTURE
     1 KPV         1 TEMP              0 ****  ****    0 ROOT
