@<TRIPOS>MOLECULE
KQ7
   80    84     1     0     0
SMALL
bcc


@<TRIPOS>ATOM
      1 C1          0.9090    0.5370    0.0280 c3        1 KQ7      0.165300
      2 N2          1.6950   -0.1970   -0.9580 nh        1 KQ7     -0.720300
      3 C3          2.2230    0.5240   -2.1010 c3        1 KQ7      0.165300
      4 C4          1.3850    1.7400   -2.5280 c3        1 KQ7      0.114400
      5 O5          0.9760    2.5110   -1.4130 os        1 KQ7     -0.381600
      6 C6          0.1580    1.7490   -0.5370 c3        1 KQ7      0.114400
      7 C7          2.2500   -1.4110   -0.6150 ca        1 KQ7      0.705200
      8 N8          1.8280   -2.0430    0.5460 nb        1 KQ7     -0.672000
      9 C9          2.2900   -3.2580    0.8220 ca        1 KQ7      0.494200
     10 C10         3.2230   -3.9680    0.0320 ca        1 KQ7     -0.337300
     11 C11         3.6900   -3.3230   -1.1180 ca        1 KQ7     -0.108600
     12 C12         3.2300   -2.0510   -1.4630 ca        1 KQ7     -0.266300
     13 C13         4.6610   -3.9470   -2.0190 c         1 KQ7      0.601700
     14 O14         4.8420   -3.8280   -3.2170 o         1 KQ7     -0.429100
     15 N15         5.6210   -4.9430   -1.3110 n4        1 KQ7     -0.573200
     16 C16         6.9740   -4.9880   -1.8600 ca        1 KQ7     -0.013400
     17 C17         8.0600   -4.5720   -1.0630 ca        1 KQ7     -0.041000
     18 C18         9.3510   -4.6330   -1.5740 ca        1 KQ7     -0.086000
     19 C19         9.6090   -5.0960   -2.8720 ca        1 KQ7      0.018700
     20 C20         8.5100   -5.5010   -3.6640 ca        1 KQ7     -0.049400
     21 C21         7.1940   -5.4460   -3.1690 ca        1 KQ7     -0.049000
     22 C22        11.0060   -5.1640   -3.3590 c3        1 KQ7     -0.108800
     23 N23         8.7400   -6.0100   -5.0230 n4        1 KQ7     -0.543200
     24 C24         8.6450   -4.9490   -6.1190 c         1 KQ7      0.561700
     25 O25         8.0330   -3.9310   -5.8450 o         1 KQ7     -0.356100
     26 C26         9.3040   -5.2630   -7.3950 ca        1 KQ7     -0.293900
     27 C27         9.6060   -4.1890   -8.2490 ca        1 KQ7      0.021000
     28 C28        10.2010   -4.4410   -9.4920 ca        1 KQ7     -0.198300
     29 C29        10.4720   -5.7830   -9.8390 ca        1 KQ7      0.541200
     30 N30        10.1700   -6.8380   -9.0220 nb        1 KQ7     -0.623000
     31 C31         9.6030   -6.5750   -7.8410 ca        1 KQ7      0.470200
     32 N32        11.1000   -6.0920  -11.1400 n4        1 KQ7     -0.766700
     33 C33        10.0960   -6.0540  -12.2710 c3        1 KQ7      0.119800
     34 C34        10.7800   -6.2220  -13.6190 c3        1 KQ7     -0.109400
     35 C35         9.7430   -6.0770  -14.7530 c3        1 KQ7      0.173500
     36 C36        10.4770   -6.2070  -16.1090 c3        1 KQ7     -0.093400
     37 C37        10.3900   -4.8380  -16.7670 c3        1 KQ7     -0.102400
     38 C38         9.5560   -3.9600  -15.8220 c3        1 KQ7      0.151800
     39 N39         9.0680   -4.7690  -14.6970 n3        1 KQ7     -0.755600
     40 C40         7.6260   -4.8690  -14.6360 c3        1 KQ7      0.144100
     41 H1          1.6030    0.8860    0.8470 h1        1 KQ7      0.066950
     42 H1A         0.1420   -0.1550    0.4810 h1        1 KQ7      0.066950
     43 H3          2.2630   -0.1730   -2.9870 h1        1 KQ7      0.066950
     44 H3A         3.2710    0.8710   -1.8660 h1        1 KQ7      0.066950
     45 H4          0.4910    1.4080   -3.1190 h1        1 KQ7      0.079200
     46 H4A         2.0190    2.4340   -3.1410 h1        1 KQ7      0.079200
     47 H6         -0.0980    2.4540    0.2990 h1        1 KQ7      0.079200
     48 H6A        -0.7770    1.4250   -1.0680 h1        1 KQ7      0.079200
     49 H9          1.8890   -3.7120    1.7530 h4        1 KQ7      0.064100
     50 H10         3.4920   -4.9890    0.3210 ha        1 KQ7      0.139000
     51 H12         3.6150   -1.5550   -2.3650 ha        1 KQ7      0.167000
     52 HN15        5.6650   -4.6790   -0.3140 hn        1 KQ7      0.476300
     53 H17         7.9110   -4.1960   -0.0320 ha        1 KQ7      0.195000
     54 H18        10.1990   -4.3090   -0.9380 ha        1 KQ7      0.207000
     55 H21         6.3360   -5.7340   -3.8050 ha        1 KQ7      0.180000
     56 H22        11.7140   -4.7030   -2.6180 hc        1 KQ7      0.086700
     57 H22A       11.1280   -4.6080   -4.3220 hc        1 KQ7      0.086700
     58 H22B       11.3270   -6.2290   -3.4980 hc        1 KQ7      0.086700
     59 HN23        8.0400   -6.7390   -5.2240 hn        1 KQ7      0.473300
     60 H27         9.3720   -3.1470   -7.9530 ha        1 KQ7      0.210000
     61 H28        10.4370   -3.5980  -10.1680 ha        1 KQ7      0.211000
     62 H31         9.3710   -7.4850   -7.2510 h4        1 KQ7      0.054100
     63 HN32       11.8350   -5.3930  -11.3200 hn        1 KQ7      0.479800
     64 H33         9.5660   -5.0590  -12.2140 hx        1 KQ7      0.118200
     65 H33A        9.3540   -6.8840  -12.0950 hx        1 KQ7      0.118200
     66 H34        11.2420   -7.2400  -13.7040 hc        1 KQ7      0.075700
     67 H34A       11.5830   -5.4500  -13.7580 hc        1 KQ7      0.075700
     68 H35         9.0010   -6.9190  -14.6400 h1        1 KQ7      0.061700
     69 H36         9.9680   -6.9840  -16.7340 hc        1 KQ7      0.067200
     70 H36A       11.5380   -6.5260  -15.9730 hc        1 KQ7      0.067200
     71 H37         9.9030   -4.9080  -17.7720 hc        1 KQ7      0.073200
     72 H37A       11.4050   -4.3950  -16.9160 hc        1 KQ7      0.073200
     73 H38        10.1920   -3.1430  -15.3850 h1        1 KQ7      0.062200
     74 H38A        8.7100   -3.4750  -16.3810 h1        1 KQ7      0.062200
     75 H40         7.1690   -5.3940  -15.5180 h1        1 KQ7      0.042700
     76 H40A        7.2000   -3.8320  -14.5810 h1        1 KQ7      0.042700
     77 H40B        7.3420   -5.4260  -13.7050 h1        1 KQ7      0.042700
     78 H152        5.2020   -5.8810   -1.3740 hn        1 KQ7      0.476300
     79 H232        9.6780   -6.4360   -5.0560 hn        1 KQ7      0.473300
     80 H322       11.5400   -7.0270  -11.1180 hn        1 KQ7      0.479800
@<TRIPOS>BOND
     1    1    2 1   
     2    1    6 1   
     3    1   41 1   
     4    1   42 1   
     5    2    3 1   
     6    2    7 1   
     7    3    4 1   
     8    3   43 1   
     9    3   44 1   
    10    4    5 1   
    11    4   45 1   
    12    4   46 1   
    13    5    6 1   
    14    6   47 1   
    15    6   48 1   
    16    7    8 ar  
    17    7   12 ar  
    18    8    9 ar  
    19    9   10 ar  
    20    9   49 1   
    21   10   11 ar  
    22   10   50 1   
    23   11   12 ar  
    24   11   13 1   
    25   12   51 1   
    26   13   14 2   
    27   13   15 1   
    28   15   16 1   
    29   15   52 1   
    30   15   78 1   
    31   16   17 ar  
    32   16   21 ar  
    33   17   18 ar  
    34   17   53 1   
    35   18   19 ar  
    36   18   54 1   
    37   19   20 ar  
    38   19   22 1   
    39   20   21 ar  
    40   20   23 1   
    41   21   55 1   
    42   22   56 1   
    43   22   57 1   
    44   22   58 1   
    45   23   24 1   
    46   23   59 1   
    47   23   79 1   
    48   24   25 2   
    49   24   26 1   
    50   26   27 ar  
    51   26   31 ar  
    52   27   28 ar  
    53   27   60 1   
    54   28   29 ar  
    55   28   61 1   
    56   29   30 ar  
    57   29   32 1   
    58   30   31 ar  
    59   31   62 1   
    60   32   33 1   
    61   32   63 1   
    62   32   80 1   
    63   33   34 1   
    64   33   64 1   
    65   33   65 1   
    66   34   35 1   
    67   34   66 1   
    68   34   67 1   
    69   35   36 1   
    70   35   39 1   
    71   35   68 1   
    72   36   37 1   
    73   36   69 1   
    74   36   70 1   
    75   37   38 1   
    76   37   71 1   
    77   37   72 1   
    78   38   39 1   
    79   38   73 1   
    80   38   74 1   
    81   39   40 1   
    82   40   75 1   
    83   40   76 1   
    84   40   77 1   
@<TRIPOS>SUBSTRUCTURE
     1 KQ7         1 TEMP              0 ****  ****    0 ROOT
