@<TRIPOS>MOLECULE
KQ7
   77    81     1     0     0
SMALL
bcc


@<TRIPOS>ATOM
      1 C1         -0.1050   -0.0320    0.1300 c3        1 KQ7      0.147800
      2 N2          1.3260   -0.2480    0.3060 nh        1 KQ7     -0.727300
      3 C3          1.7620    0.0250    1.6720 c3        1 KQ7      0.147800
      4 C4          1.2820    1.4010    2.1560 c3        1 KQ7      0.122900
      5 O5         -0.1230    1.5520    1.9990 os        1 KQ7     -0.413600
      6 C6         -0.5370    1.3450    0.6530 c3        1 KQ7      0.122900
      7 C7          1.8680   -1.4420   -0.2550 ca        1 KQ7      0.616200
      8 N8          1.0460   -2.4040   -0.7820 nb        1 KQ7     -0.699000
      9 C9          1.6140   -3.4640   -1.3740 ca        1 KQ7      0.421200
     10 C10         3.0000   -3.6650   -1.4870 ca        1 KQ7     -0.257300
     11 C11         3.8400   -2.6860   -0.9500 ca        1 KQ7     -0.088600
     12 C12         3.2900   -1.5670   -0.3270 ca        1 KQ7     -0.215300
     13 C13         5.3330   -2.8100   -0.9950 c         1 KQ7      0.677700
     14 O14         6.0230   -2.5340    0.0030 o         1 KQ7     -0.580100
     15 N15         5.8590   -3.2320   -2.2050 n         1 KQ7     -0.462100
     16 C16         7.2130   -3.4260   -2.5280 ca        1 KQ7      0.088600
     17 C17         8.2650   -3.2080   -1.6190 ca        1 KQ7     -0.178000
     18 C18         9.5760   -3.4240   -2.0250 ca        1 KQ7     -0.082000
     19 C19         9.8990   -3.8490   -3.3120 ca        1 KQ7     -0.154300
     20 C20         8.8450   -4.0790   -4.2420 ca        1 KQ7      0.098600
     21 C21         7.5160   -3.8680   -3.8370 ca        1 KQ7     -0.208000
     22 C22        11.3210   -4.0500   -3.6770 c3        1 KQ7     -0.048800
     23 N23         9.1620   -4.5390   -5.5310 n         1 KQ7     -0.471100
     24 C24         8.3460   -4.5180   -6.6580 c         1 KQ7      0.697700
     25 O25         7.1790   -4.0800   -6.6430 o         1 KQ7     -0.598100
     26 C26         8.9490   -5.0410   -7.9090 ca        1 KQ7     -0.336900
     27 C27         8.5760   -4.4660   -9.1340 ca        1 KQ7      0.000000
     28 C28         9.1200   -4.9490  -10.3140 ca        1 KQ7     -0.319300
     29 C29        10.0530   -6.0350  -10.2590 ca        1 KQ7      0.679200
     30 N30        10.3910   -6.6230   -9.0560 nb        1 KQ7     -0.740000
     31 C31         9.8520   -6.1220   -7.9410 ca        1 KQ7      0.471200
     32 N32        10.6890   -6.4880  -11.4090 nh        1 KQ7     -0.852900
     33 C33        10.1090   -6.2240  -12.7040 c3        1 KQ7      0.202800
     34 C34        10.7160   -7.0810  -13.8130 c3        1 KQ7     -0.081400
     35 C35         9.9410   -6.9050  -15.1250 c3        1 KQ7      0.176500
     36 C36        10.4950   -7.8810  -16.1880 c3        1 KQ7     -0.091400
     37 C37        10.8340   -7.0410  -17.4100 c3        1 KQ7     -0.097400
     38 C38        10.6210   -5.5800  -16.9900 c3        1 KQ7      0.160800
     39 N39        10.0340   -5.5300  -15.6510 n3        1 KQ7     -0.729600
     40 C40         8.7940   -4.7960  -15.5790 c3        1 KQ7      0.155100
     41 H1         -0.3400   -0.0850   -0.9690 h1        1 KQ7      0.056700
     42 H1A        -0.7110   -0.8220    0.6600 h1        1 KQ7      0.056700
     43 H3          1.3730   -0.7590    2.3840 h1        1 KQ7      0.056700
     44 H3A         2.8850    0.0080    1.7100 h1        1 KQ7      0.056700
     45 H4          1.4540    1.4970    3.2600 h1        1 KQ7      0.056950
     46 H4A         1.8130    2.2220    1.6070 h1        1 KQ7      0.056950
     47 H6         -1.6560    1.4020    0.6920 h1        1 KQ7      0.056950
     48 H6A        -0.1300    2.1640    0.0040 h1        1 KQ7      0.056950
     49 H9          0.9040   -4.2080   -1.7800 h4        1 KQ7      0.027100
     50 H10         3.3910   -4.5720   -1.9660 ha        1 KQ7      0.151000
     51 H12         3.9550   -0.7990    0.0960 ha        1 KQ7      0.167000
     52 HN15        5.2140   -3.3880   -2.9500 hn        1 KQ7      0.325500
     53 H17         8.0670   -2.8680   -0.5890 ha        1 KQ7      0.173000
     54 H18        10.3880   -3.2470   -1.3010 ha        1 KQ7      0.135000
     55 H21         6.6960   -4.0430   -4.5550 ha        1 KQ7      0.168000
     56 H22        11.9930   -3.7740   -2.8270 hc        1 KQ7      0.041367
     57 H22A       11.6020   -3.4150   -4.5540 hc        1 KQ7      0.041367
     58 H22B       11.5190   -5.1220   -3.9340 hc        1 KQ7      0.041367
     59 HN23       10.1130   -4.7980   -5.6740 hn        1 KQ7      0.320500
     60 H27         7.8480   -3.6380   -9.1450 ha        1 KQ7      0.159000
     61 H28         8.8430   -4.4960  -11.2750 ha        1 KQ7      0.150000
     62 H31        10.1520   -6.6500   -7.0150 h4        1 KQ7      0.022100
     63 HN32       11.2320   -7.3210  -11.3290 hn        1 KQ7      0.432800
     64 H33        10.2800   -5.1340  -12.9430 h1        1 KQ7      0.049700
     65 H33A        8.9920   -6.3960  -12.6780 h1        1 KQ7      0.049700
     66 H34        11.7920   -6.8060  -13.9600 hc        1 KQ7      0.053700
     67 H34A       10.6700   -8.1680  -13.5380 hc        1 KQ7      0.053700
     68 H35         8.8620   -7.1730  -14.9170 h1        1 KQ7      0.039700
     69 H36        11.4040   -8.4090  -15.8070 hc        1 KQ7      0.049700
     70 H36A        9.7290   -8.6570  -16.4300 hc        1 KQ7      0.049700
     71 H37        10.1700   -7.3010  -18.2710 hc        1 KQ7      0.049200
     72 H37A       11.8900   -7.2050  -17.7340 hc        1 KQ7      0.049200
     73 H38         9.9860   -5.0450  -17.7480 h1        1 KQ7      0.046700
     74 H38A       11.6080   -5.0450  -16.9320 h1        1 KQ7      0.046700
     75 H40         8.4620   -4.7610  -14.5070 h1        1 KQ7      0.032367
     76 H40A        8.9800   -3.7480  -15.9330 h1        1 KQ7      0.032367
     77 H40B        7.9640   -5.2380  -16.1940 h1        1 KQ7      0.032367
@<TRIPOS>BOND
     1    1    2 1   
     2    1    6 1   
     3    1   41 1   
     4    1   42 1   
     5    2    3 1   
     6    2    7 1   
     7    3    4 1   
     8    3   43 1   
     9    3   44 1   
    10    4    5 1   
    11    4   45 1   
    12    4   46 1   
    13    5    6 1   
    14    6   47 1   
    15    6   48 1   
    16    7    8 ar  
    17    7   12 ar  
    18    8    9 ar  
    19    9   10 ar  
    20    9   49 1   
    21   10   11 ar  
    22   10   50 1   
    23   11   12 ar  
    24   11   13 1   
    25   12   51 1   
    26   13   14 2   
    27   13   15 1   
    28   15   16 1   
    29   15   52 1   
    30   16   17 ar  
    31   16   21 ar  
    32   17   18 ar  
    33   17   53 1   
    34   18   19 ar  
    35   18   54 1   
    36   19   20 ar  
    37   19   22 1   
    38   20   21 ar  
    39   20   23 1   
    40   21   55 1   
    41   22   56 1   
    42   22   57 1   
    43   22   58 1   
    44   23   24 1   
    45   23   59 1   
    46   24   25 2   
    47   24   26 1   
    48   26   27 ar  
    49   26   31 ar  
    50   27   28 ar  
    51   27   60 1   
    52   28   29 ar  
    53   28   61 1   
    54   29   30 ar  
    55   29   32 1   
    56   30   31 ar  
    57   31   62 1   
    58   32   33 1   
    59   32   63 1   
    60   33   34 1   
    61   33   64 1   
    62   33   65 1   
    63   34   35 1   
    64   34   66 1   
    65   34   67 1   
    66   35   36 1   
    67   35   39 1   
    68   35   68 1   
    69   36   37 1   
    70   36   69 1   
    71   36   70 1   
    72   37   38 1   
    73   37   71 1   
    74   37   72 1   
    75   38   39 1   
    76   38   73 1   
    77   38   74 1   
    78   39   40 1   
    79   40   75 1   
    80   40   76 1   
    81   40   77 1   
@<TRIPOS>SUBSTRUCTURE
     1 KQ7         1 TEMP              0 ****  ****    0 ROOT
