@<TRIPOS>MOLECULE
KQ7
   77    81     1     0     0
SMALL
bcc


@<TRIPOS>ATOM
      1 C1          9.4000    3.0420    0.1660 c3        1 KQ7      0.147800
      2 N2          8.7940    1.7560   -0.1610 nh        1 KQ7     -0.727300
      3 C3          9.7930    0.7120   -0.3690 c3        1 KQ7      0.147800
      4 C4         10.8760    1.1530   -1.3630 c3        1 KQ7      0.122900
      5 O5         11.4630    2.3920   -0.9850 os        1 KQ7     -0.413600
      6 C6         10.4930    3.4230   -0.8430 c3        1 KQ7      0.122900
      7 C7          7.6800    1.3520    0.6320 ca        1 KQ7      0.616200
      8 N8          7.3170    2.0680    1.7440 nb        1 KQ7     -0.699000
      9 C9          6.2100    1.6930    2.4010 ca        1 KQ7      0.421200
     10 C10         5.3950    0.6090    2.0350 ca        1 KQ7     -0.257300
     11 C11         5.7640   -0.1230    0.9030 ca        1 KQ7     -0.088600
     12 C12         6.9070    0.2350    0.1900 ca        1 KQ7     -0.215300
     13 C13         4.9810   -1.3110    0.4350 c         1 KQ7      0.677700
     14 O14         5.5600   -2.3490    0.0680 o         1 KQ7     -0.580100
     15 N15         3.6040   -1.1550    0.4350 n         1 KQ7     -0.462100
     16 C16         2.6350   -2.0960    0.0470 ca        1 KQ7      0.088600
     17 C17         2.9540   -3.3810   -0.4320 ca        1 KQ7     -0.178000
     18 C18         1.9300   -4.2470   -0.7970 ca        1 KQ7     -0.082000
     19 C19         0.5850   -3.8930   -0.7110 ca        1 KQ7     -0.153300
     20 C20         0.2480   -2.5980   -0.2240 ca        1 KQ7      0.098600
     21 C21         1.2760   -1.7180    0.1530 ca        1 KQ7     -0.208000
     22 C22        -0.4520   -4.8670   -1.1260 c3        1 KQ7     -0.048800
     23 N23        -1.1070   -2.2470   -0.1040 n         1 KQ7     -0.471100
     24 C24        -1.6380   -0.9680    0.0360 c         1 KQ7      0.697700
     25 O25        -0.9320    0.0580    0.0880 o         1 KQ7     -0.598100
     26 C26        -3.1180   -0.8810    0.1100 ca        1 KQ7     -0.336900
     27 C27        -3.7590    0.2400   -0.4400 ca        1 KQ7      0.000000
     28 C28        -5.1390    0.3440   -0.3700 ca        1 KQ7     -0.319300
     29 C29        -5.8870   -0.6970    0.2700 ca        1 KQ7      0.679200
     30 N30        -5.2510   -1.7820    0.8420 nb        1 KQ7     -0.740000
     31 C31        -3.9200   -1.8490    0.7450 ca        1 KQ7      0.471200
     32 N32        -7.2770   -0.6750    0.2810 nh        1 KQ7     -0.852900
     33 C33        -7.9780    0.5710    0.0860 c3        1 KQ7      0.202800
     34 C34        -9.4510    0.4930    0.4830 c3        1 KQ7     -0.081400
     35 C35       -10.1010    1.8810    0.4420 c3        1 KQ7      0.176500
     36 C36       -11.5510    1.7890    0.9750 c3        1 KQ7     -0.091400
     37 C37       -12.4410    2.4130   -0.0880 c3        1 KQ7     -0.097400
     38 C38       -11.5260    2.7140   -1.2830 c3        1 KQ7      0.160800
     39 N39       -10.1340    2.4460   -0.9200 n3        1 KQ7     -0.729600
     40 C40        -9.2510    3.5710   -1.1030 c3        1 KQ7      0.155100
     41 H1          8.5980    3.8300    0.1360 h1        1 KQ7      0.056700
     42 H1A         9.8540    3.0350    1.1980 h1        1 KQ7      0.056700
     43 H3         10.2930    0.4330    0.6030 h1        1 KQ7      0.056700
     44 H3A         9.2870   -0.2040   -0.7800 h1        1 KQ7      0.056700
     45 H4         11.7260    0.4220   -1.3490 h1        1 KQ7      0.056950
     46 H4A        10.4530    1.2370   -2.3990 h1        1 KQ7      0.056950
     47 H6         10.0470    3.6600   -1.8440 h1        1 KQ7      0.056950
     48 H6A        11.0730    4.3030   -0.4590 h1        1 KQ7      0.056950
     49 H9          5.9650    2.3040    3.2900 h4        1 KQ7      0.027100
     50 H10         4.5160    0.3480    2.6380 ha        1 KQ7      0.151000
     51 H12         7.1950   -0.3440   -0.7010 ha        1 KQ7      0.167000
     52 HN15        3.2480   -0.2650    0.7160 hn        1 KQ7      0.325500
     53 H17         4.0000   -3.7120   -0.5240 ha        1 KQ7      0.173000
     54 H18         2.1960   -5.2500   -1.1710 ha        1 KQ7      0.135000
     55 H21         1.0200   -0.7130    0.5290 ha        1 KQ7      0.168000
     56 H22        -1.1030   -5.1490   -0.2610 hc        1 KQ7      0.041367
     57 H22A       -1.0980   -4.4420   -1.9350 hc        1 KQ7      0.041367
     58 H22B        0.0160   -5.8030   -1.5200 hc        1 KQ7      0.041367
     59 HN23       -1.7580   -2.9860   -0.2530 hn        1 KQ7      0.320500
     60 H27        -3.1560    1.0300   -0.9170 ha        1 KQ7      0.159000
     61 H28        -5.6490    1.2120   -0.8090 ha        1 KQ7      0.150000
     62 H31        -3.4730   -2.7340    1.2380 h4        1 KQ7      0.022100
     63 HN32       -7.7370   -1.3580    0.8430 hn        1 KQ7      0.432800
     64 H33        -7.4830    1.3990    0.6760 h1        1 KQ7      0.049700
     65 H33A       -7.9040    0.8420   -1.0070 h1        1 KQ7      0.049700
     66 H34        -9.9930   -0.2080   -0.2020 hc        1 KQ7      0.053700
     67 H34A       -9.5530    0.1040    1.5310 hc        1 KQ7      0.053700
     68 H35        -9.5070    2.5530    1.1310 h1        1 KQ7      0.039700
     69 H36       -11.8390    0.7250    1.1590 hc        1 KQ7      0.049700
     70 H36A      -11.6350    2.3360    1.9460 hc        1 KQ7      0.049700
     71 H37       -13.2610    1.7160   -0.3900 hc        1 KQ7      0.049200
     72 H37A      -12.9160    3.3520    0.2880 hc        1 KQ7      0.049200
     73 H38       -11.7740    2.0340   -2.1440 h1        1 KQ7      0.046700
     74 H38A      -11.6730    3.7730   -1.6310 h1        1 KQ7      0.046700
     75 H40        -8.2040    3.2470   -0.8610 h1        1 KQ7      0.032367
     76 H40A       -9.2920    3.8840   -2.1790 h1        1 KQ7      0.032367
     77 H40B       -9.5040    4.4600   -0.4630 h1        1 KQ7      0.032367
@<TRIPOS>BOND
     1    1    2 1   
     2    1    6 1   
     3    1   41 1   
     4    1   42 1   
     5    2    3 1   
     6    2    7 1   
     7    3    4 1   
     8    3   43 1   
     9    3   44 1   
    10    4    5 1   
    11    4   45 1   
    12    4   46 1   
    13    5    6 1   
    14    6   47 1   
    15    6   48 1   
    16    7    8 ar  
    17    7   12 ar  
    18    8    9 ar  
    19    9   10 ar  
    20    9   49 1   
    21   10   11 ar  
    22   10   50 1   
    23   11   12 ar  
    24   11   13 1   
    25   12   51 1   
    26   13   14 2   
    27   13   15 1   
    28   15   16 1   
    29   15   52 1   
    30   16   17 ar  
    31   16   21 ar  
    32   17   18 ar  
    33   17   53 1   
    34   18   19 ar  
    35   18   54 1   
    36   19   20 ar  
    37   19   22 1   
    38   20   21 ar  
    39   20   23 1   
    40   21   55 1   
    41   22   56 1   
    42   22   57 1   
    43   22   58 1   
    44   23   24 1   
    45   23   59 1   
    46   24   25 2   
    47   24   26 1   
    48   26   27 ar  
    49   26   31 ar  
    50   27   28 ar  
    51   27   60 1   
    52   28   29 ar  
    53   28   61 1   
    54   29   30 ar  
    55   29   32 1   
    56   30   31 ar  
    57   31   62 1   
    58   32   33 1   
    59   32   63 1   
    60   33   34 1   
    61   33   64 1   
    62   33   65 1   
    63   34   35 1   
    64   34   66 1   
    65   34   67 1   
    66   35   36 1   
    67   35   39 1   
    68   35   68 1   
    69   36   37 1   
    70   36   69 1   
    71   36   70 1   
    72   37   38 1   
    73   37   71 1   
    74   37   72 1   
    75   38   39 1   
    76   38   73 1   
    77   38   74 1   
    78   39   40 1   
    79   40   75 1   
    80   40   76 1   
    81   40   77 1   
@<TRIPOS>SUBSTRUCTURE
     1 KQ7         1 TEMP              0 ****  ****    0 ROOT
