@<TRIPOS>MOLECULE
KQ7
   77    75     1     0     0
SMALL
bcc


@<TRIPOS>ATOM
      1 C1         -8.4400   -4.0910    6.2950 c3        1 KQ7     -0.096500
      2 N2         -7.6960   -4.5980    5.2100 n3        1 KQ7     -0.202000
      3 C3         -8.5070   -5.2330    4.2440 c3        1 KQ7     -0.096500
      4 C4         -9.6590   -4.3590    3.7930 c3        1 KQ7     -0.055000
      5 O5        -10.4080   -3.8460    4.8840 os        1 KQ7     -0.271000
      6 C6         -9.6010   -3.2120    5.8420 c3        1 KQ7     -0.055000
      7 C7         -6.9570   -3.5200    4.5870 c2        1 KQ7      0.078000
      8 N8         -7.6170   -2.4100    4.1400 n1        1 KQ7     -0.172000
      9 C9         -6.9330   -1.4300    3.4700 c1        1 KQ7     -0.117000
     10 C10        -5.5460   -1.5670    3.2400 c1        1 KQ7     -0.117000
     11 C11        -4.8900   -2.6630    3.6810 c1        1 KQ7     -0.071000
     12 C12        -5.5810   -3.6560    4.3590 c2        1 KQ7     -0.142000
     13 C13        -3.3690   -2.8120    3.4190 c2        1 KQ7      0.351000
     14 O14        -2.7790   -3.7940    3.8140 o         1 KQ7     -0.341000
     15 N15        -2.6360   -1.7270    2.7960 n         1 KQ7     -0.317000
     16 C16        -1.1990   -1.8150    2.6440 c2        1 KQ7      0.096000
     17 C17        -0.4520   -2.5440    3.5490 c2        1 KQ7     -0.177000
     18 C18         0.9350   -2.6310    3.4010 c1        1 KQ7     -0.082000
     19 C19         1.5570   -1.9930    2.3530 c1        1 KQ7     -0.146000
     20 C20         0.8020   -1.2530    1.4340 c1        1 KQ7      0.105000
     21 C21        -0.5660   -1.1660    1.5780 c1        1 KQ7     -0.208000
     22 C22         3.0440   -2.1810    2.1290 c3        1 KQ7     -0.174000
     23 N23         1.4510   -0.6440    0.2950 n         1 KQ7     -0.324000
     24 C24         0.7060    0.1660   -0.5970 c2        1 KQ7      0.369000
     25 O25        -0.4790    0.3480   -0.4050 o         1 KQ7     -0.356000
     26 C26         1.4210    0.8850   -1.7700 c2        1 KQ7     -0.241000
     27 C27         0.7780    1.0310   -2.9810 c2        1 KQ7     -0.004000
     28 C28         1.4650    1.5490   -4.0770 c1        1 KQ7     -0.249000
     29 C29         2.7940    1.9180   -3.9500 c1        1 KQ7      0.141000
     30 N30         3.4400    1.7720   -2.7350 n1        1 KQ7     -0.201000
     31 C31         2.7630    1.2580   -1.6470 c1        1 KQ7      0.001000
     32 N32         3.5520    2.3540   -5.1370 n3        1 KQ7     -0.270000
     33 C33         4.9850    2.4730   -5.0750 c3        1 KQ7     -0.048000
     34 C34         5.4100    3.7610   -5.7370 c3        1 KQ7     -0.184000
     35 C35         6.7880    4.1770   -5.2070 c3        1 KQ7     -0.016000
     36 C36         6.6830    4.6570   -3.6860 c3        1 KQ7     -0.170000
     37 C37         7.4190    5.9610   -3.6260 c3        1 KQ7     -0.171000
     38 C38         8.0680    6.0410   -4.7790 c3        1 KQ7     -0.073000
     39 N39         7.2180    5.1790   -5.8380 n3        1 KQ7     -0.256000
     40 C40         8.0850    4.7420   -6.9150 c3        1 KQ7     -0.117000
     41 H1         -8.8030   -4.8620    6.8300 h1        1 KQ7      0.109750
     42 H1A        -7.8450   -3.5620    6.8650 h1        1 KQ7      0.109750
     43 H3         -8.8700   -6.0640    4.6300 h1        1 KQ7      0.109750
     44 H3A        -7.9610   -5.4560    3.4710 h1        1 KQ7      0.109750
     45 H4         -9.2990   -3.6030    3.2690 h1        1 KQ7      0.098000
     46 H4A       -10.2510   -4.8850    3.2220 h1        1 KQ7      0.098000
     47 H6        -10.1440   -2.9910    6.6110 h1        1 KQ7      0.098000
     48 H6A        -9.2440   -2.3850    5.4570 h1        1 KQ7      0.098000
     49 H9         -7.3960   -0.6530    3.1570 ha        1 KQ7      0.157500
     50 H10        -5.0660   -0.8790    2.7690 ha        1 KQ7      0.157500
     51 H12        -5.1090   -4.4460    4.6760 ha        1 KQ7      0.169000
     52 HN15       -3.0880   -0.9940    2.4740 hn        1 KQ7      0.240000
     53 H17        -0.9020   -3.0070    4.3090 ha        1 KQ7      0.174000
     54 H18         1.4730   -3.1560    4.0530 ha        1 KQ7      0.135000
     55 H21        -1.1070   -0.6370    0.9220 ha        1 KQ7      0.168000
     56 H22         3.4470   -1.3210    1.8790 hc        1 KQ7      0.081000
     57 H22A        3.1860   -2.8310    1.4080 hc        1 KQ7      0.081000
     58 H22B        3.4640   -2.5130    2.9600 hc        1 KQ7      0.081000
     59 HN23        2.3340   -0.7660    0.1630 hn        1 KQ7      0.234000
     60 H27        -0.1430    0.7770   -3.0700 ha        1 KQ7      0.160000
     61 H28         1.0090    1.6530   -4.9350 ha        1 KQ7      0.148000
     62 H31         3.2240    1.1560   -0.7850 ha        1 KQ7      0.160000
     63 HN32        3.1030    2.5850   -5.9150 hn        1 KQ7      0.205000
     64 H33         5.4030    1.7050   -5.5470 h1        1 KQ7      0.103500
     65 H33A        5.2750    2.4750   -4.1290 h1        1 KQ7      0.103500
     66 H34         5.4610    3.6250   -6.7280 hc        1 KQ7      0.096000
     67 H34A        4.7530    4.4660   -5.5370 hc        1 KQ7      0.096000
     68 H35         7.4210    3.4290   -5.2850 h1        1 KQ7      0.068000
     69 H36         7.1080    3.9990   -3.0920 hc        1 KQ7      0.093000
     70 H36A        5.7400    4.7880   -3.4330 hc        1 KQ7      0.093000
     71 H37         8.0540    5.9580   -2.8770 hc        1 KQ7      0.086500
     72 H37A        6.7940    6.6990   -3.5390 hc        1 KQ7      0.086500
     73 H38         8.9760    5.6610   -4.6840 h1        1 KQ7      0.081500
     74 H38A        8.1220    6.9860   -5.0760 h1        1 KQ7      0.081500
     75 H40         7.5770    4.1290   -7.5240 h1        1 KQ7      0.070000
     76 H40A        8.3970    5.5250   -7.4230 h1        1 KQ7      0.070000
     77 H40B        8.8580    4.2660   -6.5420 h1        1 KQ7      0.070000
@<TRIPOS>BOND
     1    1    2 1   
     2    1    6 1   
     3    1   41 1   
     4    1   42 1   
     5    2    3 1   
     6    2    7 1   
     7    3    4 1   
     8    3   43 1   
     9    3   44 1   
    10    4    5 1   
    11    4   45 1   
    12    4   46 1   
    13    5    6 1   
    14    6   47 1   
    15    6   48 1   
    16    7    8 1   
    17    7   12 1   
    18    9   10 1   
    19    9   49 1   
    20   10   50 1   
    21   11   12 1   
    22   11   13 1   
    23   12   51 1   
    24   13   14 1   
    25   13   15 1   
    26   15   16 1   
    27   15   52 1   
    28   16   17 1   
    29   16   21 1   
    30   17   18 1   
    31   17   53 1   
    32   18   54 1   
    33   19   20 1   
    34   19   22 1   
    35   20   23 1   
    36   21   55 1   
    37   22   56 1   
    38   22   57 1   
    39   22   58 1   
    40   23   24 1   
    41   23   59 1   
    42   24   25 1   
    43   24   26 1   
    44   26   27 1   
    45   26   31 1   
    46   27   28 1   
    47   27   60 1   
    48   28   61 1   
    49   29   30 1   
    50   29   32 1   
    51   31   62 1   
    52   32   33 1   
    53   32   63 1   
    54   33   34 1   
    55   33   64 1   
    56   33   65 1   
    57   34   35 1   
    58   34   66 1   
    59   34   67 1   
    60   35   36 1   
    61   35   39 1   
    62   35   68 1   
    63   36   37 1   
    64   36   69 1   
    65   36   70 1   
    66   37   38 1   
    67   37   71 1   
    68   37   72 1   
    69   38   39 1   
    70   38   73 1   
    71   38   74 1   
    72   39   40 1   
    73   40   75 1   
    74   40   76 1   
    75   40   77 1   
@<TRIPOS>SUBSTRUCTURE
     1 KQ7         1 TEMP              0 ****  ****    0 ROOT
