@<TRIPOS>MOLECULE
KQ7
   77    81     1     0     0
SMALL
bcc


@<TRIPOS>ATOM
      1 C1         -0.1060   -0.0220    0.1350 c3        1 KQ7      0.147800
      2 N2          1.3240   -0.2450    0.3120 nh        1 KQ7     -0.727300
      3 C3          1.7570    0.0150    1.6820 c3        1 KQ7      0.147800
      4 C4          1.2810    1.3880    2.1760 c3        1 KQ7      0.122900
      5 O5         -0.1230    1.5460    2.0180 os        1 KQ7     -0.413600
      6 C6         -0.5340    1.3520    0.6690 c3        1 KQ7      0.122900
      7 C7          1.8630   -1.4360   -0.2580 ca        1 KQ7      0.616200
      8 N8          1.0380   -2.3900   -0.7950 nb        1 KQ7     -0.699000
      9 C9          1.6040   -3.4460   -1.3950 ca        1 KQ7      0.421200
     10 C10         2.9900   -3.6520   -1.5060 ca        1 KQ7     -0.257300
     11 C11         3.8320   -2.6820   -0.9580 ca        1 KQ7     -0.088600
     12 C12         3.2850   -1.5660   -0.3270 ca        1 KQ7     -0.215300
     13 C13         5.3240   -2.8110   -1.0000 c         1 KQ7      0.677700
     14 O14         6.0130   -2.5450    0.0010 o         1 KQ7     -0.580100
     15 N15         5.8520   -3.2250   -2.2120 ns        1 KQ7     -0.462100
     16 C16         7.2070   -3.4240   -2.5330 ca        1 KQ7      0.088600
     17 C17         8.2570   -3.2100   -1.6210 ca        1 KQ7     -0.178000
     18 C18         9.5690   -3.4290   -2.0250 ca        1 KQ7     -0.082000
     19 C19         9.8920   -3.8540   -3.3120 ca        1 KQ7     -0.154300
     20 C20         8.8400   -4.0800   -4.2440 ca        1 KQ7      0.098600
     21 C21         7.5100   -3.8660   -3.8420 ca        1 KQ7     -0.208000
     22 C22        11.3140   -4.0600   -3.6740 c3        1 KQ7     -0.048800
     23 N23         9.1580   -4.5400   -5.5330 ns        1 KQ7     -0.471100
     24 C24         8.3440   -4.5160   -6.6610 c         1 KQ7      0.697700
     25 O25         7.1780   -4.0760   -6.6490 o         1 KQ7     -0.598100
     26 C26         8.9480   -5.0400   -7.9120 ca        1 KQ7     -0.336900
     27 C27         8.5790   -4.4650   -9.1370 ca        1 KQ7      0.000000
     28 C28         9.1240   -4.9480  -10.3160 ca        1 KQ7     -0.319300
     29 C29        10.0550   -6.0360  -10.2600 ca        1 KQ7      0.679200
     30 N30        10.3900   -6.6250   -9.0560 nb        1 KQ7     -0.740000
     31 C31         9.8490   -6.1230   -7.9420 ca        1 KQ7      0.471200
     32 N32        10.6930   -6.4900  -11.4080 nu        1 KQ7     -0.852900
     33 C33        10.1150   -6.2250  -12.7040 c3        1 KQ7      0.202800
     34 C34        10.7220   -7.0820  -13.8130 c3        1 KQ7     -0.081400
     35 C35         9.9500   -6.9060  -15.1250 c3        1 KQ7      0.176500
     36 C36        10.5050   -7.8830  -16.1880 c3        1 KQ7     -0.091400
     37 C37        10.8450   -7.0420  -17.4100 c3        1 KQ7     -0.097400
     38 C38        10.6320   -5.5810  -16.9900 c3        1 KQ7      0.160800
     39 N39        10.0430   -5.5320  -15.6520 n3        1 KQ7     -0.729600
     40 C40         8.8040   -4.7960  -15.5810 c3        1 KQ7      0.155100
     41 H1         -0.7160   -0.8140    0.6570 h1        1 KQ7      0.056700
     42 H1A        -0.3380   -0.0640   -0.9650 h1        1 KQ7      0.056700
     43 H3          1.3640   -0.7740    2.3860 h1        1 KQ7      0.056700
     44 H3A         2.8810   -0.0070    1.7220 h1        1 KQ7      0.056700
     45 H4          1.4520    1.4740    3.2820 h1        1 KQ7      0.056950
     46 H4A         1.8170    2.2120    1.6360 h1        1 KQ7      0.056950
     47 H6         -1.6530    1.4130    0.7060 h1        1 KQ7      0.056950
     48 H6A        -0.1220    2.1750    0.0290 h1        1 KQ7      0.056950
     49 H9          0.8920   -4.1850   -1.8100 h4        1 KQ7      0.027100
     50 H10         3.3780   -4.5560   -1.9930 ha        1 KQ7      0.151000
     51 H12         3.9510   -0.8040    0.1040 ha        1 KQ7      0.167000
     52 HN15        5.2090   -3.3740   -2.9600 hn        1 KQ7      0.325500
     53 H17         8.0580   -2.8700   -0.5920 ha        1 KQ7      0.173000
     54 H18        10.3800   -3.2560   -1.2990 ha        1 KQ7      0.135000
     55 H21         6.6910   -4.0370   -4.5620 ha        1 KQ7      0.168000
     56 H22        11.9860   -3.7870   -2.8220 hc        1 KQ7      0.041367
     57 H22A       11.6000   -3.4240   -4.5500 hc        1 KQ7      0.041367
     58 H22B       11.5100   -5.1310   -3.9310 hc        1 KQ7      0.041367
     59 HN23       10.1090   -4.8010   -5.6740 hn        1 KQ7      0.320500
     60 H27         7.8530   -3.6350   -9.1490 ha        1 KQ7      0.159000
     61 H28         8.8490   -4.4940  -11.2770 ha        1 KQ7      0.150000
     62 H31        10.1460   -6.6520   -7.0160 h4        1 KQ7      0.022100
     63 HN32       11.2330   -7.3240  -11.3280 hn        1 KQ7      0.432800
     64 H33         8.9970   -6.3960  -12.6800 h1        1 KQ7      0.049700
     65 H33A       10.2880   -5.1350  -12.9430 h1        1 KQ7      0.049700
     66 H34        11.7990   -6.8080  -13.9590 hc        1 KQ7      0.053700
     67 H34A       10.6750   -8.1690  -13.5370 hc        1 KQ7      0.053700
     68 H35         8.8700   -7.1730  -14.9190 h1        1 KQ7      0.039700
     69 H36        11.4130   -8.4100  -15.8060 hc        1 KQ7      0.049700
     70 H36A        9.7380   -8.6580  -16.4310 hc        1 KQ7      0.049700
     71 H37        10.1820   -7.3030  -18.2710 hc        1 KQ7      0.049200
     72 H37A       11.9010   -7.2060  -17.7330 hc        1 KQ7      0.049200
     73 H38         9.9970   -5.0460  -17.7480 h1        1 KQ7      0.046700
     74 H38A       11.6200   -5.0460  -16.9310 h1        1 KQ7      0.046700
     75 H40         7.9740   -5.2390  -16.1970 h1        1 KQ7      0.032367
     76 H40A        8.9910   -3.7490  -15.9350 h1        1 KQ7      0.032367
     77 H40B        8.4700   -4.7610  -14.5090 h1        1 KQ7      0.032367
@<TRIPOS>BOND
     1    1    2 1   
     2    1    6 1   
     3    1   41 1   
     4    1   42 1   
     5    2    3 1   
     6    2    7 1   
     7    3    4 1   
     8    3   43 1   
     9    3   44 1   
    10    4    5 1   
    11    4   45 1   
    12    4   46 1   
    13    5    6 1   
    14    6   47 1   
    15    6   48 1   
    16    7    8 ar  
    17    7   12 ar  
    18    8    9 ar  
    19    9   10 ar  
    20    9   49 1   
    21   10   11 ar  
    22   10   50 1   
    23   11   12 ar  
    24   11   13 1   
    25   12   51 1   
    26   13   14 2   
    27   13   15 1   
    28   15   16 1   
    29   15   52 1   
    30   16   17 ar  
    31   16   21 ar  
    32   17   18 ar  
    33   17   53 1   
    34   18   19 ar  
    35   18   54 1   
    36   19   20 ar  
    37   19   22 1   
    38   20   21 ar  
    39   20   23 1   
    40   21   55 1   
    41   22   56 1   
    42   22   57 1   
    43   22   58 1   
    44   23   24 1   
    45   23   59 1   
    46   24   25 2   
    47   24   26 1   
    48   26   27 ar  
    49   26   31 ar  
    50   27   28 ar  
    51   27   60 1   
    52   28   29 ar  
    53   28   61 1   
    54   29   30 ar  
    55   29   32 1   
    56   30   31 ar  
    57   31   62 1   
    58   32   33 1   
    59   32   63 1   
    60   33   34 1   
    61   33   64 1   
    62   33   65 1   
    63   34   35 1   
    64   34   66 1   
    65   34   67 1   
    66   35   36 1   
    67   35   39 1   
    68   35   68 1   
    69   36   37 1   
    70   36   69 1   
    71   36   70 1   
    72   37   38 1   
    73   37   71 1   
    74   37   72 1   
    75   38   39 1   
    76   38   73 1   
    77   38   74 1   
    78   39   40 1   
    79   40   75 1   
    80   40   76 1   
    81   40   77 1   
@<TRIPOS>SUBSTRUCTURE
     1 KQ7         1 TEMP              0 ****  ****    0 ROOT
