@<TRIPOS>MOLECULE
KQQ
   73    77     1     0     0
SMALL
bcc


@<TRIPOS>ATOM
      1 OAH         0.8200    1.4980    0.3880 o         1 KQQ     -0.503100
      2 CAF         1.8910    0.9060    0.2480 c         1 KQQ      0.613700
      3 NAG         2.7580    0.9530    1.5060 n4        1 KQQ     -0.756400
      4 CAD         2.4400    0.2120   -0.8480 cc        1 KQQ     -0.366700
      5 SAC         3.9400   -0.5820   -0.8630 ss        1 KQQ     -0.003800
      6 CAB         3.7820   -1.0820   -2.4410 cc        1 KQQ     -0.027100
      7 CAA         2.6100   -0.6840   -3.0280 cd        1 KQQ     -0.190000
      8 CAE         1.7800    0.0880   -2.1220 cd        1 KQQ      0.321600
      9 NAI         0.5610    0.6250   -2.3730 nh        1 KQQ     -0.685300
     10 C4         -0.1690    0.6330   -3.5880 ca        1 KQQ      0.729200
     11 N3          0.3560    0.1510   -4.7350 nb        1 KQQ     -0.794000
     12 C5         -1.4720    1.1940   -3.5490 ca        1 KQQ     -0.370400
     13 CAP        -2.3320    1.8000   -2.5680 cc        1 KQQ     -0.163200
     14 CAQ        -3.5050    2.1590   -3.2250 cd        1 KQQ     -0.084100
     15 NAR        -3.4370    1.8040   -4.5800 na        1 KQQ     -0.278100
     16 C6         -2.1950    1.2110   -4.8170 ca        1 KQQ      0.497800
     17 N1         -1.7020    0.7250   -5.9910 nb        1 KQQ     -0.736000
     18 C2         -0.4350    0.2010   -5.8900 ca        1 KQQ      0.898900
     19 NAS         0.1350   -0.4310   -7.0310 nh        1 KQQ     -0.668300
     20 CAT        -0.2880   -0.0280   -8.3270 ca        1 KQQ      0.083600
     21 CAY         0.5570    0.7390   -9.1800 ca        1 KQQ      0.125100
     22 OAZ         1.7700    1.1120   -8.6410 os        1 KQQ     -0.337900
     23 CBA         2.6630    1.8270   -9.4940 c3        1 KQQ      0.113700
     24 CAU        -1.5270   -0.4500   -8.8290 ca        1 KQQ     -0.045000
     25 CAV        -1.9230   -0.1330  -10.1430 ca        1 KQQ     -0.024400
     26 CAW        -1.0870    0.6460  -10.9760 ca        1 KQQ     -0.030300
     27 CAX         0.1490    1.0650  -10.4740 ca        1 KQQ     -0.186000
     28 NBB        -3.2000   -0.5750  -10.6240 n         1 KQQ     -0.314000
     29 C          -3.5710   -1.8920  -10.4750 c         1 KQQ      0.640100
     30 CA         -4.7950   -2.4030  -11.2720 c3        1 KQQ      0.015800
     31 N          -5.0430   -3.8590  -11.0180 n4        1 KQQ     -0.671400
     32 CBL        -6.4610   -4.2110  -11.2820 c3        1 KQQ      0.082600
     33 CBM        -4.1200   -4.7060  -11.8210 c3        1 KQQ      0.082600
     34 O          -3.0370   -2.6850   -9.6700 o         1 KQQ     -0.602100
     35 CBC        -3.7570    0.2820  -11.6570 c3        1 KQQ      0.071000
     36 CBD        -2.7990    0.4710  -12.8260 c3        1 KQQ     -0.100400
     37 CBE        -1.4740    1.0870  -12.3660 c3        1 KQQ     -0.009700
     38 CBG        -0.3950    0.6760  -13.3650 c3        1 KQQ     -0.090100
     39 CBF        -1.6100    2.6100  -12.3810 c3        1 KQQ     -0.090100
     40 H1          2.9380    0.0040    1.8430 hn        1 KQQ      0.465467
     41 H2          2.2670    1.4840    2.2350 hn        1 KQQ      0.465467
     42 H3          4.5550   -1.6770   -2.9410 h4        1 KQQ      0.208000
     43 H4          2.3250   -0.9220   -4.0590 ha        1 KQQ      0.217000
     44 H5          0.0960    1.1070   -1.6230 hn        1 KQQ      0.482800
     45 H6         -2.1120    1.9500   -1.5150 ha        1 KQQ      0.166000
     46 H7         -4.4020    2.6460   -2.8310 h4        1 KQQ      0.190000
     47 H8         -4.1270    1.9820   -5.2640 hn        1 KQQ      0.321700
     48 H9          1.1350   -0.5230   -6.9750 hn        1 KQQ      0.441800
     49 H10         3.5640    1.9790   -8.8460 h1        1 KQQ      0.057367
     50 H11         2.2190    2.8080   -9.7890 h1        1 KQQ      0.057367
     51 H12         2.9200    1.2170  -10.3940 h1        1 KQQ      0.057367
     52 H13        -2.1910   -1.0520   -8.1840 ha        1 KQQ      0.174000
     53 H14         0.8060    1.6720  -11.1170 ha        1 KQQ      0.158000
     54 H15        -5.7100   -1.8250  -10.9510 hx        1 KQQ      0.121200
     55 H16        -4.6260   -2.2600  -12.3770 hx        1 KQQ      0.121200
     56 H18        -6.7160   -3.9740  -12.3500 hx        1 KQQ      0.109033
     57 H19        -7.1290   -3.6260  -10.5940 hx        1 KQQ      0.109033
     58 H20        -6.6060   -5.3100  -11.0990 hx        1 KQQ      0.109033
     59 H21        -3.0610   -4.4230  -11.5650 hx        1 KQQ      0.109033
     60 H22        -4.3110   -4.5480  -12.9150 hx        1 KQQ      0.109033
     61 H23        -4.2940   -5.7850  -11.5610 hx        1 KQQ      0.109033
     62 H24        -3.9570    1.2850  -11.1740 h1        1 KQQ      0.067700
     63 H25        -4.7410   -0.1160  -12.0250 h1        1 KQQ      0.067700
     64 H26        -2.6070   -0.5130  -13.3290 hc        1 KQQ      0.063200
     65 H27        -3.2830    1.1440  -13.5820 hc        1 KQQ      0.063200
     66 H28        -0.1740   -0.4140  -13.2790 hc        1 KQQ      0.048033
     67 H29         0.5480    1.2460  -13.1850 hc        1 KQQ      0.048033
     68 H30        -0.7410    0.8940  -14.4050 hc        1 KQQ      0.048033
     69 H31        -0.6670    3.0910  -12.0280 hc        1 KQQ      0.048033
     70 H32        -2.4450    2.9340  -11.7150 hc        1 KQQ      0.048033
     71 H33        -1.8190    2.9620  -13.4200 hc        1 KQQ      0.048033
     72 HAG3        3.6500    1.4090    1.3000 hn        1 KQQ      0.465467
     73 H          -4.8280   -4.0340  -10.0180 hn        1 KQQ      0.476800
@<TRIPOS>BOND
     1    1    2 2   
     2    2    3 1   
     3    2    4 1   
     4    3   40 1   
     5    3   41 1   
     6    3   72 1   
     7    4    5 1   
     8    4    8 2   
     9    5    6 1   
    10    6    7 2   
    11    6   42 1   
    12    7    8 1   
    13    7   43 1   
    14    8    9 1   
    15    9   10 1   
    16    9   44 1   
    17   10   11 ar  
    18   10   12 ar  
    19   11   18 ar  
    20   12   13 1   
    21   12   16 ar  
    22   13   14 2   
    23   13   45 1   
    24   14   15 1   
    25   14   46 1   
    26   15   16 1   
    27   15   47 1   
    28   16   17 ar  
    29   17   18 ar  
    30   18   19 1   
    31   19   20 1   
    32   19   48 1   
    33   20   21 ar  
    34   20   24 ar  
    35   21   22 1   
    36   21   27 ar  
    37   22   23 1   
    38   23   49 1   
    39   23   50 1   
    40   23   51 1   
    41   24   25 ar  
    42   24   52 1   
    43   25   26 ar  
    44   25   28 1   
    45   26   27 ar  
    46   26   37 1   
    47   27   53 1   
    48   28   29 1   
    49   28   35 1   
    50   29   30 1   
    51   29   34 2   
    52   30   31 1   
    53   30   54 1   
    54   30   55 1   
    55   31   32 1   
    56   31   33 1   
    57   31   73 1   
    58   32   56 1   
    59   32   57 1   
    60   32   58 1   
    61   33   59 1   
    62   33   60 1   
    63   33   61 1   
    64   35   36 1   
    65   35   62 1   
    66   35   63 1   
    67   36   37 1   
    68   36   64 1   
    69   36   65 1   
    70   37   38 1   
    71   37   39 1   
    72   38   66 1   
    73   38   67 1   
    74   38   68 1   
    75   39   69 1   
    76   39   70 1   
    77   39   71 1   
@<TRIPOS>SUBSTRUCTURE
     1 KQQ         1 TEMP              0 ****  ****    0 ROOT
