@<TRIPOS>MOLECULE
KQQ
   73    77     1     0     0
SMALL
bcc


@<TRIPOS>ATOM
      1 OAH         0.8340    1.5100    0.3830 o         1 KQQ     -0.503100
      2 CAF         1.9080    0.9240    0.2400 c         1 KQQ      0.613700
      3 NAG         2.7780    0.9750    1.4960 nz        1 KQQ     -0.756400
      4 CAD         2.4580    0.2320   -0.8580 cc        1 KQQ     -0.366700
      5 SAC         3.9620   -0.5540   -0.8770 ss        1 KQQ     -0.003800
      6 CAB         3.8010   -1.0560   -2.4540 cc        1 KQQ     -0.027100
      7 CAA         2.6260   -0.6630   -3.0380 cd        1 KQQ     -0.190000
      8 CAE         1.7950    0.1060   -2.1300 cd        1 KQQ      0.321600
      9 NAI         0.5730    0.6370   -2.3780 nu        1 KQQ     -0.685300
     10 C4         -0.1610    0.6400   -3.5910 ca        1 KQQ      0.729200
     11 N3          0.3630    0.1600   -4.7390 nb        1 KQQ     -0.794000
     12 C5         -1.4660    1.1960   -3.5490 ca        1 KQQ     -0.370400
     13 CAP        -2.3260    1.7990   -2.5660 cc        1 KQQ     -0.163200
     14 CAQ        -3.5020    2.1520   -3.2200 cd        1 KQQ     -0.084100
     15 NAR        -3.4370    1.7960   -4.5740 na        1 KQQ     -0.278100
     16 C6         -2.1930    1.2090   -4.8140 ca        1 KQQ      0.497800
     17 N1         -1.7010    0.7240   -5.9900 nb        1 KQQ     -0.736000
     18 C2         -0.4310    0.2050   -5.8920 ca        1 KQQ      0.898900
     19 NAS         0.1380   -0.4260   -7.0340 nu        1 KQQ     -0.668300
     20 CAT        -0.2900   -0.0250   -8.3290 ca        1 KQQ      0.083600
     21 CAY         0.5500    0.7440   -9.1850 ca        1 KQQ      0.125100
     22 OAZ         1.7630    1.1220   -8.6500 os        1 KQQ     -0.337900
     23 CBA         2.6510    1.8380   -9.5060 c3        1 KQQ      0.113700
     24 CAU        -1.5280   -0.4520   -8.8270 ca        1 KQQ     -0.045000
     25 CAV        -1.9290   -0.1380  -10.1410 ca        1 KQQ     -0.024400
     26 CAW        -1.0980    0.6430  -10.9760 ca        1 KQQ     -0.030300
     27 CAX         0.1380    1.0670  -10.4780 ca        1 KQQ     -0.186000
     28 NBB        -3.2060   -0.5850  -10.6180 n         1 KQQ     -0.314000
     29 C          -3.5710   -1.9030  -10.4670 c         1 KQQ      0.640100
     30 CA         -4.7960   -2.4190  -11.2610 c3        1 KQQ      0.015800
     31 N          -5.0380   -3.8760  -11.0060 nx        1 KQQ     -0.671400
     32 CBL        -6.4550   -4.2330  -11.2670 c3        1 KQQ      0.082600
     33 CBM        -4.1130   -4.7200  -11.8110 c3        1 KQQ      0.082600
     34 O          -3.0330   -2.6930   -9.6630 o         1 KQQ     -0.602100
     35 CBC        -3.7690    0.2700  -11.6510 c3        1 KQQ      0.071000
     36 CBD        -2.8140    0.4610  -12.8220 c3        1 KQQ     -0.100400
     37 CBE        -1.4900    1.0810  -12.3660 c3        1 KQQ     -0.009700
     38 CBG        -0.4120    0.6730  -13.3680 c3        1 KQQ     -0.090100
     39 CBF        -1.6310    2.6030  -12.3830 c3        1 KQQ     -0.090100
     40 H1          3.6670    1.4370    1.2870 hn        1 KQQ      0.465467
     41 H2          2.9650    0.0260    1.8310 hn        1 KQQ      0.465467
     42 H3          4.5760   -1.6460   -2.9560 h4        1 KQQ      0.208000
     43 H4          2.3400   -0.9030   -4.0690 ha        1 KQQ      0.217000
     44 H5          0.1070    1.1170   -1.6260 hn        1 KQQ      0.482800
     45 H6         -2.1030    1.9510   -1.5130 ha        1 KQQ      0.166000
     46 H7         -4.4000    2.6360   -2.8240 h4        1 KQQ      0.190000
     47 H8         -4.1290    1.9710   -5.2570 hn        1 KQQ      0.321700
     48 H9          1.1380   -0.5130   -6.9800 hn        1 KQQ      0.441800
     49 H10         3.5540    1.9930   -8.8610 h1        1 KQQ      0.057367
     50 H11         2.2040    2.8180   -9.8020 h1        1 KQQ      0.057367
     51 H12         2.9080    1.2280  -10.4050 h1        1 KQQ      0.057367
     52 H13        -2.1890   -1.0560   -8.1800 ha        1 KQQ      0.174000
     53 H14         0.7910    1.6760  -11.1240 ha        1 KQQ      0.158000
     54 H15        -5.7120   -1.8450  -10.9380 hx        1 KQQ      0.121200
     55 H16        -4.6300   -2.2760  -12.3660 hx        1 KQQ      0.121200
     56 H18        -7.1230   -3.6510  -10.5770 hx        1 KQQ      0.109033
     57 H19        -6.7140   -3.9980  -12.3330 hx        1 KQQ      0.109033
     58 H20        -6.5950   -5.3330  -11.0820 hx        1 KQQ      0.109033
     59 H21        -4.2820   -5.8000  -11.5510 hx        1 KQQ      0.109033
     60 H22        -3.0550   -4.4330  -11.5580 hx        1 KQQ      0.109033
     61 H23        -4.3070   -4.5630  -12.9040 hx        1 KQQ      0.109033
     62 H24        -4.7520   -0.1320  -12.0150 h1        1 KQQ      0.067700
     63 H25        -3.9700    1.2720  -11.1670 h1        1 KQQ      0.067700
     64 H26        -3.3030    1.1310  -13.5770 hc        1 KQQ      0.063200
     65 H27        -2.6200   -0.5230  -13.3250 hc        1 KQQ      0.063200
     66 H28         0.5290    1.2460  -13.1910 hc        1 KQQ      0.048033
     67 H29        -0.1880   -0.4160  -13.2810 hc        1 KQQ      0.048033
     68 H30        -0.7620    0.8890  -14.4060 hc        1 KQQ      0.048033
     69 H31        -2.4660    2.9260  -11.7150 hc        1 KQQ      0.048033
     70 H32        -0.6890    3.0880  -12.0330 hc        1 KQQ      0.048033
     71 H33        -1.8440    2.9540  -13.4220 hc        1 KQQ      0.048033
     72 HAG3        2.2850    1.5020    2.2270 hn        1 KQQ      0.465467
     73 H          -4.8180   -4.0500  -10.0060 hn        1 KQQ      0.476800
@<TRIPOS>BOND
     1    1    2 2   
     2    2    3 1   
     3    2    4 1   
     4    3   40 1   
     5    3   41 1   
     6    3   72 1   
     7    4    5 1   
     8    4    8 2   
     9    5    6 1   
    10    6    7 2   
    11    6   42 1   
    12    7    8 1   
    13    7   43 1   
    14    8    9 1   
    15    9   10 1   
    16    9   44 1   
    17   10   11 ar  
    18   10   12 ar  
    19   11   18 ar  
    20   12   13 1   
    21   12   16 ar  
    22   13   14 2   
    23   13   45 1   
    24   14   15 1   
    25   14   46 1   
    26   15   16 1   
    27   15   47 1   
    28   16   17 ar  
    29   17   18 ar  
    30   18   19 1   
    31   19   20 1   
    32   19   48 1   
    33   20   21 ar  
    34   20   24 ar  
    35   21   22 1   
    36   21   27 ar  
    37   22   23 1   
    38   23   49 1   
    39   23   50 1   
    40   23   51 1   
    41   24   25 ar  
    42   24   52 1   
    43   25   26 ar  
    44   25   28 1   
    45   26   27 ar  
    46   26   37 1   
    47   27   53 1   
    48   28   29 1   
    49   28   35 1   
    50   29   30 1   
    51   29   34 2   
    52   30   31 1   
    53   30   54 1   
    54   30   55 1   
    55   31   32 1   
    56   31   33 1   
    57   31   73 1   
    58   32   56 1   
    59   32   57 1   
    60   32   58 1   
    61   33   59 1   
    62   33   60 1   
    63   33   61 1   
    64   35   36 1   
    65   35   62 1   
    66   35   63 1   
    67   36   37 1   
    68   36   64 1   
    69   36   65 1   
    70   37   38 1   
    71   37   39 1   
    72   38   66 1   
    73   38   67 1   
    74   38   68 1   
    75   39   69 1   
    76   39   70 1   
    77   39   71 1   
@<TRIPOS>SUBSTRUCTURE
     1 KQQ         1 TEMP              0 ****  ****    0 ROOT
