@<TRIPOS>MOLECULE
KQQ
   71    75     1     0     0
SMALL
bcc


@<TRIPOS>ATOM
      1 OAH         0.3340    1.0980    0.1030 o         1 KQQ     -0.649100
      2 CAF         1.5770    0.9370    0.0420 c         1 KQQ      0.721700
      3 NAG         2.3540    1.4280    1.0680 n         1 KQQ     -0.675000
      4 CAD         2.2440    0.2440   -1.0580 cc        1 KQQ     -0.276700
      5 SAC         3.8680   -0.2000   -1.0280 ss        1 KQQ      0.015200
      6 CAB         3.8290   -0.8790   -2.5440 cc        1 KQQ     -0.131100
      7 CAA         2.5890   -0.8090   -3.1280 cd        1 KQQ     -0.162000
      8 CAE         1.6300   -0.1460   -2.2660 cd        1 KQQ      0.226600
      9 NAI         0.2860    0.0300   -2.5260 nh        1 KQQ     -0.714300
     10 C4         -0.3300    0.1060   -3.7780 ca        1 KQQ      0.763200
     11 N3          0.3610   -0.0430   -4.9350 nb        1 KQQ     -0.817000
     12 C5         -1.7370    0.3490   -3.8000 ca        1 KQQ     -0.395400
     13 CAP        -2.7740    0.5690   -2.8290 cc        1 KQQ     -0.137200
     14 CAQ        -3.9580    0.7490   -3.5360 cd        1 KQQ     -0.134100
     15 NAR        -3.7210    0.6590   -4.9160 na        1 KQQ     -0.285100
     16 C6         -2.3610    0.4080   -5.1090 ca        1 KQQ      0.496800
     17 N1         -1.6950    0.2500   -6.2920 nb        1 KQQ     -0.763000
     18 C2         -0.3510    0.0100   -6.1390 ca        1 KQQ      0.904900
     19 NAS         0.4270   -0.2860   -7.2920 nh        1 KQQ     -0.679300
     20 CAT        -0.0130    0.1260   -8.5750 ca        1 KQQ      0.117600
     21 CAY         0.7440    1.0530   -9.3490 ca        1 KQQ      0.073100
     22 OAZ         1.8620    1.5900   -8.7280 os        1 KQQ     -0.338900
     23 CBA         2.7660    2.3000   -9.5640 c3        1 KQQ      0.118700
     24 CAU        -1.1590   -0.4320   -9.1550 ca        1 KQQ     -0.079000
     25 CAV        -1.5670   -0.0910  -10.4660 ca        1 KQQ      0.046600
     26 CAW        -0.7970    0.8240  -11.2190 ca        1 KQQ     -0.082300
     27 CAX         0.3480    1.3850  -10.6400 ca        1 KQQ     -0.173000
     28 NBB        -2.7790   -0.6290  -10.9760 n         1 KQQ     -0.381000
     29 C          -3.1490   -1.9600  -10.7040 c         1 KQQ      0.662100
     30 CA         -4.5880   -2.3720  -11.0610 c3        1 KQQ      0.114800
     31 N          -5.1660   -3.2940  -10.0990 n3        1 KQQ     -0.730600
     32 CBL        -6.6100   -3.2260  -10.0630 c3        1 KQQ      0.153100
     33 CBM        -4.6670   -4.6460  -10.2080 c3        1 KQQ      0.153100
     34 O          -2.3490   -2.7540  -10.1840 o         1 KQQ     -0.564100
     35 CBC        -3.3430    0.0760  -12.1060 c3        1 KQQ      0.093000
     36 CBD        -2.3110    0.4120  -13.1770 c3        1 KQQ     -0.098400
     37 CBE        -1.1680    1.2570  -12.6130 c3        1 KQQ      0.000300
     38 CBG         0.0280    1.1060  -13.5510 c3        1 KQQ     -0.085600
     39 CBF        -1.5930    2.7240  -12.5860 c3        1 KQQ     -0.085600
     40 H1          3.3390    1.3950    1.0310 hn        1 KQQ      0.312000
     41 H2          1.9180    1.9240    1.8040 hn        1 KQQ      0.312000
     42 H3          4.7050   -1.3370   -3.0040 h4        1 KQQ      0.176000
     43 H4          2.3430   -1.2100   -4.1150 ha        1 KQQ      0.190000
     44 H5         -0.2700    0.3700   -1.7580 hn        1 KQQ      0.485800
     45 H6         -2.6490    0.5910   -1.7490 ha        1 KQQ      0.165000
     46 H7         -4.9680    0.9400   -3.1670 h4        1 KQQ      0.169000
     47 H8         -4.3960    0.7260   -5.6310 hn        1 KQQ      0.310700
     48 H9          1.4110   -0.1350   -7.1570 hn        1 KQQ      0.438800
     49 H10         3.0870    1.6740  -10.4320 h1        1 KQQ      0.043367
     50 H11         2.3030    3.2530   -9.9180 h1        1 KQQ      0.043367
     51 H12         3.6320    2.5130   -8.8870 h1        1 KQQ      0.043367
     52 H13        -1.7520   -1.1650   -8.5780 ha        1 KQQ      0.181000
     53 H14         0.9360    2.1100  -11.2230 ha        1 KQQ      0.138000
     54 H15        -5.2450   -1.4560  -11.0930 h1        1 KQQ      0.052200
     55 H16        -4.5380   -2.8120  -12.1020 h1        1 KQQ      0.052200
     56 H18        -6.9780   -3.9130   -9.2580 h1        1 KQQ      0.037700
     57 H19        -7.0940   -3.5220  -11.0340 h1        1 KQQ      0.037700
     58 H20        -6.9250   -2.1790   -9.8110 h1        1 KQQ      0.037700
     59 H21        -4.9690   -5.1480  -11.1690 h1        1 KQQ      0.037700
     60 H22        -3.5460   -4.6310  -10.1410 h1        1 KQQ      0.037700
     61 H23        -5.0710   -5.2450   -9.3500 h1        1 KQQ      0.037700
     62 H24        -3.8040    1.0320  -11.7210 h1        1 KQQ      0.051200
     63 H25        -4.1590   -0.5330  -12.5860 h1        1 KQQ      0.051200
     64 H26        -1.8970   -0.5350  -13.6140 hc        1 KQQ      0.053700
     65 H27        -2.8210    0.9720  -14.0030 hc        1 KQQ      0.053700
     66 H28        -0.2980    1.2680  -14.6070 hc        1 KQQ      0.037867
     67 H29         0.4660    0.0840  -13.4610 hc        1 KQQ      0.037867
     68 H30         0.8180    1.8560  -13.3110 hc        1 KQQ      0.037867
     69 H31        -1.8020    3.0800  -13.6230 hc        1 KQQ      0.037867
     70 H32        -2.5120    2.8520  -11.9680 hc        1 KQQ      0.037867
     71 H33        -0.7810    3.3540  -12.1500 hc        1 KQQ      0.037867
@<TRIPOS>BOND
     1    1    2 2   
     2    2    3 1   
     3    2    4 1   
     4    3   40 1   
     5    3   41 1   
     6    4    5 1   
     7    4    8 2   
     8    5    6 1   
     9    6    7 2   
    10    6   42 1   
    11    7    8 1   
    12    7   43 1   
    13    8    9 1   
    14    9   10 1   
    15    9   44 1   
    16   10   11 ar  
    17   10   12 ar  
    18   11   18 ar  
    19   12   13 1   
    20   12   16 ar  
    21   13   14 2   
    22   13   45 1   
    23   14   15 1   
    24   14   46 1   
    25   15   16 1   
    26   15   47 1   
    27   16   17 ar  
    28   17   18 ar  
    29   18   19 1   
    30   19   20 1   
    31   19   48 1   
    32   20   21 ar  
    33   20   24 ar  
    34   21   22 1   
    35   21   27 ar  
    36   22   23 1   
    37   23   49 1   
    38   23   50 1   
    39   23   51 1   
    40   24   25 ar  
    41   24   52 1   
    42   25   26 ar  
    43   25   28 1   
    44   26   27 ar  
    45   26   37 1   
    46   27   53 1   
    47   28   29 1   
    48   28   35 1   
    49   29   30 1   
    50   29   34 2   
    51   30   31 1   
    52   30   54 1   
    53   30   55 1   
    54   31   32 1   
    55   31   33 1   
    56   32   56 1   
    57   32   57 1   
    58   32   58 1   
    59   33   59 1   
    60   33   60 1   
    61   33   61 1   
    62   35   36 1   
    63   35   62 1   
    64   35   63 1   
    65   36   37 1   
    66   36   64 1   
    67   36   65 1   
    68   37   38 1   
    69   37   39 1   
    70   38   66 1   
    71   38   67 1   
    72   38   68 1   
    73   39   69 1   
    74   39   70 1   
    75   39   71 1   
@<TRIPOS>SUBSTRUCTURE
     1 KQQ         1 TEMP              0 ****  ****    0 ROOT
