@<TRIPOS>MOLECULE
KQS
   43    45     1     0     0
SMALL
bcc


@<TRIPOS>ATOM
      1 F           1.5780   -2.6970   -3.1670 f         1 KQS     -0.182900
      2 C16         1.8150   -1.9810   -2.0310 ca        1 KQS      0.090900
      3 C15         2.0510   -2.6670   -0.8290 ca        1 KQS     -0.139000
      4 C14         2.2980   -1.9400    0.3330 ca        1 KQS     -0.085000
      5 C13         2.3090   -0.5460    0.2980 ca        1 KQS     -0.118000
      6 C12         2.0700    0.1320   -0.8970 ca        1 KQS     -0.088000
      7 C11         1.8170   -0.5670   -2.0800 ca        1 KQS     -0.140300
      8 C10         1.5320    0.1290   -3.3730 c3        1 KQS     -0.003400
      9 C17         0.9210    1.5040   -3.1850 c3        1 KQS     -0.103100
     10 C9          2.8150    0.2240   -4.2070 c3        1 KQS     -0.162400
     11 C8          2.5990   -0.1750   -5.6380 c         1 KQS      0.547100
     12 O1          2.6350    0.5390   -6.6280 o         1 KQS     -0.410100
     13 N2          2.3280   -1.6430   -5.8830 ny        1 KQS     -0.693800
     14 C7          1.0540   -1.8640   -6.6520 c3        1 KQS      0.185100
     15 C3          0.9080   -3.2950   -7.0340 ca        1 KQS     -0.203300
     16 C2          0.5220   -4.2220   -6.0460 ca        1 KQS     -0.115000
     17 C4          1.1240   -3.6840   -8.3580 ca        1 KQS     -0.074000
     18 C5          0.9650   -5.0110   -8.7660 ca        1 KQS     -0.143000
     19 C6          0.5900   -5.9500   -7.8100 ca        1 KQS      0.067600
     20 C1          0.3630   -5.5430   -6.4250 ca        1 KQS     -0.002400
     21 N           0.0500   -6.6960   -5.6830 ns        1 KQS     -0.438100
     22 N1          0.3700   -7.3240   -7.8880 ns        1 KQS     -0.453100
     23 C          -0.0250   -7.7980   -6.5970 c         1 KQS      0.790500
     24 O          -0.3250   -8.9630   -6.3140 o         1 KQS     -0.568500
     25 H15         2.0350   -3.7680   -0.8150 ha        1 KQS      0.163000
     26 H14         2.4820   -2.4720    1.2810 ha        1 KQS      0.162000
     27 H13         2.5040    0.0260    1.2200 ha        1 KQS      0.160000
     28 H12         2.0750    1.2340   -0.9010 ha        1 KQS      0.153000
     29 H10         0.7700   -0.4980   -3.9260 hc        1 KQS      0.047700
     30 H171        1.6590    2.2230   -2.7530 hc        1 KQS      0.060033
     31 H172        0.5760    1.9070   -4.1680 hc        1 KQS      0.060033
     32 H173        0.0440    1.4410   -2.4960 hc        1 KQS      0.060033
     33 H91C        3.6240   -0.4180   -3.7620 hc        1 KQS      0.116200
     34 H92C        3.1950    1.2860   -4.2150 hc        1 KQS      0.116200
     35 H2          3.1060   -2.0420   -6.4210 hn        1 KQS      0.465800
     36 H71C        1.0850   -1.1970   -7.5620 hx        1 KQS      0.109700
     37 H72C        0.2040   -1.5370   -5.9860 hx        1 KQS      0.109700
     38 HA          0.3470   -3.9000   -5.0080 ha        1 KQS      0.149000
     39 H4          1.4140   -2.9330   -9.1120 ha        1 KQS      0.147000
     40 H5          1.1320   -5.2970   -9.8150 ha        1 KQS      0.168000
     41 H1          0.3540   -7.8730   -8.7090 hn        1 KQS      0.373500
     42 H          -0.4620   -6.6890   -4.8360 hn        1 KQS      0.357500
     43 H22         2.2670   -2.1430   -4.9820 hn        1 KQS      0.465800
@<TRIPOS>BOND
     1    1    2 1   
     2    2    3 ar  
     3    2    7 ar  
     4    3    4 ar  
     5    3   25 1   
     6    4    5 ar  
     7    4   26 1   
     8    5    6 ar  
     9    5   27 1   
    10    6    7 ar  
    11    6   28 1   
    12    7    8 1   
    13    8    9 1   
    14    8   10 1   
    15    8   29 1   
    16    9   30 1   
    17    9   31 1   
    18    9   32 1   
    19   10   11 1   
    20   10   33 1   
    21   10   34 1   
    22   11   12 2   
    23   11   13 1   
    24   13   14 1   
    25   13   35 1   
    26   13   43 1   
    27   14   15 1   
    28   14   36 1   
    29   14   37 1   
    30   15   16 ar  
    31   15   17 ar  
    32   16   20 ar  
    33   16   38 1   
    34   17   18 ar  
    35   17   39 1   
    36   18   19 ar  
    37   18   40 1   
    38   19   20 ar  
    39   19   22 1   
    40   20   21 1   
    41   21   23 1   
    42   21   42 1   
    43   22   23 1   
    44   22   41 1   
    45   23   24 2   
@<TRIPOS>SUBSTRUCTURE
     1 KQS         1 TEMP              0 ****  ****    0 ROOT
