@<TRIPOS>MOLECULE
KQS
   43    45     1     0     0
SMALL
bcc


@<TRIPOS>ATOM
      1 F           1.5420   -2.7000   -3.1630 f         1 KQS     -0.182900
      2 C16         1.7840   -1.9910   -2.0240 ca        1 KQS      0.090900
      3 C15         1.9740   -2.6820   -0.8170 ca        1 KQS     -0.139000
      4 C14         2.2270   -1.9620    0.3480 ca        1 KQS     -0.085000
      5 C13         2.2890   -0.5690    0.3110 ca        1 KQS     -0.118000
      6 C12         2.0950    0.1140   -0.8890 ca        1 KQS     -0.088000
      7 C11         1.8380   -0.5780   -2.0750 ca        1 KQS     -0.140300
      8 C10         1.6000    0.1260   -3.3740 c3        1 KQS     -0.003400
      9 C17         1.0360    1.5220   -3.1980 c3        1 KQS     -0.103100
     10 C9          2.9010    0.1730   -4.1860 c3        1 KQS     -0.162400
     11 C8          2.6950   -0.2210   -5.6200 c         1 KQS      0.547100
     12 O1          2.7740    0.4900   -6.6090 o         1 KQS     -0.410100
     13 N2          2.3770   -1.6780   -5.8670 n4        1 KQS     -0.693800
     14 C7          1.1090   -1.8560   -6.6580 c3        1 KQS      0.185100
     15 C3          0.9200   -3.2820   -7.0400 ca        1 KQS     -0.203300
     16 C2          0.4840   -4.1930   -6.0580 ca        1 KQS     -0.115000
     17 C4          1.1440   -3.6800   -8.3600 ca        1 KQS     -0.074000
     18 C5          0.9460   -5.0020   -8.7690 ca        1 KQS     -0.143000
     19 C6          0.5210   -5.9250   -7.8190 ca        1 KQS      0.067600
     20 C1          0.2850   -5.5080   -6.4380 ca        1 KQS     -0.002400
     21 N          -0.0820   -6.6480   -5.7010 n         1 KQS     -0.438100
     22 N1          0.2540   -7.2900   -7.8990 n         1 KQS     -0.453100
     23 C          -0.1800   -7.7480   -6.6150 c         1 KQS      0.790500
     24 O          -0.5260   -8.9020   -6.3360 o         1 KQS     -0.568500
     25 H15         1.9190   -3.7810   -0.8020 ha        1 KQS      0.163000
     26 H14         2.3760   -2.4990    1.2990 ha        1 KQS      0.162000
     27 H13         2.4890   -0.0030    1.2350 ha        1 KQS      0.160000
     28 H12         2.1400    1.2150   -0.8940 ha        1 KQS      0.153000
     29 H10         0.8270   -0.4750   -3.9390 hc        1 KQS      0.047700
     30 H171        0.7230    1.9350   -4.1880 hc        1 KQS      0.060033
     31 H172        1.7920    2.2150   -2.7550 hc        1 KQS      0.060033
     32 H173        0.1450    1.4910   -2.5250 hc        1 KQS      0.060033
     33 H91C        3.3180    1.2210   -4.1880 hc        1 KQS      0.116200
     34 H92C        3.6780   -0.4970   -3.7260 hc        1 KQS      0.116200
     35 H2          2.2830   -2.1750   -4.9670 hn        1 KQS      0.465800
     36 H71C        1.1800   -1.1920   -7.5690 hx        1 KQS      0.109700
     37 H72C        0.2600   -1.4980   -6.0070 hx        1 KQS      0.109700
     38 HA          0.3020   -3.8620   -5.0240 ha        1 KQS      0.149000
     39 H4          1.4740   -2.9420   -9.1100 ha        1 KQS      0.147000
     40 H5          1.1210   -5.2950   -9.8150 ha        1 KQS      0.168000
     41 H1          0.2330   -7.8410   -8.7200 hn        1 KQS      0.373500
     42 H          -0.6090   -6.6210   -4.8630 hn        1 KQS      0.357500
     43 H22         3.1490   -2.1070   -6.3910 hn        1 KQS      0.465800
@<TRIPOS>BOND
     1    1    2 1   
     2    2    3 ar  
     3    2    7 ar  
     4    3    4 ar  
     5    3   25 1   
     6    4    5 ar  
     7    4   26 1   
     8    5    6 ar  
     9    5   27 1   
    10    6    7 ar  
    11    6   28 1   
    12    7    8 1   
    13    8    9 1   
    14    8   10 1   
    15    8   29 1   
    16    9   30 1   
    17    9   31 1   
    18    9   32 1   
    19   10   11 1   
    20   10   33 1   
    21   10   34 1   
    22   11   12 2   
    23   11   13 1   
    24   13   14 1   
    25   13   35 1   
    26   13   43 1   
    27   14   15 1   
    28   14   36 1   
    29   14   37 1   
    30   15   16 ar  
    31   15   17 ar  
    32   16   20 ar  
    33   16   38 1   
    34   17   18 ar  
    35   17   39 1   
    36   18   19 ar  
    37   18   40 1   
    38   19   20 ar  
    39   19   22 1   
    40   20   21 1   
    41   21   23 1   
    42   21   42 1   
    43   22   23 1   
    44   22   41 1   
    45   23   24 2   
@<TRIPOS>SUBSTRUCTURE
     1 KQS         1 TEMP              0 ****  ****    0 ROOT
