@<TRIPOS>MOLECULE
KR1
   52    54     1     0     0
SMALL
bcc


@<TRIPOS>ATOM
      1 F1         -0.4900    1.2560    0.6570 f         1 KR1     -0.169200
      2 N1          5.7150   -2.6410   -0.6160 n1        1 KR1     -0.455800
      3 O1          5.4170   -0.8400    6.0490 o         1 KR1     -0.462100
      4 C2          8.0610   -2.2920    2.0300 ca        1 KR1     -0.048000
      5 N2          1.2180   -3.2490    5.0750 n         1 KR1     -0.575500
      6 O2          1.9550   -5.2030    5.9610 o         1 KR1     -0.561500
      7 C3          6.6930   -2.4300    1.7640 ca        1 KR1     -0.058000
      8 N3          2.7880   -1.5460    4.3540 n         1 KR1     -0.382000
      9 C4          5.7520   -2.3100    2.7970 ca        1 KR1     -0.081000
     10 C5          6.1720   -1.9190    4.0690 ca        1 KR1     -0.171600
     11 N5          1.4020    0.2750   -0.2240 nb        1 KR1     -0.686000
     12 C6          7.5390   -1.7610    4.3340 ca        1 KR1     -0.040000
     13 C7          8.4880   -1.9790    3.3270 ca        1 KR1     -0.066300
     14 C9          3.8210   -2.2520    4.9920 cc        1 KR1     -0.016600
     15 C10         9.9330   -1.8680    3.6300 c3        1 KR1     -0.070800
     16 C11         3.6150   -3.4820    5.5530 cd        1 KR1     -0.165400
     17 C12         2.2540   -4.0710    5.5600 c         1 KR1      0.712700
     18 C13         1.4420   -1.9830    4.5400 c         1 KR1      0.811500
     19 C14         4.7090   -4.2590    6.2170 c3        1 KR1     -0.006500
     20 C15         4.4070   -4.4730    7.6890 c3        1 KR1     -0.100100
     21 C16         4.9360   -5.5880    5.5210 c3        1 KR1     -0.100100
     22 C17         2.9830   -0.2210    3.8030 c3        1 KR1      0.144300
     23 C18         2.4420   -0.0580    2.4000 ca        1 KR1     -0.027300
     24 C19         3.1900   -0.4700    1.2820 ca        1 KR1     -0.213300
     25 C20         2.6150   -0.2960    0.0100 ca        1 KR1      0.469200
     26 C21         0.7110    0.6820    0.8710 ca        1 KR1      0.665500
     27 C22         1.1930    0.5240    2.2070 ca        1 KR1     -0.164300
     28 H2          8.8000   -2.4220    1.2230 ha        1 KR1      0.164000
     29 HN2         0.2680   -3.5500    5.1600 hn        1 KR1      0.368500
     30 H4          4.6890   -2.5240    2.6040 ha        1 KR1      0.146000
     31 HN4         4.3160   -0.4550   -1.1420 hn        1 KR1      0.478467
     32 HN4A        2.9090   -0.4050   -2.0500 hn        1 KR1      0.478467
     33 H6          7.8620   -1.4560    5.3450 ha        1 KR1      0.175000
     34 H10        10.5160   -1.5790    2.7200 hc        1 KR1      0.066367
     35 H10A       10.1180   -1.1050    4.4260 hc        1 KR1      0.066367
     36 H10B       10.3190   -2.8540    3.9950 hc        1 KR1      0.066367
     37 H14         5.6680   -3.6650    6.1460 hc        1 KR1      0.044700
     38 H15         3.4820   -5.0880    7.8150 hc        1 KR1      0.052533
     39 H15A        5.2590   -5.0110    8.1700 hc        1 KR1      0.052533
     40 H15B        4.2650   -3.4950    8.2080 hc        1 KR1      0.052533
     41 H16         4.0280   -6.2350    5.6030 hc        1 KR1      0.052533
     42 H16A        5.1710   -5.4340    4.4410 hc        1 KR1      0.052533
     43 H16B        5.7930   -6.1190    6.0020 hc        1 KR1      0.052533
     44 H17         4.0860    0.0190    3.7920 h1        1 KR1      0.090200
     45 H17A        2.4610    0.5320    4.4680 h1        1 KR1      0.090200
     46 H19         4.1910   -0.9110    1.4120 ha        1 KR1      0.169000
     47 H22         0.5520    0.8250    3.0570 ha        1 KR1      0.221000
     48 O3          0.4920   -1.2510    4.1810 o         1 KR1     -0.654500
     49 H43         3.3120   -1.7980   -1.2140 hn        1 KR1      0.478467
     50 N4          3.3420   -0.7700   -1.1890 n4        1 KR1     -0.817300
     51 C8          5.1770   -1.6030    5.1130 c         1 KR1      0.576900
     52 C1          6.1960   -2.5950    0.4440 cg        1 KR1      0.296800
@<TRIPOS>BOND
     1    1   26 1   
     2    2   52 3   
     3    3   51 2   
     4    4    7 ar  
     5    4   13 ar  
     6    4   28 1   
     7    5   17 1   
     8    5   18 1   
     9    5   29 1   
    10    6   17 2   
    11    7    9 ar  
    12    7   52 1   
    13    8   14 1   
    14    8   18 1   
    15    8   22 1   
    16    9   10 ar  
    17    9   30 1   
    18   10   12 ar  
    19   10   51 1   
    20   11   25 ar  
    21   11   26 ar  
    22   12   13 ar  
    23   12   33 1   
    24   13   15 1   
    25   14   16 2   
    26   14   51 1   
    27   15   34 1   
    28   15   35 1   
    29   15   36 1   
    30   16   17 1   
    31   16   19 1   
    32   18   48 2   
    33   19   20 1   
    34   19   21 1   
    35   19   37 1   
    36   20   38 1   
    37   20   39 1   
    38   20   40 1   
    39   21   41 1   
    40   21   42 1   
    41   21   43 1   
    42   22   23 1   
    43   22   44 1   
    44   22   45 1   
    45   23   24 ar  
    46   23   27 ar  
    47   24   25 ar  
    48   24   46 1   
    49   25   50 1   
    50   26   27 ar  
    51   27   47 1   
    52   31   50 1   
    53   32   50 1   
    54   49   50 1   
@<TRIPOS>SUBSTRUCTURE
     1 KR1         1 TEMP              0 ****  ****    0 ROOT
