@<TRIPOS>MOLECULE
KR1
   51    48     1     0     0
SMALL
bcc


@<TRIPOS>ATOM
      1 C1         -1.9230   -4.7240    3.2660 c1        1 KR1     -0.104000
      2 F1          1.3890    4.9380   -4.8400 f         1 KR1     -0.080000
      3 N1         -2.1460   -5.7990    3.5830 n1        1 KR1     -0.017000
      4 O1         -1.8710    0.4130    0.2020 o         1 KR1     -0.250000
      5 C2         -1.9580   -2.2150    3.6610 c1        1 KR1     -0.060000
      6 N2          2.9410    0.0920   -1.6410 n         1 KR1     -0.363000
      7 O2          3.5140   -1.9970   -0.8790 o         1 KR1     -0.325000
      8 C3         -1.6280   -3.2950    2.8450 c1        1 KR1     -0.018000
      9 N3          0.5240    0.8300   -1.3370 n         1 KR1     -0.252000
     10 O3          2.1830    2.2320   -2.1730 o         1 KR1     -0.366000
     11 C4         -1.3320   -3.0860    1.4990 c2        1 KR1     -0.041000
     12 N4         -0.1360    6.4910   -0.6010 n3        1 KR1     -0.332000
     13 C5         -1.3670   -1.8000    0.9690 c1        1 KR1     -0.164000
     14 N5          0.6940    5.6820   -2.7270 n1        1 KR1     -0.223000
     15 C6         -1.6980   -0.7190    1.7870 c2        1 KR1     -0.062000
     16 C7         -1.9940   -0.9270    3.1320 c1        1 KR1     -0.081000
     17 C8         -1.0540   -0.4920    0.2140 c1        1 KR1      0.308000
     18 C9          0.2380   -0.3810   -0.6400 c2        1 KR1      0.035000
     19 C10        -2.2870    0.2670    4.0450 c3        1 KR1     -0.185000
     20 C11         1.2620   -1.4470   -0.5720 c1        1 KR1     -0.188000
     21 C12         2.6320   -1.1740   -1.0530 c1        1 KR1      0.357000
     22 C13         1.8980    1.1240   -1.7560 c2        1 KR1      0.400000
     23 C14         0.8510   -2.8800   -0.2060 c3        1 KR1     -0.044000
     24 C15         1.8530   -3.4570    0.8100 c3        1 KR1     -0.214500
     25 C16         0.8470   -3.7510   -1.4730 c3        1 KR1     -0.214500
     26 C17        -0.5610    1.6930   -1.7610 c3        1 KR1      0.017000
     27 C18        -0.0110    3.0980   -2.0640 c2        1 KR1     -0.031000
     28 C19        -0.2080    4.1150   -1.1670 c2        1 KR1     -0.236000
     29 C20         0.1480    5.4170   -1.5030 c1        1 KR1      0.146000
     30 C21         0.8900    4.6690   -3.6240 c2        1 KR1      0.186000
     31 C22         0.5350    3.3660   -3.2910 c2        1 KR1     -0.241000
     32 H2         -2.1670   -2.3630    4.6090 ha        1 KR1      0.154000
     33 HN2         3.8020    0.2780   -1.9030 hn        1 KR1      0.270000
     34 H4         -1.0990   -3.8470    0.9250 ha        1 KR1      0.169000
     35 HN4        -0.6730    6.3460    0.1290 hn        1 KR1      0.213500
     36 HN4A        0.1860    7.3320   -0.7730 hn        1 KR1      0.213500
     37 H6         -1.7230    0.1840    1.4160 ha        1 KR1      0.152000
     38 H10        -1.8000    1.0550    3.7190 hc        1 KR1      0.093667
     39 H10A       -1.9970    0.0580    4.9610 hc        1 KR1      0.093667
     40 H10B       -3.2520    0.4530    4.0410 hc        1 KR1      0.093667
     41 H14        -0.0410   -2.8720    0.1870 hc        1 KR1      0.088000
     42 H15         2.7670   -3.2290    0.5340 hc        1 KR1      0.085833
     43 H15A        1.7570   -4.4360    0.8470 hc        1 KR1      0.085833
     44 H15B        1.6750   -3.0770    1.6990 hc        1 KR1      0.085833
     45 H16        -0.0770   -3.8610   -1.7920 hc        1 KR1      0.085833
     46 H16A        1.2290   -4.6340   -1.2650 hc        1 KR1      0.085833
     47 H16B        1.3850   -3.3180   -2.1710 hc        1 KR1      0.085833
     48 H17        -1.2310    1.7510   -1.0470 h1        1 KR1      0.123500
     49 H17A       -0.9770    1.3220   -2.5720 h1        1 KR1      0.123500
     50 H19        -0.6190    3.9280   -0.2960 ha        1 KR1      0.171000
     51 H22         0.6310    2.6480   -3.9530 ha        1 KR1      0.171000
@<TRIPOS>BOND
     1    1    3 1   
     2    2   30 1   
     3    4   17 1   
     4    5    8 1   
     5    5   32 1   
     6    6   21 1   
     7    6   22 1   
     8    6   33 1   
     9    7   21 1   
    10    8   11 1   
    11    9   18 1   
    12    9   22 1   
    13    9   26 1   
    14   10   22 1   
    15   11   13 1   
    16   11   34 1   
    17   12   29 1   
    18   12   35 1   
    19   12   36 1   
    20   13   15 1   
    21   14   30 1   
    22   15   16 1   
    23   15   37 1   
    24   16   19 1   
    25   17   18 1   
    26   18   20 1   
    27   19   38 1   
    28   19   39 1   
    29   19   40 1   
    30   20   23 1   
    31   23   24 1   
    32   23   25 1   
    33   23   41 1   
    34   24   42 1   
    35   24   43 1   
    36   24   44 1   
    37   25   45 1   
    38   25   46 1   
    39   25   47 1   
    40   26   27 1   
    41   26   48 1   
    42   26   49 1   
    43   27   28 1   
    44   27   31 1   
    45   28   29 1   
    46   28   50 1   
    47   30   31 1   
    48   31   51 1   
@<TRIPOS>SUBSTRUCTURE
     1 KR1         1 TEMP              0 ****  ****    0 ROOT
