@<TRIPOS>MOLECULE
KR1
   51    53     1     0     0
SMALL
bcc


@<TRIPOS>ATOM
      1 F1          1.0130   -1.0710   -0.4880 f         1 KR1     -0.217200
      2 N1          5.1660   -5.2500    0.1400 n1        1 KR1     -0.338800
      3 O1          5.2130   -0.6300    5.5760 o         1 KR1     -0.502100
      4 C2          7.3650   -3.0350    1.7200 ca        1 KR1     -0.061000
      5 N2          1.0170   -3.3890    5.4470 n         1 KR1     -0.581500
      6 O2          1.9450   -5.1630    6.5090 o         1 KR1     -0.600500
      7 C3          6.0500   -3.5080    1.8320 ca        1 KR1     -0.019000
      8 N3          2.3780   -1.5490    4.6430 n         1 KR1     -0.362000
      9 C4          5.2160   -3.0440    2.8580 ca        1 KR1     -0.043000
     10 C5          5.7010   -2.1000    3.7680 ca        1 KR1     -0.178600
     11 N5          2.8900    0.2300   -0.1690 nb        1 KR1     -0.749000
     12 C6          7.0170   -1.6290    3.6520 ca        1 KR1     -0.058000
     13 C7          7.8530   -2.0950    2.6330 ca        1 KR1     -0.092300
     14 C8          4.8580   -1.5680    4.8560 c         1 KR1      0.592900
     15 C9          3.5180   -2.2280    5.0760 cc        1 KR1      0.021400
     16 C10         9.2490   -1.6100    2.5280 c3        1 KR1     -0.059800
     17 C11         3.4510   -3.4360    5.7170 cd        1 KR1     -0.215400
     18 C12         2.1370   -4.0770    5.9380 c         1 KR1      0.719700
     19 C13         1.0970   -2.1420    4.8190 c         1 KR1      0.806500
     20 C14         4.6650   -4.1470    6.2280 c3        1 KR1     -0.000500
     21 C15         4.6120   -4.2960    7.7380 c3        1 KR1     -0.097600
     22 C16         4.8290   -5.5010    5.5630 c3        1 KR1     -0.097600
     23 C17         2.4310   -0.1940    4.1250 c3        1 KR1      0.127300
     24 C18         2.6050   -0.0830    2.6350 ca        1 KR1     -0.024300
     25 C19         3.6520    0.6750    2.1190 ca        1 KR1     -0.314300
     26 C20         3.7600    0.8340    0.7010 ca        1 KR1      0.666200
     27 C21         1.8790   -0.4920    0.3800 ca        1 KR1      0.656500
     28 C22         1.6860   -0.6790    1.7710 ca        1 KR1     -0.303300
     29 H2          8.0150   -3.4060    0.9120 ha        1 KR1      0.153000
     30 HN2         0.1050   -3.7800    5.5660 hn        1 KR1      0.358500
     31 H4          4.1850   -3.4260    2.9430 ha        1 KR1      0.160000
     32 HN4         4.8950    1.6500   -0.7990 hn        1 KR1      0.414800
     33 HN4A        5.5630    1.7550    0.7370 hn        1 KR1      0.414800
     34 H6          7.3870   -0.8840    4.3780 ha        1 KR1      0.161000
     35 H10         9.3620   -0.6040    3.0000 hc        1 KR1      0.053700
     36 H10A        9.5660   -1.5380    1.4580 hc        1 KR1      0.053700
     37 H10B        9.9380   -2.3220    3.0500 hc        1 KR1      0.053700
     38 H14         5.5770   -3.5280    5.9780 hc        1 KR1      0.044700
     39 H15         4.5180   -3.2970    8.2270 hc        1 KR1      0.046867
     40 H15A        5.5490   -4.7850    8.0980 hc        1 KR1      0.046867
     41 H15B        3.7410   -4.9280    8.0370 hc        1 KR1      0.046867
     42 H16         5.7650   -5.9880    5.9280 hc        1 KR1      0.046867
     43 H16A        4.8940   -5.3830    4.4540 hc        1 KR1      0.046867
     44 H16B        3.9620   -6.1640    5.8060 hc        1 KR1      0.046867
     45 H17         1.4530    0.3150    4.3890 h1        1 KR1      0.095200
     46 H17A        3.2640    0.3570    4.6520 h1        1 KR1      0.095200
     47 H19         4.3750    1.1640    2.7860 ha        1 KR1      0.148000
     48 H22         0.8280   -1.2560    2.1450 ha        1 KR1      0.180000
     49 N4          4.7410    1.6850    0.1830 nh        1 KR1     -0.931500
     50 O3          0.0630   -1.5630    4.4220 o         1 KR1     -0.635500
     51 C1          5.5620   -4.4650    0.9010 cg        1 KR1      0.222800
@<TRIPOS>BOND
     1    1   27 1   
     2    2   51 3   
     3    3   14 2   
     4    4    7 ar  
     5    4   13 ar  
     6    4   29 1   
     7    5   18 1   
     8    5   19 1   
     9    5   30 1   
    10    6   18 2   
    11    7    9 ar  
    12    7   51 1   
    13    8   15 1   
    14    8   19 1   
    15    8   23 1   
    16    9   10 ar  
    17    9   31 1   
    18   10   12 ar  
    19   10   14 1   
    20   11   26 ar  
    21   11   27 ar  
    22   12   13 ar  
    23   12   34 1   
    24   13   16 1   
    25   14   15 1   
    26   15   17 2   
    27   16   35 1   
    28   16   36 1   
    29   16   37 1   
    30   17   18 1   
    31   17   20 1   
    32   19   50 2   
    33   20   21 1   
    34   20   22 1   
    35   20   38 1   
    36   21   39 1   
    37   21   40 1   
    38   21   41 1   
    39   22   42 1   
    40   22   43 1   
    41   22   44 1   
    42   23   24 1   
    43   23   45 1   
    44   23   46 1   
    45   24   25 ar  
    46   24   28 ar  
    47   25   26 ar  
    48   25   47 1   
    49   26   49 1   
    50   27   28 ar  
    51   28   48 1   
    52   32   49 1   
    53   33   49 1   
@<TRIPOS>SUBSTRUCTURE
     1 KR1         1 TEMP              0 ****  ****    0 ROOT
