@<TRIPOS>MOLECULE
KR1
   51    53     1     0     0
SMALL
bcc


@<TRIPOS>ATOM
      1 F1          4.0020   -1.7380   -2.1890 f         1 KR1     -0.217200
      2 N1         -1.5820   -1.9030   -4.0920 n1        1 KR1     -0.342800
      3 O1         -1.1170    0.3960    2.6510 o         1 KR1     -0.505100
      4 C2         -2.6070   -2.8570   -0.8860 ca        1 KR1     -0.056000
      5 N2          0.8930    3.6140   -0.6440 n         1 KR1     -0.581500
      6 O2         -1.0960    4.5570   -1.1840 o         1 KR1     -0.600500
      7 C3         -1.9130   -1.8240   -1.5290 ca        1 KR1     -0.019000
      8 N3          1.0060    1.5920    0.6910 n         1 KR1     -0.362000
      9 C4         -1.3990   -0.7500   -0.7920 ca        1 KR1     -0.043000
     10 C5         -1.5830   -0.7120    0.5940 ca        1 KR1     -0.179600
     11 N5          3.1090   -2.9770   -0.4600 nb        1 KR1     -0.747000
     12 C6         -2.2810   -1.7470    1.2340 ca        1 KR1     -0.054000
     13 C7         -2.7950   -2.8200    0.5000 ca        1 KR1     -0.089300
     14 C8         -1.0450    0.3860    1.4180 c         1 KR1      0.593900
     15 C9         -0.3880    1.5360    0.6910 cc        1 KR1      0.022400
     16 C10        -3.5180   -3.9180    1.1810 c3        1 KR1     -0.058800
     17 C11        -1.1600    2.4960    0.0920 cd        1 KR1     -0.215400
     18 C12        -0.5110    3.6210   -0.6150 c         1 KR1      0.719700
     19 C13         1.6680    2.6420   -0.0040 c         1 KR1      0.806500
     20 C14        -2.6550    2.4690    0.1310 c3        1 KR1     -0.000500
     21 C15        -3.2000    3.6790    0.8670 c3        1 KR1     -0.097100
     22 C16        -3.2400    2.3850   -1.2660 c3        1 KR1     -0.097100
     23 C17         1.8190    0.6830    1.4780 c3        1 KR1      0.128300
     24 C18         2.2320   -0.5820    0.7770 ca        1 KR1     -0.025300
     25 C19         1.9780   -1.8130    1.3760 ca        1 KR1     -0.311300
     26 C20         2.4240   -3.0060    0.7260 ca        1 KR1      0.660200
     27 C21         3.3290   -1.7560   -1.0110 ca        1 KR1      0.654500
     28 C22         2.9210   -0.5270   -0.4350 ca        1 KR1     -0.300300
     29 H2         -3.0070   -3.7000   -1.4720 ha        1 KR1      0.153000
     30 HN2         1.3810    4.3460   -1.1160 hn        1 KR1      0.357500
     31 H4         -0.8570    0.0610   -1.3070 ha        1 KR1      0.158000
     32 HN4         2.5490   -5.0430    0.8910 hn        1 KR1      0.411300
     33 HN4A        2.0280   -4.2490    2.2700 hn        1 KR1      0.411300
     34 H6         -2.4200   -1.7050    2.3280 ha        1 KR1      0.160000
     35 H10        -4.3690   -4.2830    0.5530 hc        1 KR1      0.053033
     36 H10A       -2.8230   -4.7770    1.3620 hc        1 KR1      0.053033
     37 H10B       -3.9250   -3.5830    2.1670 hc        1 KR1      0.053033
     38 H14        -2.9840    1.5470    0.6970 hc        1 KR1      0.045700
     39 H15        -2.9260    4.6190    0.3290 hc        1 KR1      0.046867
     40 H15A       -4.3140    3.6120    0.9240 hc        1 KR1      0.046867
     41 H15B       -2.7910    3.7240    1.9050 hc        1 KR1      0.046867
     42 H16        -2.9680    3.2910   -1.8610 hc        1 KR1      0.046867
     43 H16A       -2.8570    1.4780   -1.7940 hc        1 KR1      0.046867
     44 H16B       -4.3530    2.3190   -1.2040 hc        1 KR1      0.046867
     45 H17         2.7670    1.2330    1.7690 h1        1 KR1      0.094700
     46 H17A        1.2550    0.4320    2.4240 h1        1 KR1      0.094700
     47 H19         1.4380   -1.8720    2.3310 ha        1 KR1      0.149000
     48 H22         3.1640    0.4280   -0.9220 ha        1 KR1      0.180000
     49 N4          2.0880   -4.2480    1.2780 nh        1 KR1     -0.926500
     50 O3          2.9160    2.6960   -0.0450 o         1 KR1     -0.637500
     51 C1         -1.7290   -1.8660   -2.9390 cg        1 KR1      0.224800
@<TRIPOS>BOND
     1    1   27 1   
     2    2   51 3   
     3    3   14 2   
     4    4    7 ar  
     5    4   13 ar  
     6    4   29 1   
     7    5   18 1   
     8    5   19 1   
     9    5   30 1   
    10    6   18 2   
    11    7    9 ar  
    12    7   51 1   
    13    8   15 1   
    14    8   19 1   
    15    8   23 1   
    16    9   10 ar  
    17    9   31 1   
    18   10   12 ar  
    19   10   14 1   
    20   11   26 ar  
    21   11   27 ar  
    22   12   13 ar  
    23   12   34 1   
    24   13   16 1   
    25   14   15 1   
    26   15   17 2   
    27   16   35 1   
    28   16   36 1   
    29   16   37 1   
    30   17   18 1   
    31   17   20 1   
    32   19   50 2   
    33   20   21 1   
    34   20   22 1   
    35   20   38 1   
    36   21   39 1   
    37   21   40 1   
    38   21   41 1   
    39   22   42 1   
    40   22   43 1   
    41   22   44 1   
    42   23   24 1   
    43   23   45 1   
    44   23   46 1   
    45   24   25 ar  
    46   24   28 ar  
    47   25   26 ar  
    48   25   47 1   
    49   26   49 1   
    50   27   28 ar  
    51   28   48 1   
    52   32   49 1   
    53   33   49 1   
@<TRIPOS>SUBSTRUCTURE
     1 KR1         1 TEMP              0 ****  ****    0 ROOT
