@<TRIPOS>MOLECULE
KR1
   51    53     1     0     0
SMALL
bcc


@<TRIPOS>ATOM
      1 F1          0.0000    0.0000    0.0000 f         1 KR1     -0.208200
      2 N1          5.8510   -5.4020    0.6300 n1        1 KR1     -0.359800
      3 O1          5.0820   -0.3670    5.5210 o         1 KR1     -0.520100
      4 C2          7.7120   -2.8530    2.1120 ca        1 KR1     -0.076000
      5 N2          1.0640   -3.2630    5.3170 ns        1 KR1     -0.137500
      6 O2          2.0800   -5.1140    6.0320 o         1 KR1     -0.647500
      7 C3          6.4450   -3.4420    2.1780 ca        1 KR1      0.087000
      8 N3          2.3550   -1.3920    4.7310 n         1 KR1      0.227000
      9 C4          5.5000   -2.9560    3.0790 ca        1 KR1     -0.066000
     10 C5          5.8270   -1.8830    3.9100 ca        1 KR1     -0.226600
     11 N5          2.3100    0.0000    0.0000 nb        1 KR1     -0.571000
     12 C6          7.0980   -1.3040    3.8330 ca        1 KR1     -0.031000
     13 C7          8.0300   -1.7960    2.9410 ca        1 KR1     -0.135300
     14 C8          4.8320   -1.3590    4.8680 c         1 KR1      0.650900
     15 C9          3.5310   -2.0460    5.0330 cc        1 KR1     -0.192600
     16 C10         9.3970   -1.1670    2.8640 c3        1 KR1      0.055200
     17 C11         3.4830   -3.3290    5.4840 cd        1 KR1     -0.244400
     18 C12         2.1700   -3.9680    5.6320 c         1 KR1      0.625700
     19 C13         1.1650   -1.9970    4.8750 c         1 KR1      0.556500
     20 C14         4.7470   -4.0760    5.8220 c3        1 KR1      0.026500
     21 C15         4.7330   -4.4570    7.3040 c3        1 KR1     -0.001600
     22 C16         4.8350   -5.3420    4.9690 c3        1 KR1     -0.001600
     23 C17         2.4060   -0.0100    4.2460 c3        1 KR1     -0.609700
     24 C18         2.3740   -0.0060    2.7390 ca        1 KR1      0.104700
     25 C19         3.5490   -0.0030    2.0080 ca        1 KR1     -0.256300
     26 C20         3.4810    0.0000    0.6190 ca        1 KR1      0.496200
     27 C21         1.1720   -0.0010    0.6730 ca        1 KR1      0.536500
     28 C22         1.1670   -0.0040    2.0560 ca        1 KR1     -0.191300
     29 H2          8.6800   -2.8990    1.6290 ha        1 KR1      0.146000
     30 HN2         0.1480   -3.6600    5.2470 hn        1 KR1      0.206500
     31 H4          4.4570   -3.1590    3.2860 ha        1 KR1      0.145000
     32 HN4         4.7810   -0.9500   -0.4090 hn        1 KR1      0.318800
     33 HN4A        4.8980    0.9540   -0.3170 hn        1 KR1      0.318800
     34 H6          7.3440   -0.8400    4.7800 ha        1 KR1      0.132000
     35 H10         9.3230   -0.0900    2.7800 hc        1 KR1      0.024367
     36 H10A        9.8210   -1.7280    3.6880 hc        1 KR1      0.024367
     37 H10B        9.8310   -1.4030    1.8990 hc        1 KR1      0.024367
     38 H14         5.4670   -3.2880    5.6360 hc        1 KR1      0.035700
     39 H15         4.1400   -5.1770    7.8550 hc        1 KR1      0.013533
     40 H15A        4.7830   -3.4080    7.5680 hc        1 KR1      0.013533
     41 H15B        5.7910   -4.6370    7.4560 hc        1 KR1      0.013533
     42 H16         4.0270   -6.0620    4.9170 hc        1 KR1      0.013533
     43 H16A        5.7910   -5.7050    5.3280 hc        1 KR1      0.013533
     44 H16B        5.0720   -5.0060    3.9670 hc        1 KR1      0.013533
     45 H17         2.4130    0.1590    3.1760 h1        1 KR1      0.218700
     46 H17A        2.7830    0.6230    5.0410 h1        1 KR1      0.218700
     47 H19         4.3890   -0.1310    2.6790 ha        1 KR1      0.155000
     48 H22         0.0930   -0.1300    2.1220 ha        1 KR1      0.180000
     49 N4          4.6540    0.0020   -0.1270 nv        1 KR1     -0.661500
     50 O3          0.1530   -1.3850    4.5970 o         1 KR1     -0.676500
     51 C1          6.1190   -4.5420    1.3210 cg        1 KR1      0.217800
@<TRIPOS>BOND
     1    1   27 1   
     2    2   51 3   
     3    3   14 2   
     4    4    7 ar  
     5    4   13 ar  
     6    4   29 1   
     7    5   18 1   
     8    5   19 1   
     9    5   30 1   
    10    6   18 2   
    11    7    9 ar  
    12    7   51 1   
    13    8   15 1   
    14    8   19 1   
    15    8   23 1   
    16    9   10 ar  
    17    9   31 1   
    18   10   12 ar  
    19   10   14 1   
    20   11   26 ar  
    21   11   27 ar  
    22   12   13 ar  
    23   12   34 1   
    24   13   16 1   
    25   14   15 1   
    26   15   17 2   
    27   16   35 1   
    28   16   36 1   
    29   16   37 1   
    30   17   18 1   
    31   17   20 1   
    32   19   50 2   
    33   20   21 1   
    34   20   22 1   
    35   20   38 1   
    36   21   39 1   
    37   21   40 1   
    38   21   41 1   
    39   22   42 1   
    40   22   43 1   
    41   22   44 1   
    42   23   24 1   
    43   23   45 1   
    44   23   46 1   
    45   24   25 ar  
    46   24   28 ar  
    47   25   26 ar  
    48   25   47 1   
    49   26   49 1   
    50   27   28 ar  
    51   28   48 1   
    52   32   49 1   
    53   33   49 1   
@<TRIPOS>SUBSTRUCTURE
     1 KR1         1 TEMP              0 ****  ****    0 ROOT
