@<TRIPOS>MOLECULE
KR2
   54    51     1     0     0
SMALL
bcc


@<TRIPOS>ATOM
      1 CAY         1.8570   -1.3730   -1.7680 c1        1 KR2     -0.081000
      2 CBC         3.2460   -1.4050   -1.7740 c1        1 KR2     -0.117250
      3 CBB         3.9380   -1.4680   -2.9830 c1        1 KR2     -0.117250
      4 CBA         3.2420   -1.5000   -4.1790 c1        1 KR2     -0.117250
      5 CAZ         1.8450   -1.4690   -4.1730 c1        1 KR2     -0.117250
      6 CAX         1.1570   -1.4060   -2.9690 c1        1 KR2     -0.108000
      7 CAW        -0.3880   -1.4030   -2.9620 c2        1 KR2      0.341000
      8 OAA        -0.9860   -1.3380   -3.9890 o         1 KR2     -0.329000
      9 NAR        -1.1050   -1.3660   -1.7080 n         1 KR2     -0.207000
     10 CAV        -2.5300   -1.2530   -1.5940 c3        1 KR2     -0.056000
     11 CDD        -3.2080   -2.5370   -2.0160 c3        1 KR2     -0.188000
     12 CNN        -2.6850   -3.7110   -1.2140 c3        1 KR2     -0.161000
     13 CAT        -1.1830   -3.8110   -1.3220 c3        1 KR2     -0.171000
     14 CAS        -0.5030   -3.0230   -0.2080 c3        1 KR2     -0.043000
     15 NAQ        -0.5340   -1.6170   -0.4810 n         1 KR2     -0.244000
     16 CAO        -0.1740   -0.5830    0.4890 c2        1 KR2      0.313000
     17 OAP         0.1800   -0.8970    1.6070 o         1 KR2     -0.355000
     18 CAN        -0.3080    0.9320    0.1040 c3        1 KR2     -0.211000
     19 CAL         0.3260    1.8020    1.1960 c3        1 KR2     -0.018000
     20 NAM         1.0480    2.8520    0.5990 n3        1 KR2     -0.343000
     21 CAK        -0.7680    2.3780    2.0750 c3        1 KR2     -0.125000
     22 CAG        -0.1370    3.2070    3.2150 c2        1 KR2     -0.074000
     23 CAH         0.2710    2.5810    4.3740 c2        1 KR2     -0.116000
     24 CAC         0.7000    3.3370    5.4590 c1        1 KR2      0.046000
     25 FAB         1.1140    2.7230    6.5880 f         1 KR2     -0.090000
     26 CAD         0.7170    4.6990    5.3790 c2        1 KR2      0.081000
     27 FAI         1.2450    5.4190    6.3800 f         1 KR2     -0.088000
     28 CAE         0.3020    5.3390    4.2000 c1        1 KR2     -0.184000
     29 CAF        -0.1200    4.5970    3.1330 c2        1 KR2      0.114000
     30 FAJ        -0.6730    5.2220    2.0420 f         1 KR2     -0.103000
     31 HAM1        0.5990    3.1430   -0.1700 hn        1 KR2      0.150500
     32 HAM2        1.9120    2.5460    0.3660 hn        1 KR2      0.150500
     33 HAL         0.9400    1.2510    1.7460 h1        1 KR2      0.126000
     34 HAN1       -1.2520    1.1620    0.0160 hc        1 KR2      0.112500
     35 HAN2        0.1470    1.0930   -0.7460 hc        1 KR2      0.112500
     36 HAZ         1.3450   -1.4910   -5.0290 ha        1 KR2      0.139750
     37 HBA         3.7430   -1.5460   -5.0550 ha        1 KR2      0.139750
     38 HBB         4.9030   -1.4540   -2.9860 ha        1 KR2      0.139750
     39 HBC         3.7450   -1.3820   -0.9200 ha        1 KR2      0.139750
     40 HAY         1.3670   -1.2280   -0.9120 ha        1 KR2      0.136000
     41 HAV1       -2.7650   -1.0570   -0.6590 h1        1 KR2      0.107000
     42 HAV2       -2.8440   -0.5170   -2.1670 h1        1 KR2      0.107000
     43 HDD1       -3.0360   -2.6950   -2.9760 hc        1 KR2      0.099000
     44 HDD2       -4.1800   -2.4520   -1.8700 hc        1 KR2      0.099000
     45 HNN1       -3.0820   -4.5280   -1.5470 hc        1 KR2      0.086000
     46 HNN2       -2.9350   -3.5930   -0.2690 hc        1 KR2      0.086000
     47 HAT1       -0.8960   -3.4550   -2.1960 hc        1 KR2      0.093500
     48 HAT2       -0.9230   -4.7400   -1.2560 hc        1 KR2      0.093500
     49 HAS1       -0.9770   -3.2010    0.6570 h1        1 KR2      0.104000
     50 HAS2        0.4560   -3.3240   -0.1280 h1        1 KR2      0.104000
     51 HAK1       -1.3430    2.9480    1.5410 hc        1 KR2      0.104500
     52 HAK2       -1.2880    1.6610    2.4500 hc        1 KR2      0.104500
     53 HAH         0.2170    1.6000    4.4480 ha        1 KR2      0.168000
     54 HAE         0.2590    6.3330    4.1620 DU        1 KR2      0.168000
@<TRIPOS>BOND
     1    1    6 1   
     2    1   40 1   
     3    2    3 1   
     4    2   39 1   
     5    3   38 1   
     6    4    5 1   
     7    4   37 1   
     8    5   36 1   
     9    6    7 1   
    10    7    8 1   
    11    7    9 1   
    12    9   10 1   
    13    9   15 1   
    14   10   11 1   
    15   10   41 1   
    16   10   42 1   
    17   11   12 1   
    18   11   43 1   
    19   11   44 1   
    20   12   13 1   
    21   12   45 1   
    22   12   46 1   
    23   13   14 1   
    24   13   47 1   
    25   13   48 1   
    26   14   15 1   
    27   14   49 1   
    28   14   50 1   
    29   15   16 1   
    30   16   17 1   
    31   16   18 1   
    32   18   19 1   
    33   18   34 1   
    34   18   35 1   
    35   19   20 1   
    36   19   21 1   
    37   19   33 1   
    38   20   31 1   
    39   20   32 1   
    40   21   22 1   
    41   21   51 1   
    42   21   52 1   
    43   22   23 1   
    44   22   29 1   
    45   23   24 1   
    46   23   53 1   
    47   24   26 1   
    48   26   27 1   
    49   26   28 1   
    50   28   29 1   
    51   29   30 1   
@<TRIPOS>SUBSTRUCTURE
     1 KR2         1 TEMP              0 ****  ****    0 ROOT
