@<TRIPOS>MOLECULE
KR2
   55    57     1     0     0
SMALL
bcc


@<TRIPOS>ATOM
      1 CAY        -0.6920   -0.6690   -0.1380 ca        1 KR2     -0.101500
      2 CBC         0.6310   -0.9920   -0.4350 ca        1 KR2     -0.133500
      3 CBB         1.6430   -0.7220    0.4880 ca        1 KR2     -0.108000
      4 CBA         1.3320   -0.1260    1.7100 ca        1 KR2     -0.133500
      5 CAZ         0.0110    0.2050    2.0130 ca        1 KR2     -0.101500
      6 CAX        -1.0000   -0.0640    1.0870 ca        1 KR2     -0.144600
      7 CAW        -2.4280    0.2020    1.4060 c         1 KR2      0.657700
      8 OAA        -3.2550   -0.7060    1.5550 o         1 KR2     -0.520100
      9 NAR        -2.9040    1.5610    1.3900 n         1 KR2     -0.334400
     10 CAV        -4.2910    1.7620    1.8460 c3        1 KR2      0.065000
     11 CDD        -4.5560    1.5570    3.3290 c3        1 KR2     -0.111400
     12 CNN        -3.8120    2.5320    4.2090 c3        1 KR2     -0.085400
     13 CAT        -2.3110    2.3590    4.1380 c3        1 KR2     -0.094400
     14 CAS        -1.6750    3.0780    2.9600 c3        1 KR2      0.084000
     15 NAQ        -2.0070    2.5710    1.6160 n         1 KR2     -0.305400
     16 CAO        -1.5770    3.3470    0.5460 c         1 KR2      0.670100
     17 OAP        -0.8240    4.3290    0.7660 o         1 KR2     -0.675100
     18 CAN        -1.9510    2.9600   -0.8730 c3        1 KR2     -0.176400
     19 CAL        -1.5940    4.0160   -1.9230 c3        1 KR2      0.141500
     20 NAM        -0.1400    4.3980   -1.8620 nz        1 KR2     -0.852600
     21 CAK        -2.4930    5.2590   -1.7860 c3        1 KR2     -0.050100
     22 CAG        -3.8270    5.0080   -2.3930 ca        1 KR2     -0.151300
     23 CAH        -3.9890    5.1190   -3.7760 ca        1 KR2     -0.124000
     24 CAC        -5.2420    4.9330   -4.3740 ca        1 KR2      0.098900
     25 FAB        -5.3810    5.0390   -5.7120 f         1 KR2     -0.100900
     26 CAD        -6.3740    4.6350   -3.5590 ca        1 KR2      0.155900
     27 FAI        -7.5830    4.4600   -4.1250 f         1 KR2     -0.091900
     28 CAE        -6.2200    4.5270   -2.1710 ca        1 KR2     -0.175000
     29 CAF        -4.9520    4.7090   -1.5930 ca        1 KR2      0.151900
     30 FAJ        -4.8230    4.5930   -0.2500 f         1 KR2     -0.129900
     31 HAM1        0.0460    4.8570   -0.9480 hn        1 KR2      0.467467
     32 HAM2        0.4420    3.5600   -1.9310 hn        1 KR2      0.467467
     33 HAL        -1.7590    3.5580   -2.9480 hx        1 KR2      0.106700
     34 HAN1       -1.4650    1.9760   -1.1160 hc        1 KR2      0.116700
     35 HAN2       -3.0680    2.8160   -0.9430 hc        1 KR2      0.116700
     36 HAZ        -0.2340    0.6600    2.9850 ha        1 KR2      0.145000
     37 HBA         2.1270    0.0700    2.4460 ha        1 KR2      0.148500
     38 HBB         2.6840   -0.9960    0.2580 ha        1 KR2      0.148000
     39 HBC         0.8730   -1.4850   -1.3890 ha        1 KR2      0.148500
     40 HAY        -1.4980   -0.9180   -0.8450 ha        1 KR2      0.145000
     41 HAV1       -4.9010    1.0130    1.2620 h1        1 KR2      0.075200
     42 HAV2       -4.6110    2.8000    1.5400 h1        1 KR2      0.075200
     43 HDD1       -5.6600    1.6790    3.4940 hc        1 KR2      0.071200
     44 HDD2       -4.2910    0.5030    3.6130 hc        1 KR2      0.071200
     45 HNN1       -4.0880    3.5840    3.9330 hc        1 KR2      0.056200
     46 HNN2       -4.1410    2.3730    5.2720 hc        1 KR2      0.056200
     47 HAT1       -1.8460    2.8030    5.0620 hc        1 KR2      0.065700
     48 HAT2       -2.0500    1.2680    4.1290 hc        1 KR2      0.065700
     49 HAS1       -1.9610    4.1700    2.9900 h1        1 KR2      0.068200
     50 HAS2       -0.5510    3.0120    3.0450 h1        1 KR2      0.068200
     51 HAK1       -2.0270    6.1440   -2.3000 hc        1 KR2      0.089700
     52 HAK2       -2.5960    5.5180   -0.6950 hc        1 KR2      0.089700
     53 HAH        -3.1310    5.3720   -4.4180 ha        1 KR2      0.154000
     54 HAE        -7.0920    4.3040   -1.5350 ha        1 KR2      0.189000
     55 HAM3        0.0870    5.0420   -2.6200 hn        1 KR2      0.467467
@<TRIPOS>BOND
     1    1    2 ar  
     2    1    6 ar  
     3    1   40 1   
     4    2    3 ar  
     5    2   39 1   
     6    3    4 ar  
     7    3   38 1   
     8    4    5 ar  
     9    4   37 1   
    10    5    6 ar  
    11    5   36 1   
    12    6    7 1   
    13    7    8 2   
    14    7    9 1   
    15    9   10 1   
    16    9   15 1   
    17   10   11 1   
    18   10   41 1   
    19   10   42 1   
    20   11   12 1   
    21   11   43 1   
    22   11   44 1   
    23   12   13 1   
    24   12   45 1   
    25   12   46 1   
    26   13   14 1   
    27   13   47 1   
    28   13   48 1   
    29   14   15 1   
    30   14   49 1   
    31   14   50 1   
    32   15   16 1   
    33   16   17 2   
    34   16   18 1   
    35   18   19 1   
    36   18   34 1   
    37   18   35 1   
    38   19   20 1   
    39   19   21 1   
    40   19   33 1   
    41   20   31 1   
    42   20   32 1   
    43   20   55 1   
    44   21   22 1   
    45   21   51 1   
    46   21   52 1   
    47   22   23 ar  
    48   22   29 ar  
    49   23   24 ar  
    50   23   53 1   
    51   24   25 1   
    52   24   26 ar  
    53   26   27 1   
    54   26   28 ar  
    55   28   29 ar  
    56   28   54 1   
    57   29   30 1   
@<TRIPOS>SUBSTRUCTURE
     1 KR2         1 TEMP              0 ****  ****    0 ROOT
