@<TRIPOS>MOLECULE
KR2
   54    56     1     0     0
SMALL
bcc


@<TRIPOS>ATOM
      1 CAY        -3.1280   -5.7850   -0.5610 ca        1 KR2     -0.091500
      2 CBC        -4.0880   -6.4810   -1.2940 ca        1 KR2     -0.135500
      3 CBB        -4.3510   -6.1280   -2.6180 ca        1 KR2     -0.111000
      4 CBA        -3.6520   -5.0770   -3.2110 ca        1 KR2     -0.135500
      5 CAZ        -2.6940   -4.3720   -2.4820 ca        1 KR2     -0.091500
      6 CAX        -2.4340   -4.7250   -1.1560 ca        1 KR2     -0.122600
      7 CAW        -1.3820   -4.0330   -0.3620 c         1 KR2      0.673700
      8 OAA        -0.3800   -4.6360    0.0580 o         1 KR2     -0.571100
      9 NAR        -1.5840   -2.6830    0.0450 n         1 KR2     -0.330400
     10 CAV        -0.4630   -2.0310    0.7360 c3        1 KR2      0.068000
     11 CDD         0.7270   -1.6530   -0.1360 c3        1 KR2     -0.107400
     12 CNN         0.3850   -0.6330   -1.1960 c3        1 KR2     -0.081400
     13 CAT        -0.6210   -1.1450   -2.2050 c3        1 KR2     -0.089400
     14 CAS        -2.0600   -1.0250   -1.7290 c3        1 KR2      0.072000
     15 NAQ        -2.4860   -1.9110   -0.6340 n         1 KR2     -0.334400
     16 CAO        -3.6720   -1.5020    0.0390 c         1 KR2      0.668100
     17 OAP        -4.3650   -0.6220   -0.5060 o         1 KR2     -0.604100
     18 CAN        -4.0770   -2.2040    1.3120 c3        1 KR2     -0.184400
     19 CAL        -5.3620   -1.6440    1.9510 c3        1 KR2      0.186500
     20 NAM        -6.5270   -1.5960    1.0920 n3        1 KR2     -0.902800
     21 CAK        -5.0580   -0.2680    2.5810 c3        1 KR2     -0.047100
     22 CAG        -4.3430   -0.4090    3.8780 ca        1 KR2     -0.095300
     23 CAH        -5.0570   -0.7910    5.0160 ca        1 KR2     -0.122000
     24 CAC        -4.4250   -0.9090    6.2620 ca        1 KR2      0.084900
     25 FAB        -5.1300   -1.2820    7.3530 f         1 KR2     -0.120900
     26 CAD        -3.0350   -0.6330    6.3750 ca        1 KR2      0.116900
     27 FAI        -2.4170   -0.7400    7.5710 f         1 KR2     -0.118900
     28 CAE        -2.3100   -0.2500    5.2400 ca        1 KR2     -0.183000
     29 CAF        -2.9620   -0.1420    4.0000 ca        1 KR2      0.129900
     30 FAJ        -2.2340    0.2250    2.9160 f         1 KR2     -0.136900
     31 HAM1       -6.6160   -2.4580    0.5900 hn        1 KR2      0.360800
     32 HAM2       -6.4470   -0.8450    0.4300 hn        1 KR2      0.360800
     33 HAL        -5.6250   -2.3580    2.7930 h1        1 KR2      0.060700
     34 HAN1       -3.2480   -2.1070    2.0640 hc        1 KR2      0.081200
     35 HAN2       -4.2160   -3.2960    1.0870 hc        1 KR2      0.081200
     36 HAZ        -2.1460   -3.5400   -2.9520 ha        1 KR2      0.142000
     37 HBA        -3.8550   -4.8010   -4.2570 ha        1 KR2      0.138000
     38 HBB        -5.1070   -6.6800   -3.1950 ha        1 KR2      0.136000
     39 HBC        -4.6350   -7.3140   -0.8270 ha        1 KR2      0.138000
     40 HAY        -2.9030   -6.0720    0.4770 ha        1 KR2      0.142000
     41 HAV1       -0.1160   -2.7670    1.5180 h1        1 KR2      0.071200
     42 HAV2       -0.8590   -1.1140    1.2600 h1        1 KR2      0.071200
     43 HDD1        1.1460   -2.5780   -0.6140 hc        1 KR2      0.059700
     44 HDD2        1.5200   -1.2330    0.5380 hc        1 KR2      0.059700
     45 HNN1       -0.0060    0.3010   -0.7130 hc        1 KR2      0.046700
     46 HNN2        1.3290   -0.3550   -1.7380 hc        1 KR2      0.046700
     47 HAT1       -0.5440   -0.5290   -3.1420 hc        1 KR2      0.053700
     48 HAT2       -0.3790   -2.2040   -2.4850 hc        1 KR2      0.053700
     49 HAS1       -2.2550    0.0450   -1.4240 h1        1 KR2      0.061200
     50 HAS2       -2.7530   -1.2650   -2.5870 h1        1 KR2      0.061200
     51 HAK1       -4.4490    0.3380    1.8570 hc        1 KR2      0.077200
     52 HAK2       -6.0190    0.2880    2.7610 hc        1 KR2      0.077200
     53 HAH        -6.1360   -1.0040    4.9390 ha        1 KR2      0.168000
     54 HAE        -1.2340   -0.0330    5.3210 ha        1 KR2      0.170000
@<TRIPOS>BOND
     1    1    2 ar  
     2    1    6 ar  
     3    1   40 1   
     4    2    3 ar  
     5    2   39 1   
     6    3    4 ar  
     7    3   38 1   
     8    4    5 ar  
     9    4   37 1   
    10    5    6 ar  
    11    5   36 1   
    12    6    7 1   
    13    7    8 2   
    14    7    9 1   
    15    9   10 1   
    16    9   15 1   
    17   10   11 1   
    18   10   41 1   
    19   10   42 1   
    20   11   12 1   
    21   11   43 1   
    22   11   44 1   
    23   12   13 1   
    24   12   45 1   
    25   12   46 1   
    26   13   14 1   
    27   13   47 1   
    28   13   48 1   
    29   14   15 1   
    30   14   49 1   
    31   14   50 1   
    32   15   16 1   
    33   16   17 2   
    34   16   18 1   
    35   18   19 1   
    36   18   34 1   
    37   18   35 1   
    38   19   20 1   
    39   19   21 1   
    40   19   33 1   
    41   20   31 1   
    42   20   32 1   
    43   21   22 1   
    44   21   51 1   
    45   21   52 1   
    46   22   23 ar  
    47   22   29 ar  
    48   23   24 ar  
    49   23   53 1   
    50   24   25 1   
    51   24   26 ar  
    52   26   27 1   
    53   26   28 ar  
    54   28   29 ar  
    55   28   54 1   
    56   29   30 1   
@<TRIPOS>SUBSTRUCTURE
     1 KR2         1 TEMP              0 ****  ****    0 ROOT
