@<TRIPOS>MOLECULE
KR2
   55    57     1     0     0
SMALL
bcc


@<TRIPOS>ATOM
      1 CAY        -0.6870   -0.6670   -0.1220 ca        1 KR2     -0.101500
      2 CBC         0.6380   -0.9890   -0.4110 ca        1 KR2     -0.133500
      3 CBB         1.6430   -0.7180    0.5180 ca        1 KR2     -0.108000
      4 CBA         1.3240   -0.1230    1.7380 ca        1 KR2     -0.133500
      5 CAZ         0.0010    0.2070    2.0330 ca        1 KR2     -0.101500
      6 CAX        -1.0040   -0.0620    1.1000 ca        1 KR2     -0.144600
      7 CAW        -2.4340    0.2030    1.4100 c         1 KR2      0.657700
      8 OAA        -3.2610   -0.7050    1.5550 o         1 KR2     -0.520100
      9 NAR        -2.9100    1.5620    1.3890 n         1 KR2     -0.334400
     10 CAV        -4.3010    1.7630    1.8350 c3        1 KR2      0.065000
     11 CDD        -4.5740    1.5600    3.3170 c3        1 KR2     -0.111400
     12 CNN        -3.8360    2.5380    4.2000 c3        1 KR2     -0.085400
     13 CAT        -2.3350    2.3650    4.1390 c3        1 KR2     -0.094400
     14 CAS        -1.6920    3.0810    2.9640 c3        1 KR2      0.084000
     15 NAQ        -2.0150    2.5720    1.6190 n         1 KR2     -0.305400
     16 CAO        -1.5800    3.3470    0.5500 c         1 KR2      0.670100
     17 OAP        -0.8280    4.3300    0.7730 o         1 KR2     -0.675100
     18 CAN        -1.9450    2.9580   -0.8710 c3        1 KR2     -0.176400
     19 CAL        -1.5820    4.0130   -1.9200 c3        1 KR2      0.141500
     20 NAM        -0.1290    4.3950   -1.8510 n4        1 KR2     -0.852600
     21 CAK        -2.4820    5.2560   -1.7900 c3        1 KR2     -0.050100
     22 CAG        -3.8130    5.0030   -2.4050 ca        1 KR2     -0.151300
     23 CAH        -3.9660    5.1140   -3.7890 ca        1 KR2     -0.124000
     24 CAC        -5.2150    4.9270   -4.3950 ca        1 KR2      0.098900
     25 FAB        -5.3450    5.0320   -5.7340 f         1 KR2     -0.100900
     26 CAD        -6.3520    4.6290   -3.5870 ca        1 KR2      0.155900
     27 FAI        -7.5570    4.4530   -4.1610 f         1 KR2     -0.091900
     28 CAE        -6.2060    4.5210   -2.1990 ca        1 KR2     -0.175000
     29 CAF        -4.9420    4.7040   -1.6130 ca        1 KR2      0.151900
     30 FAJ        -4.8220    4.5890   -0.2680 f         1 KR2     -0.129900
     31 HAM1        0.1030    5.0390   -2.6090 hn        1 KR2      0.467467
     32 HAM2        0.4540    3.5580   -1.9150 hn        1 KR2      0.467467
     33 HAL        -1.7410    3.5530   -2.9450 hx        1 KR2      0.106700
     34 HAN1       -3.0610    2.8130   -0.9470 hc        1 KR2      0.116700
     35 HAN2       -1.4570    1.9740   -1.1100 hc        1 KR2      0.116700
     36 HAZ        -0.2500    0.6630    3.0030 ha        1 KR2      0.145000
     37 HBA         2.1140    0.0740    2.4800 ha        1 KR2      0.148500
     38 HBB         2.6870   -0.9910    0.2950 ha        1 KR2      0.148000
     39 HBC         0.8860   -1.4820   -1.3640 ha        1 KR2      0.148500
     40 HAY        -1.4880   -0.9170   -0.8350 ha        1 KR2      0.145000
     41 HAV1       -4.6200    2.7990    1.5250 h1        1 KR2      0.075200
     42 HAV2       -4.9060    1.0120    1.2490 h1        1 KR2      0.075200
     43 HDD1       -5.6800    1.6820    3.4750 hc        1 KR2      0.071200
     44 HDD2       -4.3110    0.5060    3.6050 hc        1 KR2      0.071200
     45 HNN1       -4.1720    2.3800    5.2610 hc        1 KR2      0.056200
     46 HNN2       -4.1110    3.5890    3.9200 hc        1 KR2      0.056200
     47 HAT1       -1.8760    2.8100    5.0650 hc        1 KR2      0.065700
     48 HAT2       -2.0740    1.2730    4.1330 hc        1 KR2      0.065700
     49 HAS1       -0.5690    3.0150    3.0560 h1        1 KR2      0.068200
     50 HAS2       -1.9770    4.1740    2.9910 h1        1 KR2      0.068200
     51 HAK1       -2.5930    5.5150   -0.7000 hc        1 KR2      0.089700
     52 HAK2       -2.0130    6.1410   -2.3020 hc        1 KR2      0.089700
     53 HAH        -3.1040    5.3670   -4.4260 ha        1 KR2      0.154000
     54 HAE        -7.0830    4.2990   -1.5680 ha        1 KR2      0.189000
     55 HAM3        0.0510    4.8560   -0.9360 hn        1 KR2      0.467467
@<TRIPOS>BOND
     1    1    2 ar  
     2    1    6 ar  
     3    1   40 1   
     4    2    3 ar  
     5    2   39 1   
     6    3    4 ar  
     7    3   38 1   
     8    4    5 ar  
     9    4   37 1   
    10    5    6 ar  
    11    5   36 1   
    12    6    7 1   
    13    7    8 2   
    14    7    9 1   
    15    9   10 1   
    16    9   15 1   
    17   10   11 1   
    18   10   41 1   
    19   10   42 1   
    20   11   12 1   
    21   11   43 1   
    22   11   44 1   
    23   12   13 1   
    24   12   45 1   
    25   12   46 1   
    26   13   14 1   
    27   13   47 1   
    28   13   48 1   
    29   14   15 1   
    30   14   49 1   
    31   14   50 1   
    32   15   16 1   
    33   16   17 2   
    34   16   18 1   
    35   18   19 1   
    36   18   34 1   
    37   18   35 1   
    38   19   20 1   
    39   19   21 1   
    40   19   33 1   
    41   20   31 1   
    42   20   32 1   
    43   20   55 1   
    44   21   22 1   
    45   21   51 1   
    46   21   52 1   
    47   22   23 ar  
    48   22   29 ar  
    49   23   24 ar  
    50   23   53 1   
    51   24   25 1   
    52   24   26 ar  
    53   26   27 1   
    54   26   28 ar  
    55   28   29 ar  
    56   28   54 1   
    57   29   30 1   
@<TRIPOS>SUBSTRUCTURE
     1 KR2         1 TEMP              0 ****  ****    0 ROOT
