@<TRIPOS>MOLECULE
KR2
   55    57     1     0     0
SMALL
bcc


@<TRIPOS>ATOM
      1 CAY        -0.6740   -0.6580   -0.1380 ca        1 KR2     -0.101500
      2 CBC         0.6510   -0.9740   -0.4310 ca        1 KR2     -0.133500
      3 CBB         1.6580   -0.7000    0.4970 ca        1 KR2     -0.108000
      4 CBA         1.3390   -0.1090    1.7200 ca        1 KR2     -0.133500
      5 CAZ         0.0150    0.2140    2.0180 ca        1 KR2     -0.101500
      6 CAX        -0.9910   -0.0580    1.0870 ca        1 KR2     -0.144600
      7 CAW        -2.4210    0.2010    1.4010 c         1 KR2      0.657700
      8 OAA        -3.2440   -0.7120    1.5440 o         1 KR2     -0.520100
      9 NAR        -2.9040    1.5570    1.3860 n         1 KR2     -0.334400
     10 CAV        -4.2940    1.7500    1.8360 c3        1 KR2      0.065000
     11 CDD        -4.5640    1.5400    3.3170 c3        1 KR2     -0.111400
     12 CNN        -3.8280    2.5170    4.2030 c3        1 KR2     -0.085400
     13 CAT        -2.3260    2.3520    4.1380 c3        1 KR2     -0.094400
     14 CAS        -1.6900    3.0760    2.9650 c3        1 KR2      0.084000
     15 NAQ        -2.0130    2.5710    1.6180 n         1 KR2     -0.305400
     16 CAO        -1.5830    3.3510    0.5520 c         1 KR2      0.670100
     17 OAP        -0.8350    4.3370    0.7770 o         1 KR2     -0.675100
     18 CAN        -1.9480    2.9660   -0.8700 c3        1 KR2     -0.176400
     19 CAL        -1.5920    4.0260   -1.9160 c3        1 KR2      0.141500
     20 NAM        -0.1400    4.4150   -1.8480 n4        1 KR2     -0.852600
     21 CAK        -2.4980    5.2640   -1.7800 c3        1 KR2     -0.050100
     22 CAG        -3.8290    5.0070   -2.3930 ca        1 KR2     -0.151300
     23 CAH        -3.9850    5.1210   -3.7770 ca        1 KR2     -0.124000
     24 CAC        -5.2350    4.9300   -4.3800 ca        1 KR2      0.098900
     25 FAB        -5.3680    5.0380   -5.7190 f         1 KR2     -0.100900
     26 CAD        -6.3680    4.6240   -3.5710 ca        1 KR2      0.155900
     27 FAI        -7.5740    4.4440   -4.1430 f         1 KR2     -0.091900
     28 CAE        -6.2190    4.5130   -2.1830 ca        1 KR2     -0.175000
     29 CAF        -4.9550    4.7010   -1.5990 ca        1 KR2      0.151900
     30 FAJ        -4.8310    4.5830   -0.2560 f         1 KR2     -0.129900
     31 HAM1        0.0390    4.8730   -0.9320 hn        1 KR2      0.467467
     32 HAM2        0.0870    5.0620   -2.6040 hn        1 KR2      0.467467
     33 HAL        -1.7500    3.5690   -2.9430 hx        1 KR2      0.106700
     34 HAN1       -3.0640    2.8160   -0.9460 hc        1 KR2      0.116700
     35 HAN2       -1.4560    1.9840   -1.1130 hc        1 KR2      0.116700
     36 HAZ        -0.2350    0.6660    2.9900 ha        1 KR2      0.145000
     37 HBA         2.1300    0.0890    2.4590 ha        1 KR2      0.148500
     38 HBB         2.7020   -0.9690    0.2710 ha        1 KR2      0.148000
     39 HBC         0.9000   -1.4630   -1.3850 ha        1 KR2      0.148500
     40 HAY        -1.4760   -0.9100   -0.8490 ha        1 KR2      0.145000
     41 HAV1       -4.8970    0.9990    1.2480 h1        1 KR2      0.075200
     42 HAV2       -4.6180    2.7860    1.5310 h1        1 KR2      0.075200
     43 HDD1       -4.2950    0.4860    3.6010 hc        1 KR2      0.071200
     44 HDD2       -5.6690    1.6560    3.4780 hc        1 KR2      0.071200
     45 HNN1       -4.1090    3.5680    3.9290 hc        1 KR2      0.056200
     46 HNN2       -4.1610    2.3530    5.2640 hc        1 KR2      0.056200
     47 HAT1       -2.0600    1.2620    4.1280 hc        1 KR2      0.065700
     48 HAT2       -1.8670    2.7960    5.0650 hc        1 KR2      0.065700
     49 HAS1       -1.9800    4.1670    2.9960 h1        1 KR2      0.068200
     50 HAS2       -0.5660    3.0160    3.0540 h1        1 KR2      0.068200
     51 HAK1       -2.0340    6.1530   -2.2910 hc        1 KR2      0.089700
     52 HAK2       -2.6070    5.5200   -0.6890 hc        1 KR2      0.089700
     53 HAH        -3.1250    5.3790   -4.4150 ha        1 KR2      0.154000
     54 HAE        -7.0930    4.2850   -1.5510 ha        1 KR2      0.189000
     55 HAM3        0.4460    3.5810   -1.9160 hn        1 KR2      0.467467
@<TRIPOS>BOND
     1    1    2 ar  
     2    1    6 ar  
     3    1   40 1   
     4    2    3 ar  
     5    2   39 1   
     6    3    4 ar  
     7    3   38 1   
     8    4    5 ar  
     9    4   37 1   
    10    5    6 ar  
    11    5   36 1   
    12    6    7 1   
    13    7    8 2   
    14    7    9 1   
    15    9   10 1   
    16    9   15 1   
    17   10   11 1   
    18   10   41 1   
    19   10   42 1   
    20   11   12 1   
    21   11   43 1   
    22   11   44 1   
    23   12   13 1   
    24   12   45 1   
    25   12   46 1   
    26   13   14 1   
    27   13   47 1   
    28   13   48 1   
    29   14   15 1   
    30   14   49 1   
    31   14   50 1   
    32   15   16 1   
    33   16   17 2   
    34   16   18 1   
    35   18   19 1   
    36   18   34 1   
    37   18   35 1   
    38   19   20 1   
    39   19   21 1   
    40   19   33 1   
    41   20   31 1   
    42   20   32 1   
    43   20   55 1   
    44   21   22 1   
    45   21   51 1   
    46   21   52 1   
    47   22   23 ar  
    48   22   29 ar  
    49   23   24 ar  
    50   23   53 1   
    51   24   25 1   
    52   24   26 ar  
    53   26   27 1   
    54   26   28 ar  
    55   28   29 ar  
    56   28   54 1   
    57   29   30 1   
@<TRIPOS>SUBSTRUCTURE
     1 KR2         1 TEMP              0 ****  ****    0 ROOT
