@<TRIPOS>MOLECULE
KR5
   41    42     1     0     0
SMALL
bcc


@<TRIPOS>ATOM
      1 O25        -0.1050    0.0250    0.0090 o         1 KR5     -0.565100
      2 C22         1.1350    0.0140   -0.0030 c         1 KR5      0.596900
      3 N27         1.8610    0.0170    1.2050 n         1 KR5      0.048300
      4 C29         1.2970    0.0210    2.5210 cc        1 KR5     -0.023600
      5 C33        -0.1450    0.0260    2.8080 c3        1 KR5     -0.043800
      6 C30         2.3720    0.0200    3.4010 cd        1 KR5     -0.296300
      7 C31         3.5700    0.0140    2.5610 cd        1 KR5      0.373600
      8 C37         4.9480    0.0100    3.0880 c3        1 KR5     -0.138400
      9 N28         3.2230    0.0120    1.2550 nc        1 KR5     -0.532800
     10 C19         1.9270   -0.0020   -1.2960 c3        1 KR5     -0.162400
     11 C18         0.9490   -0.0170   -2.4700 c3        1 KR5      0.190800
     12 N17         1.6160   -0.0090   -3.7530 nu        1 KR5     -0.701600
     13 C8          0.9550   -0.0450   -4.9290 ca        1 KR5      0.315600
     14 C7         -0.4810   -0.0820   -5.0060 ca        1 KR5     -0.239000
     15 C6         -1.1120   -0.1280   -6.2160 ca        1 KR5      0.061000
     16 C9          1.6790   -0.0500   -6.1740 ca        1 KR5     -0.239000
     17 C10         1.0160   -0.0950   -7.3660 ca        1 KR5      0.061000
     18 C5         -0.4060   -0.1330   -7.4540 ca        1 KR5     -0.681500
     19 S2         -1.1420   -0.2730   -8.8220 sy        1 KR5      1.523200
     20 O3         -0.3590   -0.5860   -9.9130 o         1 KR5     -0.583800
     21 O4         -2.4730   -0.6320   -8.7710 o         1 KR5     -0.583800
     22 N1         -1.3870    1.6550   -9.1960 nz        1 KR5     -0.777500
     23 H1         -0.6390   -0.8760    2.3640 hc        1 KR5      0.068700
     24 H2         -0.3060    0.0260    3.9140 hc        1 KR5      0.068700
     25 H3         -0.6330    0.9320    2.3650 hc        1 KR5      0.068700
     26 H4          2.3550    0.0220    4.4860 ha        1 KR5      0.181000
     27 H5          5.1000   -0.9030    3.7170 hc        1 KR5      0.062700
     28 H6          5.1000    0.9140    3.7300 hc        1 KR5      0.062700
     29 H7          5.7140    0.0150    2.2740 hc        1 KR5      0.062700
     30 H8          2.5870    0.9070   -1.3330 hc        1 KR5      0.100700
     31 H9          2.5890   -0.9090   -1.3130 hc        1 KR5      0.100700
     32 H10         0.2730    0.8850   -2.3980 h1        1 KR5      0.082700
     33 H11         0.2980   -0.9380   -2.3930 h1        1 KR5      0.082700
     34 H12         2.6150    0.0010   -3.7570 hn        1 KR5      0.460800
     35 H13        -1.0780   -0.0850   -4.0780 ha        1 KR5      0.170000
     36 H14        -2.2190   -0.1810   -6.2470 ha        1 KR5      0.163000
     37 H15         2.7820   -0.0290   -6.1600 ha        1 KR5      0.170000
     38 H16         1.5990   -0.1220   -8.3090 ha        1 KR5      0.163000
     39 H17        -1.0020    2.2330   -8.4600 hn        1 KR5      0.443133
     40 H18        -2.3750    1.8670   -9.2880 hn        1 KR5      0.443133
     41 H131       -0.9280    1.9000  -10.0680 hn        1 KR5      0.443133
@<TRIPOS>BOND
     1    1    2 2   
     2    2    3 1   
     3    2   10 1   
     4    3    4 1   
     5    3    9 1   
     6    4    5 1   
     7    4    6 2   
     8    5   23 1   
     9    5   24 1   
    10    5   25 1   
    11    6    7 1   
    12    6   26 1   
    13    7    8 1   
    14    7    9 2   
    15    8   27 1   
    16    8   28 1   
    17    8   29 1   
    18   10   11 1   
    19   10   30 1   
    20   10   31 1   
    21   11   12 1   
    22   11   32 1   
    23   11   33 1   
    24   12   13 1   
    25   12   34 1   
    26   13   14 ar  
    27   13   16 ar  
    28   14   15 ar  
    29   14   35 1   
    30   15   18 ar  
    31   15   36 1   
    32   16   17 ar  
    33   16   37 1   
    34   17   18 ar  
    35   17   38 1   
    36   18   19 1   
    37   19   20 2   
    38   19   21 2   
    39   19   22 1   
    40   22   39 1   
    41   22   40 1   
    42   22   41 1   
@<TRIPOS>SUBSTRUCTURE
     1 KR5         1 TEMP              0 ****  ****    0 ROOT
