@<TRIPOS>MOLECULE
KR5
   41    42     1     0     0
SMALL
bcc


@<TRIPOS>ATOM
      1 O25        -0.1110    0.0200    0.0060 o         1 KR5     -0.565100
      2 C22         1.1300    0.0130   -0.0030 c         1 KR5      0.596900
      3 N27         1.8520    0.0170    1.2070 n         1 KR5      0.048300
      4 C29         1.2850    0.0170    2.5220 cc        1 KR5     -0.023600
      5 C33        -0.1580    0.0160    2.8050 c3        1 KR5     -0.043800
      6 C30         2.3580    0.0170    3.4050 cd        1 KR5     -0.296300
      7 C31         3.5580    0.0180    2.5670 cd        1 KR5      0.373600
      8 C37         4.9350    0.0170    3.0980 c3        1 KR5     -0.138400
      9 N28         3.2140    0.0170    1.2600 nc        1 KR5     -0.532800
     10 C19         1.9250    0.0040   -1.2930 c3        1 KR5     -0.162400
     11 C18         0.9490   -0.0140   -2.4700 c3        1 KR5      0.190800
     12 N17         1.6200   -0.0010   -3.7510 nh        1 KR5     -0.701600
     13 C8          0.9610   -0.0410   -4.9290 ca        1 KR5      0.315600
     14 C7         -0.4740   -0.0850   -5.0090 ca        1 KR5     -0.239000
     15 C6         -1.1020   -0.1350   -6.2220 ca        1 KR5      0.061000
     16 C9          1.6890   -0.0400   -6.1720 ca        1 KR5     -0.239000
     17 C10         1.0300   -0.0890   -7.3670 ca        1 KR5      0.061000
     18 C5         -0.3920   -0.1350   -7.4580 ca        1 KR5     -0.681500
     19 S2         -1.1240   -0.2790   -8.8270 sy        1 KR5      1.523200
     20 O3         -0.3360   -0.5880   -9.9160 o         1 KR5     -0.583800
     21 O4         -2.4530   -0.6470   -8.7800 o         1 KR5     -0.583800
     22 N1         -1.3800    1.6470   -9.2010 n4        1 KR5     -0.777500
     23 H1         -0.3210    0.0130    3.9110 hc        1 KR5      0.068700
     24 H2         -0.6480    0.9200    2.3620 hc        1 KR5      0.068700
     25 H3         -0.6470   -0.8870    2.3580 hc        1 KR5      0.068700
     26 H4          2.3380    0.0170    4.4890 ha        1 KR5      0.181000
     27 H5          5.7030    0.0290    2.2860 hc        1 KR5      0.062700
     28 H6          5.0820    0.9190    3.7440 hc        1 KR5      0.062700
     29 H7          5.0890   -0.8980    3.7230 hc        1 KR5      0.062700
     30 H8          2.5910   -0.9010   -1.3110 hc        1 KR5      0.100700
     31 H9          2.5810    0.9150   -1.3270 hc        1 KR5      0.100700
     32 H10         0.3020   -0.9370   -2.3960 h1        1 KR5      0.082700
     33 H11         0.2690    0.8860   -2.3990 h1        1 KR5      0.082700
     34 H12         2.6180    0.0150   -3.7530 hn        1 KR5      0.460800
     35 H13        -1.0730   -0.0920   -4.0830 ha        1 KR5      0.170000
     36 H14        -2.2080   -0.1950   -6.2550 ha        1 KR5      0.163000
     37 H15         2.7920   -0.0120   -6.1560 ha        1 KR5      0.170000
     38 H16         1.6140   -0.1120   -8.3070 ha        1 KR5      0.163000
     39 H17        -0.9210    1.8950  -10.0720 hn        1 KR5      0.443133
     40 H18        -2.3690    1.8540   -9.2950 hn        1 KR5      0.443133
     41 H131       -1.0000    2.2270   -8.4640 hn        1 KR5      0.443133
@<TRIPOS>BOND
     1    1    2 2   
     2    2    3 1   
     3    2   10 1   
     4    3    4 1   
     5    3    9 1   
     6    4    5 1   
     7    4    6 2   
     8    5   23 1   
     9    5   24 1   
    10    5   25 1   
    11    6    7 1   
    12    6   26 1   
    13    7    8 1   
    14    7    9 2   
    15    8   27 1   
    16    8   28 1   
    17    8   29 1   
    18   10   11 1   
    19   10   30 1   
    20   10   31 1   
    21   11   12 1   
    22   11   32 1   
    23   11   33 1   
    24   12   13 1   
    25   12   34 1   
    26   13   14 ar  
    27   13   16 ar  
    28   14   15 ar  
    29   14   35 1   
    30   15   18 ar  
    31   15   36 1   
    32   16   17 ar  
    33   16   37 1   
    34   17   18 ar  
    35   17   38 1   
    36   18   19 1   
    37   19   20 2   
    38   19   21 2   
    39   19   22 1   
    40   22   39 1   
    41   22   40 1   
    42   22   41 1   
@<TRIPOS>SUBSTRUCTURE
     1 KR5         1 TEMP              0 ****  ****    0 ROOT
