@<TRIPOS>MOLECULE
KRA
   33    34     1     0     0
SMALL
bcc


@<TRIPOS>ATOM
      1 C1         -0.3770   -0.8910    4.3270 ca        1 KRA      0.131100
      2 O1         -0.6940   -1.8260    5.2840 oh        1 KRA     -0.495100
      3 C2          0.9350   -0.6820    3.8770 ca        1 KRA     -0.184500
      4 C3          1.1740    0.2840    2.9050 ca        1 KRA     -0.085000
      5 C4          0.1200    1.0380    2.3760 ca        1 KRA     -0.129300
      6 C5         -1.1850    0.8190    2.8340 ca        1 KRA     -0.085000
      7 C6         -1.4440   -0.1410    3.8060 ca        1 KRA     -0.184500
      8 C7          0.3950    2.0880    1.3590 c3        1 KRA     -0.130100
      9 C8          0.9190    1.4960    0.0770 c         1 KRA      0.484100
     10 O2          2.1210    1.3770   -0.1670 o         1 KRA     -0.496100
     11 C9         -0.1370    1.0610   -0.9180 c         1 KRA      0.491100
     12 O3         -1.0480    1.8270   -1.2360 o         1 KRA     -0.499100
     13 C10        -0.0000   -0.3480   -1.4220 c3        1 KRA     -0.127100
     14 C11        -0.0450   -0.4460   -2.9060 ca        1 KRA     -0.088300
     15 C12         1.0300   -1.0130   -3.6020 ca        1 KRA     -0.114500
     16 C13         0.9760   -1.1410   -4.9890 ca        1 KRA     -0.130500
     17 C14        -0.1470   -0.7040   -5.6900 ca        1 KRA     -0.124000
     18 C15        -1.2180   -0.1340   -5.0020 ca        1 KRA     -0.130500
     19 C16        -1.1690   -0.0050   -3.6150 ca        1 KRA     -0.114500
     20 HO1         0.1260   -2.2600    5.5620 ho        1 KRA      0.421000
     21 H2          1.7650   -1.2720    4.2900 ha        1 KRA      0.146000
     22 H3          2.2000    0.4580    2.5420 ha        1 KRA      0.143000
     23 H5         -2.0170    1.4120    2.4250 ha        1 KRA      0.143000
     24 H6         -2.4640   -0.3200    4.1740 ha        1 KRA      0.146000
     25 H71        -0.5370    2.6720    1.1260 hc        1 KRA      0.085200
     26 H72         1.1610    2.8060    1.7640 hc        1 KRA      0.085200
     27 H101        0.9610   -0.7860   -1.0370 hc        1 KRA      0.080700
     28 H102       -0.8490   -0.9480   -0.9870 hc        1 KRA      0.080700
     29 H12         1.9210   -1.3550   -3.0540 ha        1 KRA      0.141000
     30 H13         1.8240   -1.5870   -5.5290 ha        1 KRA      0.133500
     31 H14        -0.1870   -0.8060   -6.7850 ha        1 KRA      0.132000
     32 H15        -2.1030    0.2180   -5.5520 ha        1 KRA      0.133500
     33 H16        -2.0050    0.4620   -3.0690 ha        1 KRA      0.141000
@<TRIPOS>BOND
     1    1    2 1   
     2    1    3 ar  
     3    1    7 ar  
     4    2   20 1   
     5    3    4 ar  
     6    3   21 1   
     7    4    5 ar  
     8    4   22 1   
     9    5    6 ar  
    10    5    8 1   
    11    6    7 ar  
    12    6   23 1   
    13    7   24 1   
    14    8    9 1   
    15    8   25 1   
    16    8   26 1   
    17    9   10 2   
    18    9   11 1   
    19   11   12 2   
    20   11   13 1   
    21   13   14 1   
    22   13   27 1   
    23   13   28 1   
    24   14   15 ar  
    25   14   19 ar  
    26   15   16 ar  
    27   15   29 1   
    28   16   17 ar  
    29   16   30 1   
    30   17   18 ar  
    31   17   31 1   
    32   18   19 ar  
    33   18   32 1   
    34   19   33 1   
@<TRIPOS>SUBSTRUCTURE
     1 KRA         1 TEMP              0 ****  ****    0 ROOT
