@<TRIPOS>MOLECULE
KRA
   33    34     1     0     0
SMALL
bcc


@<TRIPOS>ATOM
      1 C1          0.6480    0.9210    0.4160 ca        1 KRA      0.131100
      2 O1          0.2910    1.5090   -0.7740 oh        1 KRA     -0.495100
      3 C2          1.9540    0.4100    0.4970 ca        1 KRA     -0.184500
      4 C3          2.3720   -0.1940    1.6770 ca        1 KRA     -0.085000
      5 C4          1.5070   -0.2950    2.7740 ca        1 KRA     -0.129300
      6 C5          0.2070    0.2170    2.6790 ca        1 KRA     -0.085000
      7 C6         -0.2290    0.8260    1.5070 ca        1 KRA     -0.184500
      8 C7          1.9490   -0.9720    4.0230 c3        1 KRA     -0.130100
      9 C8          1.9940   -0.0170    5.1860 c         1 KRA      0.484100
     10 O2          1.0540    0.1380    5.9660 o         1 KRA     -0.496100
     11 C9          3.2910    0.7470    5.3510 c         1 KRA      0.491100
     12 O3          4.3700    0.1520    5.3490 o         1 KRA     -0.499100
     13 C10         3.1470    2.2390    5.4660 c3        1 KRA     -0.127100
     14 C11         3.8710    2.8090    6.6340 ca        1 KRA     -0.088300
     15 C12         5.2570    2.6540    6.7580 ca        1 KRA     -0.114500
     16 C13         5.9320    3.2220    7.8360 ca        1 KRA     -0.130500
     17 C14         5.2310    3.9490    8.7970 ca        1 KRA     -0.124000
     18 C15         3.8500    4.1030    8.6810 ca        1 KRA     -0.130500
     19 C16         3.1700    3.5350    7.6040 ca        1 KRA     -0.114500
     20 HO1        -0.6270    1.8060   -0.6990 ho        1 KRA      0.421000
     21 H2          2.6240    0.4940   -0.3700 ha        1 KRA      0.146000
     22 H3          3.3940   -0.5990    1.7450 ha        1 KRA      0.143000
     23 H5         -0.4710    0.1370    3.5440 ha        1 KRA      0.143000
     24 H6         -1.2500    1.2270    1.4360 ha        1 KRA      0.146000
     25 H71         2.9720   -1.4210    3.8920 hc        1 KRA      0.085200
     26 H72         1.2340   -1.8050    4.2680 hc        1 KRA      0.085200
     27 H101        3.5570    2.6930    4.5200 hc        1 KRA      0.080700
     28 H102        2.0550    2.4990    5.5260 hc        1 KRA      0.080700
     29 H12         5.8050    2.0630    6.0070 ha        1 KRA      0.141000
     30 H13         7.0210    3.0930    7.9280 ha        1 KRA      0.133500
     31 H14         5.7650    4.3980    9.6470 ha        1 KRA      0.132000
     32 H15         3.2930    4.6720    9.4400 ha        1 KRA      0.133500
     33 H16         2.0790    3.6560    7.5200 ha        1 KRA      0.141000
@<TRIPOS>BOND
     1    1    2 1   
     2    1    3 ar  
     3    1    7 ar  
     4    2   20 1   
     5    3    4 ar  
     6    3   21 1   
     7    4    5 ar  
     8    4   22 1   
     9    5    6 ar  
    10    5    8 1   
    11    6    7 ar  
    12    6   23 1   
    13    7   24 1   
    14    8    9 1   
    15    8   25 1   
    16    8   26 1   
    17    9   10 2   
    18    9   11 1   
    19   11   12 2   
    20   11   13 1   
    21   13   14 1   
    22   13   27 1   
    23   13   28 1   
    24   14   15 ar  
    25   14   19 ar  
    26   15   16 ar  
    27   15   29 1   
    28   16   17 ar  
    29   16   30 1   
    30   17   18 ar  
    31   17   31 1   
    32   18   19 ar  
    33   18   32 1   
    34   19   33 1   
@<TRIPOS>SUBSTRUCTURE
     1 KRA         1 TEMP              0 ****  ****    0 ROOT
