@<TRIPOS>MOLECULE
KRA
   33    29     1     0     0
SMALL
bcc


@<TRIPOS>ATOM
      1 C1         -2.6810   -1.3560   -4.6450 c1        1 KRA      0.086000
      2 O1         -3.3850   -1.3430   -5.8640 o         1 KRA     -0.249000
      3 C2         -1.2950   -1.3560   -4.6450 c2        1 KRA     -0.157000
      4 C3         -0.6020   -1.3560   -3.4450 c1        1 KRA     -0.087000
      5 C4         -1.2950   -1.3560   -2.2440 c1        1 KRA     -0.122000
      6 C5         -2.6810   -1.3560   -2.2450 c1        1 KRA     -0.083000
      7 C6         -3.3750   -1.3560   -3.4450 c1        1 KRA     -0.212000
      8 C7         -0.5390   -1.4200   -0.9350 c3        1 KRA     -0.166000
      9 C8         -0.2570   -0.0160   -0.4450 c2        1 KRA      0.195000
     10 O2         -0.6330    0.9400   -1.0940 o         1 KRA     -0.257000
     11 C9          0.4920    0.1970    0.8530 c2        1 KRA      0.202000
     12 O3          0.8670   -0.7580    1.5020 o         1 KRA     -0.260000
     13 C10         0.7740    1.6020    1.3420 c3        1 KRA     -0.163000
     14 C11         1.5300    1.5380    2.6520 c2        1 KRA     -0.081000
     15 C12         2.9160    1.5380    2.6520 c2        1 KRA     -0.113000
     16 C13         3.6090    1.4800    3.8510 c1        1 KRA     -0.129000
     17 C14         2.9160    1.4210    5.0500 c1        1 KRA     -0.128000
     18 C15         1.5300    1.4200    5.0500 c1        1 KRA     -0.128000
     19 C16         0.8370    1.4790    3.8510 c1        1 KRA     -0.116000
     20 HO1        -3.5370   -2.1770   -6.1270 ho        1 KRA      0.220000
     21 H2         -0.8070   -1.3560   -5.4910 ha        1 KRA      0.154000
     22 H3          0.3740   -1.3560   -3.4450 ha        1 KRA      0.140000
     23 H5         -3.1700   -1.3560   -1.3990 ha        1 KRA      0.146000
     24 H6         -4.3510   -1.3560   -3.4450 ha        1 KRA      0.138000
     25 H71        -1.0760   -1.8940   -0.2720 hc        1 KRA      0.124500
     26 H72         0.3040   -1.8930   -1.0690 hc        1 KRA      0.124500
     27 H101        1.3110    2.0760    0.6790 hc        1 KRA      0.120000
     28 H102       -0.0700    2.0750    1.4760 hc        1 KRA      0.120000
     29 H12         3.4040    1.5800    1.8080 ha        1 KRA      0.148000
     30 H13         4.5850    1.4800    3.8510 ha        1 KRA      0.134000
     31 H14         3.4040    1.3800    5.8940 ha        1 KRA      0.132500
     32 H15         1.0420    1.3790    5.8940 ha        1 KRA      0.132500
     33 H16        -0.1390    1.4780    3.8510 ha        1 KRA      0.134000
@<TRIPOS>BOND
     1    1    3 1   
     2    1    7 1   
     3    2   20 1   
     4    3    4 1   
     5    3   21 1   
     6    4   22 1   
     7    5    6 1   
     8    5    8 1   
     9    6   23 1   
    10    7   24 1   
    11    8    9 1   
    12    8   25 1   
    13    8   26 1   
    14    9   10 1   
    15    9   11 1   
    16   11   12 1   
    17   11   13 1   
    18   13   14 1   
    19   13   27 1   
    20   13   28 1   
    21   14   15 1   
    22   14   19 1   
    23   15   16 1   
    24   15   29 1   
    25   16   30 1   
    26   17   18 1   
    27   17   31 1   
    28   18   32 1   
    29   19   33 1   
@<TRIPOS>SUBSTRUCTURE
     1 KRA         1 TEMP              0 ****  ****    0 ROOT
