@<TRIPOS>MOLECULE
KRA
   33    34     1     0     0
SMALL
bcc


@<TRIPOS>ATOM
      1 C1          0.6970    0.9220    0.3950 ca        1 KRA      0.131100
      2 O1          0.3670    1.5080   -0.8040 oh        1 KRA     -0.495100
      3 C2          1.9970    0.3980    0.4990 ca        1 KRA     -0.184500
      4 C3          2.3890   -0.2050    1.6880 ca        1 KRA     -0.085000
      5 C4          1.5060   -0.2920    2.7720 ca        1 KRA     -0.130300
      6 C5          0.2140    0.2330    2.6530 ca        1 KRA     -0.085000
      7 C6         -0.1980    0.8420    1.4720 ca        1 KRA     -0.184500
      8 C7          1.9210   -0.9680    4.0300 c3        1 KRA     -0.130100
      9 C8          1.9600   -0.0080    5.1890 c         1 KRA      0.484100
     10 O2          1.0120    0.1610    5.9560 o         1 KRA     -0.496100
     11 C9          3.2640    0.7430    5.3670 c         1 KRA      0.491100
     12 O3          4.3360    0.1370    5.3800 o         1 KRA     -0.499100
     13 C10         3.1340    2.2370    5.4750 c3        1 KRA     -0.127100
     14 C11         3.8580    2.8060    6.6440 ca        1 KRA     -0.088300
     15 C12         5.2420    2.6380    6.7730 ca        1 KRA     -0.115000
     16 C13         5.9190    3.2050    7.8510 ca        1 KRA     -0.130500
     17 C14         5.2200    3.9440    8.8070 ca        1 KRA     -0.124000
     18 C15         3.8410    4.1090    8.6840 ca        1 KRA     -0.130500
     19 C16         3.1600    3.5420    7.6080 ca        1 KRA     -0.115000
     20 HO1        -0.5500    1.8150   -0.7450 ho        1 KRA      0.421000
     21 H2          2.6820    0.4700   -0.3580 ha        1 KRA      0.146000
     22 H3          3.4050   -0.6210    1.7740 ha        1 KRA      0.143000
     23 H5         -0.4790    0.1640    3.5070 ha        1 KRA      0.143000
     24 H6         -1.2130    1.2530    1.3830 ha        1 KRA      0.146000
     25 H71         2.9390   -1.4310    3.9170 hc        1 KRA      0.084700
     26 H72         1.1910   -1.7910    4.2680 hc        1 KRA      0.084700
     27 H101        3.5500    2.6830    4.5290 hc        1 KRA      0.080700
     28 H102        2.0440    2.5080    5.5300 hc        1 KRA      0.080700
     29 H12         5.7880    2.0390    6.0270 ha        1 KRA      0.141000
     30 H13         7.0060    3.0680    7.9480 ha        1 KRA      0.133500
     31 H14         5.7560    4.3920    9.6560 ha        1 KRA      0.132000
     32 H15         3.2870    4.6870    9.4380 ha        1 KRA      0.133500
     33 H16         2.0710    3.6730    7.5190 ha        1 KRA      0.141000
@<TRIPOS>BOND
     1    1    2 1   
     2    1    3 ar  
     3    1    7 ar  
     4    2   20 1   
     5    3    4 ar  
     6    3   21 1   
     7    4    5 ar  
     8    4   22 1   
     9    5    6 ar  
    10    5    8 1   
    11    6    7 ar  
    12    6   23 1   
    13    7   24 1   
    14    8    9 1   
    15    8   25 1   
    16    8   26 1   
    17    9   10 2   
    18    9   11 1   
    19   11   12 2   
    20   11   13 1   
    21   13   14 1   
    22   13   27 1   
    23   13   28 1   
    24   14   15 ar  
    25   14   19 ar  
    26   15   16 ar  
    27   15   29 1   
    28   16   17 ar  
    29   16   30 1   
    30   17   18 ar  
    31   17   31 1   
    32   18   19 ar  
    33   18   32 1   
    34   19   33 1   
@<TRIPOS>SUBSTRUCTURE
     1 KRA         1 TEMP              0 ****  ****    0 ROOT
