@<TRIPOS>MOLECULE
KRB
   36    38     1     0     0
SMALL
bcc


@<TRIPOS>ATOM
      1 C1          0.6360   -1.2840    0.9810 ca        1 KRB     -0.144000
      2 C3          1.9410   -1.0790    1.4010 ca        1 KRB     -0.112000
      3 C5          2.2330   -0.4530    2.6270 ca        1 KRB     -0.152000
      4 C7          1.2240   -0.0120    3.4700 ca        1 KRB     -0.089000
      5 C9         -0.1050   -0.1960    3.0840 ca        1 KRB     -0.089800
      6 C10        -0.3970   -0.8410    1.8240 ca        1 KRB     -0.048200
      7 N11        -1.7860   -0.9040    1.6810 na        1 KRB     -0.189400
      8 C13        -2.3720   -0.3120    2.7990 cc        1 KRB     -0.083100
      9 C15        -1.3840    0.1290    3.6830 cd        1 KRB     -0.160400
     10 C16        -1.5980    0.8340    4.9520 c3        1 KRB     -0.100200
     11 C19        -1.7540   -0.1150    6.1120 c         1 KRB      0.484100
     12 O21        -2.8420   -0.3780    6.6260 o         1 KRB     -0.501100
     13 C23        -0.4680   -0.7210    6.6370 c         1 KRB      0.495100
     14 O24         0.5110   -0.0060    6.8630 o         1 KRB     -0.505100
     15 C25        -0.4850   -2.2140    6.8040 c3        1 KRB     -0.129100
     16 C28         0.0650   -2.6720    8.1080 ca        1 KRB     -0.086300
     17 C29        -0.7280   -3.4390    8.9700 ca        1 KRB     -0.115000
     18 C31        -0.2050   -3.9030   10.1760 ca        1 KRB     -0.131000
     19 C33         1.1090   -3.6040   10.5310 ca        1 KRB     -0.125000
     20 C35         1.9010   -2.8350    9.6780 ca        1 KRB     -0.131000
     21 C37         1.3830   -2.3700    8.4710 ca        1 KRB     -0.115000
     22 H1          0.4150   -1.7740    0.0240 ha        1 KRB      0.133000
     23 H3          2.7720   -1.4130    0.7620 ha        1 KRB      0.131000
     24 H5          3.2850   -0.3140    2.9160 ha        1 KRB      0.133000
     25 H7          1.4550    0.4700    4.4340 ha        1 KRB      0.147000
     26 H11        -2.2650   -1.2740    0.9050 hn        1 KRB      0.301700
     27 H13        -3.4590   -0.2460    2.8930 h4        1 KRB      0.172000
     28 H161       -2.5190    1.4760    4.8850 hc        1 KRB      0.083200
     29 H162       -0.7180    1.5020    5.1690 hc        1 KRB      0.083200
     30 H251        0.1300   -2.6520    5.9680 hc        1 KRB      0.083700
     31 H252       -1.5400   -2.5830    6.6810 hc        1 KRB      0.083700
     32 H29        -1.7680   -3.6750    8.6970 ha        1 KRB      0.141000
     33 H31        -0.8340   -4.5050   10.8480 ha        1 KRB      0.132500
     34 H33         1.5200   -3.9700   11.4830 ha        1 KRB      0.131000
     35 H35         2.9370   -2.5910    9.9580 ha        1 KRB      0.132500
     36 H37         1.9990   -1.7470    7.8030 ha        1 KRB      0.141000
@<TRIPOS>BOND
     1    1    2 ar  
     2    1    6 ar  
     3    1   22 1   
     4    2    3 ar  
     5    2   23 1   
     6    3    4 ar  
     7    3   24 1   
     8    4    5 ar  
     9    4   25 1   
    10    5    6 ar  
    11    5    9 1   
    12    6    7 1   
    13    7    8 1   
    14    7   26 1   
    15    8    9 2   
    16    8   27 1   
    17    9   10 1   
    18   10   11 1   
    19   10   28 1   
    20   10   29 1   
    21   11   12 2   
    22   11   13 1   
    23   13   14 2   
    24   13   15 1   
    25   15   16 1   
    26   15   30 1   
    27   15   31 1   
    28   16   17 ar  
    29   16   21 ar  
    30   17   18 ar  
    31   17   32 1   
    32   18   19 ar  
    33   18   33 1   
    34   19   20 ar  
    35   19   34 1   
    36   20   21 ar  
    37   20   35 1   
    38   21   36 1   
@<TRIPOS>SUBSTRUCTURE
     1 KRB         1 TEMP              0 ****  ****    0 ROOT
