@<TRIPOS>MOLECULE
KRB
   36    38     1     0     0
SMALL
bcc


@<TRIPOS>ATOM
      1 C1          0.8550   -1.3140   -4.2190 ca        1 KRB     -0.144000
      2 C3          2.1470   -0.9610   -3.8630 ca        1 KRB     -0.112000
      3 C5          2.4020    0.0220   -2.8890 ca        1 KRB     -0.152000
      4 C7          1.3690    0.6830   -2.2420 ca        1 KRB     -0.089000
      5 C9          0.0520    0.3600   -2.5730 ca        1 KRB     -0.089800
      6 C10        -0.2030   -0.6520   -3.5740 ca        1 KRB     -0.048200
      7 N11        -1.5870   -0.7860   -3.7130 na        1 KRB     -0.189400
      8 C13        -2.2070    0.1120   -2.8450 cc        1 KRB     -0.083100
      9 C15        -1.2450    0.8280   -2.1270 cd        1 KRB     -0.160400
     10 C16        -1.4980    1.8890   -1.1450 c3        1 KRB     -0.100200
     11 C19        -1.6650    1.3450    0.2500 c         1 KRB      0.484100
     12 O21        -2.7600    1.2330    0.8020 o         1 KRB     -0.501100
     13 C23        -0.3820    0.9610    0.9590 c         1 KRB      0.495100
     14 O24         0.5810    1.7310    0.9670 o         1 KRB     -0.505100
     15 C25        -0.3810   -0.4060    1.5840 c3        1 KRB     -0.129100
     16 C28         0.1470   -0.4230    2.9740 ca        1 KRB     -0.086300
     17 C29        -0.6530   -0.9000    4.0190 ca        1 KRB     -0.115000
     18 C31        -0.1500   -0.9530    5.3180 ca        1 KRB     -0.131000
     19 C33         1.1520   -0.5300    5.5840 ca        1 KRB     -0.125000
     20 C35         1.9510   -0.0490    4.5460 ca        1 KRB     -0.131000
     21 C37         1.4520    0.0040    3.2460 ca        1 KRB     -0.115000
     22 H1          0.6630   -2.0820   -4.9790 ha        1 KRB      0.133000
     23 H3          2.9970   -1.4600   -4.3520 ha        1 KRB      0.131000
     24 H5          3.4460    0.2660   -2.6400 ha        1 KRB      0.133000
     25 H7          1.5710    1.4460   -1.4740 ha        1 KRB      0.147000
     26 H11        -2.0430   -1.3900   -4.3430 hn        1 KRB      0.301700
     27 H13        -3.2960    0.1810   -2.7950 h4        1 KRB      0.172000
     28 H161       -2.4270    2.4580   -1.4240 hc        1 KRB      0.083200
     29 H162       -0.6330    2.6100   -1.1330 hc        1 KRB      0.083200
     30 H251       -1.4280   -0.8170    1.5650 hc        1 KRB      0.083700
     31 H252        0.2580   -1.0700    0.9360 hc        1 KRB      0.083700
     32 H29        -1.6830   -1.2300    3.8170 ha        1 KRB      0.141000
     33 H31        -0.7850   -1.3290    6.1350 ha        1 KRB      0.132500
     34 H33         1.5470   -0.5730    6.6090 ha        1 KRB      0.131000
     35 H35         2.9760    0.2910    4.7530 ha        1 KRB      0.132500
     36 H37         2.0740    0.4010    2.4280 ha        1 KRB      0.141000
@<TRIPOS>BOND
     1    1    2 ar  
     2    1    6 ar  
     3    1   22 1   
     4    2    3 ar  
     5    2   23 1   
     6    3    4 ar  
     7    3   24 1   
     8    4    5 ar  
     9    4   25 1   
    10    5    6 ar  
    11    5    9 1   
    12    6    7 1   
    13    7    8 1   
    14    7   26 1   
    15    8    9 2   
    16    8   27 1   
    17    9   10 1   
    18   10   11 1   
    19   10   28 1   
    20   10   29 1   
    21   11   12 2   
    22   11   13 1   
    23   13   14 2   
    24   13   15 1   
    25   15   16 1   
    26   15   30 1   
    27   15   31 1   
    28   16   17 ar  
    29   16   21 ar  
    30   17   18 ar  
    31   17   32 1   
    32   18   19 ar  
    33   18   33 1   
    34   19   20 ar  
    35   19   34 1   
    36   20   21 ar  
    37   20   35 1   
    38   21   36 1   
@<TRIPOS>SUBSTRUCTURE
     1 KRB         1 TEMP              0 ****  ****    0 ROOT
