@<TRIPOS>MOLECULE
KRB
   36    38     1     0     0
SMALL
bcc


@<TRIPOS>ATOM
      1 C1          0.5570   -1.2410    0.9730 ca        1 KRB     -0.144000
      2 C3          1.8700   -1.0490    1.3730 ca        1 KRB     -0.112000
      3 C5          2.1870   -0.4380    2.6000 ca        1 KRB     -0.152000
      4 C7          1.1960    0.0010    3.4650 ca        1 KRB     -0.089000
      5 C9         -0.1410   -0.1700    3.0990 ca        1 KRB     -0.089800
      6 C10        -0.4580   -0.8000    1.8370 ca        1 KRB     -0.048200
      7 N11        -1.8500   -0.8520    1.7180 na        1 KRB     -0.189400
      8 C13        -2.4130   -0.2680    2.8520 cc        1 KRB     -0.083100
      9 C15        -1.4070    0.1570    3.7230 cd        1 KRB     -0.160400
     10 C16        -1.5950    0.8510    5.0030 c3        1 KRB     -0.100200
     11 C19        -1.7370   -0.1090    6.1550 c         1 KRB      0.484100
     12 O21        -2.8180   -0.3690    6.6850 o         1 KRB     -0.501100
     13 C23        -0.4470   -0.7290    6.6520 c         1 KRB      0.495100
     14 O24         0.5410   -0.0230    6.8680 o         1 KRB     -0.505100
     15 C25        -0.4730   -2.2240    6.8040 c3        1 KRB     -0.129100
     16 C28         0.1010   -2.7000    8.0910 ca        1 KRB     -0.086300
     17 C29        -0.6790   -3.4700    8.9610 ca        1 KRB     -0.115000
     18 C31        -0.1350   -3.9510   10.1520 ca        1 KRB     -0.131000
     19 C33         1.1890   -3.6650   10.4820 ca        1 KRB     -0.125000
     20 C35         1.9690   -2.8930    9.6210 ca        1 KRB     -0.131000
     21 C37         1.4290   -2.4120    8.4300 ca        1 KRB     -0.115000
     22 H1          0.3170   -1.7190    0.0150 ha        1 KRB      0.133000
     23 H3          2.6880   -1.3820    0.7160 ha        1 KRB      0.131000
     24 H5          3.2450   -0.3090    2.8730 ha        1 KRB      0.133000
     25 H7          1.4470    0.4720    4.4280 ha        1 KRB      0.147000
     26 H11        -2.3450   -1.2110    0.9460 hn        1 KRB      0.301700
     27 H13        -3.4970   -0.1950    2.9640 h4        1 KRB      0.172000
     28 H161       -2.5120    1.4990    4.9580 hc        1 KRB      0.083200
     29 H162       -0.7070    1.5110    5.2120 hc        1 KRB      0.083200
     30 H251        0.1210   -2.6580    5.9500 hc        1 KRB      0.083700
     31 H252       -1.5330   -2.5830    6.7000 hc        1 KRB      0.083700
     32 H29        -1.7270   -3.6950    8.7080 ha        1 KRB      0.140500
     33 H31        -0.7540   -4.5550   10.8310 ha        1 KRB      0.132500
     34 H33         1.6170   -4.0450   11.4210 ha        1 KRB      0.131000
     35 H35         3.0120   -2.6610    9.8810 ha        1 KRB      0.132500
     36 H37         2.0360   -1.7870    7.7560 ha        1 KRB      0.140500
@<TRIPOS>BOND
     1    1    2 ar  
     2    1    6 ar  
     3    1   22 1   
     4    2    3 ar  
     5    2   23 1   
     6    3    4 ar  
     7    3   24 1   
     8    4    5 ar  
     9    4   25 1   
    10    5    6 ar  
    11    5    9 1   
    12    6    7 1   
    13    7    8 1   
    14    7   26 1   
    15    8    9 2   
    16    8   27 1   
    17    9   10 1   
    18   10   11 1   
    19   10   28 1   
    20   10   29 1   
    21   11   12 2   
    22   11   13 1   
    23   13   14 2   
    24   13   15 1   
    25   15   16 1   
    26   15   30 1   
    27   15   31 1   
    28   16   17 ar  
    29   16   21 ar  
    30   17   18 ar  
    31   17   32 1   
    32   18   19 ar  
    33   18   33 1   
    34   19   20 ar  
    35   19   34 1   
    36   20   21 ar  
    37   20   35 1   
    38   21   36 1   
@<TRIPOS>SUBSTRUCTURE
     1 KRB         1 TEMP              0 ****  ****    0 ROOT
