@<TRIPOS>MOLECULE
KRB
   36    28     1     0     0
SMALL
bcc


@<TRIPOS>ATOM
      1 C1          1.4410    0.3600   -5.5800 c1        1 KRB     -0.115000
      2 C3          2.7620   -0.0450   -5.4620 c1        1 KRB     -0.130250
      3 C5          3.3450   -0.1580   -4.2070 c1        1 KRB     -0.130250
      4 C7          2.6050    0.1340   -3.0700 c1        1 KRB     -0.115000
      5 C9          1.2660    0.5450   -3.1890 c1        1 KRB     -0.038000
      6 C10         0.6910    0.6560   -4.4280 c1        1 KRB     -0.038000
      7 N11        -0.6150    1.0790   -4.2570 n1        1 KRB     -0.215000
      8 C13        -0.8400    1.2270   -2.9170 c1        1 KRB     -0.046000
      9 C15         0.3220    0.8970   -2.2490 c1        1 KRB     -0.169000
     10 C16         0.3760    1.3040   -0.7930 c2        1 KRB     -0.130000
     11 C19        -0.3280    0.2620    0.0480 c2        1 KRB      0.198000
     12 O21        -1.0230   -0.5800   -0.4840 o         1 KRB     -0.267000
     13 C23        -0.1440    0.2530    1.5500 c2        1 KRB      0.191000
     14 O24         0.9340   -0.0380    2.0280 o         1 KRB     -0.257000
     15 C25        -1.2960    0.6300    2.4560 c3        1 KRB     -0.164000
     16 C28        -1.3650   -0.3410    3.6150 c2        1 KRB     -0.080000
     17 C29        -2.2760   -1.3860    3.5900 c2        1 KRB     -0.116000
     18 C31        -2.3650   -2.2520    4.6680 c1        1 KRB     -0.132000
     19 C33        -1.5450   -2.0740    5.7710 c1        1 KRB     -0.130250
     20 C35        -0.6340   -1.0290    5.7960 c1        1 KRB     -0.130250
     21 C37        -0.5440   -0.1630    4.7170 c1        1 KRB     -0.114000
     22 H1          1.0320    0.4390   -6.4620 ha        1 KRB      0.132000
     23 H3          3.2830   -0.2510   -6.2620 ha        1 KRB      0.131500
     24 H5          4.2750   -0.4430   -4.1240 ha        1 KRB      0.131500
     25 H7          3.0150    0.0550   -2.1870 ha        1 KRB      0.132000
     26 H11        -1.2200    1.2330   -4.9220 DU        1 KRB      0.219000
     27 H13        -1.6730    1.5260   -2.5050 DU        1 KRB      0.219000
     28 H161       -0.0670    2.1690   -0.6800 ha        1 KRB      0.124500
     29 H162        1.3090    1.3760   -0.5100 ha        1 KRB      0.124500
     30 H251       -2.1330    0.5940    1.9510 hc        1 KRB      0.118500
     31 H252       -1.1600    1.5360    2.7970 hc        1 KRB      0.118500
     32 H29        -2.8530   -1.5120    2.8130 ha        1 KRB      0.134000
     33 H31        -3.0070   -2.9880    4.6510 ha        1 KRB      0.133000
     34 H33        -1.6080   -2.6840    6.5300 ha        1 KRB      0.131500
     35 H35        -0.0570   -0.9040    6.5720 ha        1 KRB      0.131500
     36 H37         0.0970    0.5730    4.7350 ha        1 KRB      0.148000
@<TRIPOS>BOND
     1    1    6 1   
     2    1   22 1   
     3    2    3 1   
     4    2   23 1   
     5    3   24 1   
     6    4    5 1   
     7    4   25 1   
     8    7    8 1   
     9    8    9 1   
    10   10   11 1   
    11   10   28 1   
    12   10   29 1   
    13   11   12 1   
    14   11   13 1   
    15   13   14 1   
    16   13   15 1   
    17   15   16 1   
    18   15   30 1   
    19   15   31 1   
    20   16   17 1   
    21   16   21 1   
    22   17   18 1   
    23   17   32 1   
    24   18   33 1   
    25   19   20 1   
    26   19   34 1   
    27   20   35 1   
    28   21   36 1   
@<TRIPOS>SUBSTRUCTURE
     1 KRB         1 TEMP              0 ****  ****    0 ROOT
