@<TRIPOS>MOLECULE
KRC
   66    70     1     0     0
SMALL
bcc


@<TRIPOS>ATOM
      1 C1         -0.3430   -1.6070    0.0260 ce        1 KRC     -0.339400
      2 C2          1.0090   -1.8190    0.0180 cf        1 KRC      0.225100
      3 C3          1.7900   -1.8230    1.2570 cf        1 KRC     -0.195000
      4 C4          1.1920   -1.2880    2.3320 c2        1 KRC      0.093900
      5 C5         -0.1490   -0.5740    2.3140 c3        1 KRC     -0.059500
      6 C6         -1.0430   -1.2480    1.2730 c         1 KRC      0.611300
      7 O7          1.6550   -1.4700    3.6550 os        1 KRC     -0.274200
      8 C8          0.5630   -1.1800    4.4870 ca        1 KRC      0.205100
      9 C9         -0.5350   -0.6760    3.7650 ca        1 KRC     -0.201300
     10 C10         0.5720   -1.3700    5.8730 ca        1 KRC     -0.293600
     11 C11        -0.6460   -1.0240    6.5480 ca        1 KRC      0.283100
     12 C12        -1.7480   -0.5120    5.8600 ca        1 KRC     -0.337000
     13 C13        -1.6950   -0.3130    4.4640 ca        1 KRC      0.304100
     14 O14        -2.2460   -1.4180    1.4650 o         1 KRC     -0.485100
     15 O15        -2.7110    0.2470    3.7630 oh        1 KRC     -0.437100
     16 O16        -0.6260   -1.2520    7.8920 os        1 KRC     -0.301900
     17 C17         1.6970   -1.8430    6.6570 c         1 KRC      0.591700
     18 N18         2.7590   -2.6040    5.8850 n4        1 KRC     -0.672800
     19 C19        -0.0000    0.8920    1.9150 c3        1 KRC     -0.083100
     20 O20         1.9010   -1.7170    7.8570 o         1 KRC     -0.424100
     21 C21        -1.1620   -1.8090   -1.1990 c         1 KRC      0.602300
     22 O22         1.6300   -2.0820   -1.1670 oh        1 KRC     -0.446100
     23 C23        -2.1140   -0.7080   -1.5320 c3        1 KRC     -0.198100
     24 O24        -1.0480   -2.8290   -1.8810 o         1 KRC     -0.498100
     25 C25        -1.7980   -0.9040    8.6390 c3        1 KRC      0.106700
     26 C26         3.6800   -3.4020    6.7580 c3        1 KRC      0.174100
     27 C27         4.6870   -4.1290    5.9330 ca        1 KRC     -0.182300
     28 C28         5.9820   -3.6480    5.8170 ca        1 KRC     -0.006300
     29 C29         6.9420   -4.3910    5.0790 ca        1 KRC     -0.146000
     30 C30         6.5990   -5.5660    4.4620 ca        1 KRC     -0.060000
     31 C31         5.2720   -6.0680    4.5470 ca        1 KRC     -0.051000
     32 C32         4.3010   -5.3500    5.2940 ca        1 KRC     -0.012000
     33 C33         4.9100   -7.2800    3.8970 ca        1 KRC     -0.092000
     34 C34         3.6290   -7.7660    3.9870 ca        1 KRC     -0.124000
     35 C35         2.6600   -7.0610    4.7390 ca        1 KRC     -0.080000
     36 C36         2.9860   -5.8860    5.3730 ca        1 KRC     -0.177000
     37 C37         6.4390   -2.3690    6.4350 c3        1 KRC     -0.053100
     38 C38         6.9280   -2.5670    7.8510 c3        1 KRC     -0.096100
     39 H3          2.7720   -2.3130    1.2740 ha        1 KRC      0.167000
     40 H12        -2.6700   -0.2520    6.4020 ha        1 KRC      0.171000
     41 HO15       -3.4830    0.3560    4.3460 ho        1 KRC      0.451000
     42 HN18        3.3080   -1.9300    5.3370 hn        1 KRC      0.460300
     43 H19        -0.9910    1.3990    2.0200 hc        1 KRC      0.065700
     44 H19A        0.7410    1.4010    2.5760 hc        1 KRC      0.065700
     45 H19B        0.3420    0.9720    0.8550 hc        1 KRC      0.065700
     46 HO22        2.5500   -2.3380   -0.9930 ho        1 KRC      0.436000
     47 H23        -2.9090   -0.6550   -0.7460 hc        1 KRC      0.073700
     48 H23A       -1.5750    0.2690   -1.5690 hc        1 KRC      0.073700
     49 H23B       -2.5960   -0.8980   -2.5230 hc        1 KRC      0.073700
     50 H25        -1.5050   -1.1700    9.6880 h1        1 KRC      0.069367
     51 H25A       -2.0050    0.1900    8.5490 h1        1 KRC      0.069367
     52 H25B       -2.6690   -1.5130    8.2990 h1        1 KRC      0.069367
     53 H26         3.0490   -4.1170    7.3610 hx        1 KRC      0.115200
     54 H26A        4.1650   -2.6900    7.4890 hx        1 KRC      0.115200
     55 H29         7.9730   -4.0060    5.0150 ha        1 KRC      0.156000
     56 H30         7.3470   -6.1410    3.8910 ha        1 KRC      0.155000
     57 H33         5.6810   -7.8220    3.3250 ha        1 KRC      0.152000
     58 H34         3.3450   -8.7050    3.4880 ha        1 KRC      0.156000
     59 H35         1.6410   -7.4720    4.8140 ha        1 KRC      0.148000
     60 H36         2.2170   -5.3800    5.9740 ha        1 KRC      0.112000
     61 H37         5.6130   -1.6090    6.4190 hc        1 KRC      0.048700
     62 H37A        7.2760   -1.9390    5.8170 hc        1 KRC      0.048700
     63 H38         7.7840   -3.2850    7.8720 hc        1 KRC      0.050033
     64 H38A        6.1180   -2.9680    8.5060 hc        1 KRC      0.050033
     65 H38B        7.2750   -1.5910    8.2720 hc        1 KRC      0.050033
     66 H182        2.2990   -3.2330    5.2140 hn        1 KRC      0.460300
@<TRIPOS>BOND
     1    1    2 2   
     2    1    6 1   
     3    1   21 1   
     4    2    3 1   
     5    2   22 1   
     6    3    4 2   
     7    3   39 1   
     8    4    5 1   
     9    4    7 1   
    10    5    6 1   
    11    5    9 1   
    12    5   19 1   
    13    6   14 2   
    14    7    8 1   
    15    8    9 ar  
    16    8   10 ar  
    17    9   13 ar  
    18   10   11 ar  
    19   10   17 1   
    20   11   12 ar  
    21   11   16 1   
    22   12   13 ar  
    23   12   40 1   
    24   13   15 1   
    25   15   41 1   
    26   16   25 1   
    27   17   18 1   
    28   17   20 2   
    29   18   26 1   
    30   18   42 1   
    31   18   66 1   
    32   19   43 1   
    33   19   44 1   
    34   19   45 1   
    35   21   23 1   
    36   21   24 2   
    37   22   46 1   
    38   23   47 1   
    39   23   48 1   
    40   23   49 1   
    41   25   50 1   
    42   25   51 1   
    43   25   52 1   
    44   26   27 1   
    45   26   53 1   
    46   26   54 1   
    47   27   28 ar  
    48   27   32 ar  
    49   28   29 ar  
    50   28   37 1   
    51   29   30 ar  
    52   29   55 1   
    53   30   31 ar  
    54   30   56 1   
    55   31   32 ar  
    56   31   33 ar  
    57   32   36 ar  
    58   33   34 ar  
    59   33   57 1   
    60   34   35 ar  
    61   34   58 1   
    62   35   36 ar  
    63   35   59 1   
    64   36   60 1   
    65   37   38 1   
    66   37   61 1   
    67   37   62 1   
    68   38   63 1   
    69   38   64 1   
    70   38   65 1   
@<TRIPOS>SUBSTRUCTURE
     1 KRC         1 TEMP              0 ****  ****    0 ROOT
