@<TRIPOS>MOLECULE
KRC
   66    70     1     0     0
SMALL
bcc


@<TRIPOS>ATOM
      1 C1         -0.1030    1.5720    0.0800 ce        1 KRC     -0.348400
      2 C2          0.9220    2.2470    0.6880 cf        1 KRC      0.232100
      3 C3          1.5180    1.7700    1.9370 cf        1 KRC     -0.192000
      4 C4          0.8160    0.8510    2.6150 c2        1 KRC      0.085900
      5 C5         -0.5890    0.3930    2.2520 c3        1 KRC     -0.062500
      6 C6         -0.7260    0.4050    0.7290 c         1 KRC      0.614300
      7 O7          1.3560    0.0680    3.6590 os        1 KRC     -0.201200
      8 C8          0.5090   -1.0320    3.7850 ca        1 KRC      0.243100
      9 C9         -0.6390   -0.9300    2.9670 ca        1 KRC     -0.204300
     10 C10         0.7920   -2.1310    4.6070 ca        1 KRC     -0.294600
     11 C11        -0.1800   -3.1770    4.5860 ca        1 KRC      0.243100
     12 C12        -1.3330   -3.0950    3.8130 ca        1 KRC     -0.320000
     13 C13        -1.5830   -1.9580    3.0040 ca        1 KRC      0.297100
     14 O14        -1.3490   -0.4710    0.1300 o         1 KRC     -0.494100
     15 O15        -2.7240   -1.8110    2.2870 oh        1 KRC     -0.434100
     16 O16         0.1070   -4.2570    5.3880 os        1 KRC     -0.381900
     17 C17         1.9820   -2.1030    5.4410 c         1 KRC      0.595700
     18 N18         2.6580   -3.4360    5.6740 n4        1 KRC     -0.667800
     19 C19        -1.6490    1.3350    2.8190 c3        1 KRC     -0.083100
     20 O20         2.5180   -1.1320    5.9610 o         1 KRC     -0.426100
     21 C21        -0.5680    1.9400   -1.2830 c         1 KRC      0.603300
     22 O22         1.4290    3.3580    0.0850 oh        1 KRC     -0.447100
     23 C23        -2.0450    2.0830   -1.4480 c3        1 KRC     -0.198100
     24 O24         0.2300    2.1110   -2.2070 o         1 KRC     -0.500100
     25 C25        -0.9040   -5.2620    5.5250 c3        1 KRC      0.116700
     26 C26         4.1210   -3.3240    5.9800 c3        1 KRC      0.173100
     27 C27         4.7010   -4.6660    6.2740 ca        1 KRC     -0.182300
     28 C28         5.4220   -5.3490    5.3060 ca        1 KRC     -0.006300
     29 C29         6.0190   -6.5960    5.6280 ca        1 KRC     -0.146000
     30 C30         5.8750   -7.1440    6.8760 ca        1 KRC     -0.059000
     31 C31         5.1220   -6.4740    7.8780 ca        1 KRC     -0.050000
     32 C32         4.5290   -5.2180    7.5820 ca        1 KRC     -0.011000
     33 C33         4.9620   -7.0450    9.1710 ca        1 KRC     -0.091000
     34 C34         4.2400   -6.3910   10.1380 ca        1 KRC     -0.125000
     35 C35         3.6530   -5.1360    9.8520 ca        1 KRC     -0.082000
     36 C36         3.7920   -4.5660    8.6090 ca        1 KRC     -0.177000
     37 C37         5.6120   -4.8410    3.9160 c3        1 KRC     -0.053100
     38 C38         6.8270   -3.9510    3.7990 c3        1 KRC     -0.096100
     39 H3          2.5200    2.1150    2.2270 ha        1 KRC      0.175000
     40 H12        -2.0740   -3.9090    3.8180 ha        1 KRC      0.168000
     41 HO15       -3.2340   -2.6390    2.3190 ho        1 KRC      0.448000
     42 HN18        2.5220   -4.0270    4.8460 hn        1 KRC      0.461800
     43 H19        -1.5770    2.3360    2.3300 hc        1 KRC      0.065367
     44 H19A       -2.6610    0.9020    2.6240 hc        1 KRC      0.065367
     45 H19B       -1.5090    1.4560    3.9190 hc        1 KRC      0.065367
     46 HO22        2.2160    3.6520    0.5710 ho        1 KRC      0.438000
     47 H23        -2.5320    1.0860   -1.3080 hc        1 KRC      0.072367
     48 H23A       -2.2860    2.4650   -2.4700 hc        1 KRC      0.072367
     49 H23B       -2.4490    2.7950   -0.6880 hc        1 KRC      0.072367
     50 H25        -1.0720   -5.7720    4.5460 h1        1 KRC      0.069033
     51 H25A       -1.8490   -4.8120    5.9160 h1        1 KRC      0.069033
     52 H25B       -0.4580   -5.9670    6.2730 h1        1 KRC      0.069033
     53 H26         4.2410   -2.6240    6.8600 hx        1 KRC      0.115200
     54 H26A        4.6180   -2.8340    5.0940 hx        1 KRC      0.115200
     55 H29         6.6070   -7.1170    4.8540 ha        1 KRC      0.156000
     56 H30         6.3420   -8.1120    7.1240 ha        1 KRC      0.155000
     57 H33         5.4340   -8.0190    9.3790 ha        1 KRC      0.152000
     58 H34         4.1160   -6.8270   11.1420 ha        1 KRC      0.155000
     59 H35         3.0890   -4.6180   10.6440 ha        1 KRC      0.148000
     60 H36         3.3470   -3.5770    8.4290 ha        1 KRC      0.115000
     61 H37         5.7320   -5.7150    3.2170 hc        1 KRC      0.048200
     62 H37A        4.6980   -4.2860    3.5720 hc        1 KRC      0.048200
     63 H38         7.7500   -4.5090    4.0920 hc        1 KRC      0.050033
     64 H38A        6.9440   -3.6050    2.7430 hc        1 KRC      0.050033
     65 H38B        6.7370   -3.0550    4.4590 hc        1 KRC      0.050033
     66 H182        2.1830   -3.9060    6.4590 hn        1 KRC      0.461800
@<TRIPOS>BOND
     1    1    2 2   
     2    1    6 1   
     3    1   21 1   
     4    2    3 1   
     5    2   22 1   
     6    3    4 2   
     7    3   39 1   
     8    4    5 1   
     9    4    7 1   
    10    5    6 1   
    11    5    9 1   
    12    5   19 1   
    13    6   14 2   
    14    7    8 1   
    15    8    9 ar  
    16    8   10 ar  
    17    9   13 ar  
    18   10   11 ar  
    19   10   17 1   
    20   11   12 ar  
    21   11   16 1   
    22   12   13 ar  
    23   12   40 1   
    24   13   15 1   
    25   15   41 1   
    26   16   25 1   
    27   17   18 1   
    28   17   20 2   
    29   18   26 1   
    30   18   42 1   
    31   18   66 1   
    32   19   43 1   
    33   19   44 1   
    34   19   45 1   
    35   21   23 1   
    36   21   24 2   
    37   22   46 1   
    38   23   47 1   
    39   23   48 1   
    40   23   49 1   
    41   25   50 1   
    42   25   51 1   
    43   25   52 1   
    44   26   27 1   
    45   26   53 1   
    46   26   54 1   
    47   27   28 ar  
    48   27   32 ar  
    49   28   29 ar  
    50   28   37 1   
    51   29   30 ar  
    52   29   55 1   
    53   30   31 ar  
    54   30   56 1   
    55   31   32 ar  
    56   31   33 ar  
    57   32   36 ar  
    58   33   34 ar  
    59   33   57 1   
    60   34   35 ar  
    61   34   58 1   
    62   35   36 ar  
    63   35   59 1   
    64   36   60 1   
    65   37   38 1   
    66   37   61 1   
    67   37   62 1   
    68   38   63 1   
    69   38   64 1   
    70   38   65 1   
@<TRIPOS>SUBSTRUCTURE
     1 KRC         1 TEMP              0 ****  ****    0 ROOT
