@<TRIPOS>MOLECULE
KRC
   65    69     1     0     0
SMALL
bcc


@<TRIPOS>ATOM
      1 C1         -4.8600   -1.3690    0.7840 ce        1 KRC     -0.374400
      2 C2         -4.2270   -2.3980    0.1350 cf        1 KRC      0.257100
      3 C3         -2.9660   -2.2100   -0.5680 cf        1 KRC     -0.257000
      4 C4         -2.5820   -0.9390   -0.7850 c2        1 KRC      0.143900
      5 C5         -3.4370    0.2850   -0.4830 c3        1 KRC     -0.074500
      6 C6         -4.3420    0.0020    0.7080 c         1 KRC      0.629300
      7 O7         -1.2970   -0.5780   -1.1950 os        1 KRC     -0.187200
      8 C8         -1.1600    0.7860   -0.8760 ca        1 KRC      0.202100
      9 C9         -2.3700    1.3410   -0.3760 ca        1 KRC     -0.273300
     10 C10         0.0260    1.4880   -1.0160 ca        1 KRC     -0.203600
     11 C11        -0.0180    2.8500   -0.6040 ca        1 KRC      0.212100
     12 C12        -1.1810    3.4340   -0.1040 ca        1 KRC     -0.273000
     13 C13        -2.3720    2.6770    0.0100 ca        1 KRC      0.258100
     14 O14        -4.6810    0.9090    1.4790 o         1 KRC     -0.555100
     15 O15        -3.4560    3.3530    0.4850 oh        1 KRC     -0.489100
     16 O16         1.1690    3.5370   -0.7240 os        1 KRC     -0.324900
     17 C17         1.2280    0.8360   -1.6080 c         1 KRC      0.701700
     18 N18         2.4210    0.9940   -0.9380 n         1 KRC     -0.554900
     19 C19        -4.3500    0.5980   -1.6710 c3        1 KRC     -0.083100
     20 O20         1.1490    0.1720   -2.6620 o         1 KRC     -0.606100
     21 C21        -6.0930   -1.6020    1.5770 c         1 KRC      0.609300
     22 O22        -4.7450   -3.6560    0.2460 oh        1 KRC     -0.464100
     23 C23        -5.9820   -1.3280    3.0420 c3        1 KRC     -0.197100
     24 O24        -7.1360   -1.9970    1.0500 o         1 KRC     -0.520100
     25 C25         1.1260    4.9400   -0.4700 c3        1 KRC      0.111700
     26 C26         3.6380    0.3490   -1.3490 c3        1 KRC      0.132300
     27 C27         4.1230   -0.7070   -0.3890 ca        1 KRC     -0.103300
     28 C28         3.8960   -2.0480   -0.6410 ca        1 KRC     -0.043300
     29 C29         4.4100   -3.0310    0.2510 ca        1 KRC     -0.130000
     30 C30         5.1110   -2.6710    1.3700 ca        1 KRC     -0.112000
     31 C31         5.3370   -1.2990    1.6660 ca        1 KRC     -0.044000
     32 C32         4.8390   -0.3060    0.7830 ca        1 KRC     -0.019000
     33 C33         6.0520   -0.9150    2.8330 ca        1 KRC     -0.112000
     34 C34         6.2640    0.4110    3.1190 ca        1 KRC     -0.133000
     35 C35         5.7690    1.4070    2.2450 ca        1 KRC     -0.124000
     36 C36         5.0770    1.0600    1.1100 ca        1 KRC     -0.131000
     37 C37         3.1220   -2.5400   -1.8180 c3        1 KRC     -0.058100
     38 C38         4.0150   -2.8180   -3.0040 c3        1 KRC     -0.086100
     39 H3         -2.3490   -3.0790   -0.8290 ha        1 KRC      0.170000
     40 H12        -1.2120    4.4850    0.2140 ha        1 KRC      0.166000
     41 HO15       -4.1770    2.7200    0.6520 ho        1 KRC      0.459000
     42 HN18        2.4360    1.5130   -0.0920 hn        1 KRC      0.319500
     43 H19        -5.0860   -0.2280   -1.8240 hc        1 KRC      0.062033
     44 H19A       -4.9010    1.5480   -1.4690 hc        1 KRC      0.062033
     45 H19B       -3.7400    0.7220   -2.5980 hc        1 KRC      0.062033
     46 HO22       -4.2050   -4.2620   -0.2870 ho        1 KRC      0.436000
     47 H23        -5.7380   -0.2470    3.2000 hc        1 KRC      0.070700
     48 H23A       -6.9410   -1.5690    3.5590 hc        1 KRC      0.070700
     49 H23B       -5.1630   -1.9480    3.4810 hc        1 KRC      0.070700
     50 H25         2.1660    5.2740   -0.7160 h1        1 KRC      0.053700
     51 H25A        0.3820    5.4400   -1.1360 h1        1 KRC      0.053700
     52 H25B        0.8910    5.1330    0.6050 h1        1 KRC      0.053700
     53 H26         3.4840   -0.1020   -2.3730 h1        1 KRC      0.069700
     54 H26A        4.4410    1.1380   -1.4580 h1        1 KRC      0.069700
     55 H29         4.2310   -4.0930    0.0210 ha        1 KRC      0.134000
     56 H30         5.5070   -3.4320    2.0590 ha        1 KRC      0.133000
     57 H33         6.4300   -1.7040    3.5010 ha        1 KRC      0.132000
     58 H34         6.8160    0.7120    4.0210 ha        1 KRC      0.133000
     59 H35         5.9480    2.4650    2.4870 ha        1 KRC      0.131000
     60 H36         4.7050    1.8520    0.4450 ha        1 KRC      0.130000
     61 H37         2.5860   -3.4860   -1.5320 hc        1 KRC      0.063200
     62 H37A        2.3280   -1.7970   -2.1080 hc        1 KRC      0.063200
     63 H38         3.4050   -3.2030   -3.8560 hc        1 KRC      0.035700
     64 H38A        4.5360   -1.8880   -3.3350 hc        1 KRC      0.035700
     65 H38B        4.7880   -3.5810   -2.7450 hc        1 KRC      0.035700
@<TRIPOS>BOND
     1    1    2 2   
     2    1    6 1   
     3    1   21 1   
     4    2    3 1   
     5    2   22 1   
     6    3    4 2   
     7    3   39 1   
     8    4    5 1   
     9    4    7 1   
    10    5    6 1   
    11    5    9 1   
    12    5   19 1   
    13    6   14 2   
    14    7    8 1   
    15    8    9 ar  
    16    8   10 ar  
    17    9   13 ar  
    18   10   11 ar  
    19   10   17 1   
    20   11   12 ar  
    21   11   16 1   
    22   12   13 ar  
    23   12   40 1   
    24   13   15 1   
    25   15   41 1   
    26   16   25 1   
    27   17   18 1   
    28   17   20 2   
    29   18   26 1   
    30   18   42 1   
    31   19   43 1   
    32   19   44 1   
    33   19   45 1   
    34   21   23 1   
    35   21   24 2   
    36   22   46 1   
    37   23   47 1   
    38   23   48 1   
    39   23   49 1   
    40   25   50 1   
    41   25   51 1   
    42   25   52 1   
    43   26   27 1   
    44   26   53 1   
    45   26   54 1   
    46   27   28 ar  
    47   27   32 ar  
    48   28   29 ar  
    49   28   37 1   
    50   29   30 ar  
    51   29   55 1   
    52   30   31 ar  
    53   30   56 1   
    54   31   32 ar  
    55   31   33 ar  
    56   32   36 ar  
    57   33   34 ar  
    58   33   57 1   
    59   34   35 ar  
    60   34   58 1   
    61   35   36 ar  
    62   35   59 1   
    63   36   60 1   
    64   37   38 1   
    65   37   61 1   
    66   37   62 1   
    67   38   63 1   
    68   38   64 1   
    69   38   65 1   
@<TRIPOS>SUBSTRUCTURE
     1 KRC         1 TEMP              0 ****  ****    0 ROOT
