@<TRIPOS>MOLECULE
KRC
   66    70     1     0     0
SMALL
bcc


@<TRIPOS>ATOM
      1 C1         -0.0610    1.5470    0.0400 ce        1 KRC     -0.348400
      2 C2          1.0140    2.1890    0.5940 cf        1 KRC      0.232100
      3 C3          1.6320    1.7190    1.8340 cf        1 KRC     -0.192000
      4 C4          0.9130    0.8520    2.5610 c2        1 KRC      0.085900
      5 C5         -0.5230    0.4500    2.2590 c3        1 KRC     -0.062500
      6 C6         -0.7130    0.4280    0.7430 c         1 KRC      0.614300
      7 O7          1.4540    0.0720    3.6090 os        1 KRC     -0.201200
      8 C8          0.5630   -0.9830    3.7940 ca        1 KRC      0.243100
      9 C9         -0.6080   -0.8500    3.0130 ca        1 KRC     -0.204300
     10 C10         0.8240   -2.0710    4.6370 ca        1 KRC     -0.294600
     11 C11        -0.1950   -3.0720    4.6780 ca        1 KRC      0.243100
     12 C12        -1.3690   -2.9570    3.9430 ca        1 KRC     -0.320000
     13 C13        -1.5960   -1.8310    3.1120 ca        1 KRC      0.297100
     14 O14        -1.3960   -0.4340    0.1910 o         1 KRC     -0.494100
     15 O15        -2.7540   -1.6500    2.4290 oh        1 KRC     -0.434100
     16 O16         0.0710   -4.1430    5.5000 os        1 KRC     -0.381900
     17 C17         2.0430   -2.0770    5.4290 c         1 KRC      0.595700
     18 N18         2.6660   -3.4340    5.6740 ny        1 KRC     -0.667800
     19 C19        -1.5180    1.4550    2.8360 c3        1 KRC     -0.083100
     20 O20         2.6400   -1.1190    5.9030 o         1 KRC     -0.426100
     21 C21        -0.5570    1.9000   -1.3150 c         1 KRC      0.603300
     22 O22         1.5500    3.2600   -0.0580 oh        1 KRC     -0.447100
     23 C23        -2.0300    2.1080   -1.4350 c3        1 KRC     -0.198100
     24 O24         0.2150    2.0090   -2.2710 o         1 KRC     -0.500100
     25 C25        -0.9790   -5.0950    5.7000 c3        1 KRC      0.116700
     26 C26         4.1420   -3.3800    5.9310 c3        1 KRC      0.173100
     27 C27         4.6710   -4.7410    6.2380 ca        1 KRC     -0.182300
     28 C28         5.3290   -5.4770    5.2640 ca        1 KRC     -0.006300
     29 C29         5.8800   -6.7430    5.5970 ca        1 KRC     -0.146000
     30 C30         5.7530   -7.2550    6.8620 ca        1 KRC     -0.059000
     31 C31         5.0630   -6.5290    7.8710 ca        1 KRC     -0.050000
     32 C32         4.5180   -5.2550    7.5640 ca        1 KRC     -0.011000
     33 C33         4.9200   -7.0630    9.1810 ca        1 KRC     -0.091000
     34 C34         4.2600   -6.3560   10.1550 ca        1 KRC     -0.125000
     35 C35         3.7210   -5.0830    9.8580 ca        1 KRC     -0.082000
     36 C36         3.8440   -4.5480    8.5980 ca        1 KRC     -0.177000
     37 C37         5.4960   -5.0090    3.8570 c3        1 KRC     -0.053100
     38 C38         6.7450   -4.1780    3.6810 c3        1 KRC     -0.096100
     39 H3          2.6590    2.0250    2.0800 ha        1 KRC      0.175000
     40 H12        -2.1460   -3.7350    3.9970 ha        1 KRC      0.168000
     41 HO15       -3.2990   -2.4530    2.5030 ho        1 KRC      0.448000
     42 HN18        2.4770   -4.0370    4.8660 hn        1 KRC      0.461800
     43 H19        -1.3340    1.5990    3.9270 hc        1 KRC      0.065367
     44 H19A       -1.4180    2.4380    2.3170 hc        1 KRC      0.065367
     45 H19B       -2.5550    1.0640    2.6880 hc        1 KRC      0.065367
     46 HO22        2.3670    3.5290    0.3930 ho        1 KRC      0.438000
     47 H23        -2.3740    2.8570   -0.6810 hc        1 KRC      0.072367
     48 H23A       -2.2900    2.4730   -2.4580 hc        1 KRC      0.072367
     49 H23B       -2.5580    1.1380   -1.2500 hc        1 KRC      0.072367
     50 H25        -1.2040   -5.6230    4.7420 h1        1 KRC      0.069033
     51 H25A       -0.5390   -5.8000    6.4520 h1        1 KRC      0.069033
     52 H25B       -1.8880   -4.5910    6.1100 h1        1 KRC      0.069033
     53 H26         4.3220   -2.6680    6.7900 hx        1 KRC      0.115200
     54 H26A        4.6310   -2.9330    5.0180 hx        1 KRC      0.115200
     55 H29         6.4190   -7.3060    4.8180 ha        1 KRC      0.156000
     56 H30         6.1840   -8.2370    7.1180 ha        1 KRC      0.155000
     57 H33         5.3550   -8.0530    9.3980 ha        1 KRC      0.152000
     58 H34         4.1500   -6.7640   11.1730 ha        1 KRC      0.155000
     59 H35         3.2060   -4.5220   10.6550 ha        1 KRC      0.148000
     60 H36         3.4380   -3.5430    8.4090 ha        1 KRC      0.115000
     61 H37         4.5970   -4.4210    3.5300 hc        1 KRC      0.048200
     62 H37A        5.5540   -5.9030    3.1760 hc        1 KRC      0.048200
     63 H38         6.8430   -3.8610    2.6140 hc        1 KRC      0.050033
     64 H38A        6.7160   -3.2640    4.3220 hc        1 KRC      0.050033
     65 H38B        7.6510   -4.7710    3.9590 hc        1 KRC      0.050033
     66 H182        2.1960   -3.8620    6.4860 hn        1 KRC      0.461800
@<TRIPOS>BOND
     1    1    2 2   
     2    1    6 1   
     3    1   21 1   
     4    2    3 1   
     5    2   22 1   
     6    3    4 2   
     7    3   39 1   
     8    4    5 1   
     9    4    7 1   
    10    5    6 1   
    11    5    9 1   
    12    5   19 1   
    13    6   14 2   
    14    7    8 1   
    15    8    9 ar  
    16    8   10 ar  
    17    9   13 ar  
    18   10   11 ar  
    19   10   17 1   
    20   11   12 ar  
    21   11   16 1   
    22   12   13 ar  
    23   12   40 1   
    24   13   15 1   
    25   15   41 1   
    26   16   25 1   
    27   17   18 1   
    28   17   20 2   
    29   18   26 1   
    30   18   42 1   
    31   18   66 1   
    32   19   43 1   
    33   19   44 1   
    34   19   45 1   
    35   21   23 1   
    36   21   24 2   
    37   22   46 1   
    38   23   47 1   
    39   23   48 1   
    40   23   49 1   
    41   25   50 1   
    42   25   51 1   
    43   25   52 1   
    44   26   27 1   
    45   26   53 1   
    46   26   54 1   
    47   27   28 ar  
    48   27   32 ar  
    49   28   29 ar  
    50   28   37 1   
    51   29   30 ar  
    52   29   55 1   
    53   30   31 ar  
    54   30   56 1   
    55   31   32 ar  
    56   31   33 ar  
    57   32   36 ar  
    58   33   34 ar  
    59   33   57 1   
    60   34   35 ar  
    61   34   58 1   
    62   35   36 ar  
    63   35   59 1   
    64   36   60 1   
    65   37   38 1   
    66   37   61 1   
    67   37   62 1   
    68   38   63 1   
    69   38   64 1   
    70   38   65 1   
@<TRIPOS>SUBSTRUCTURE
     1 KRC         1 TEMP              0 ****  ****    0 ROOT
