@<TRIPOS>MOLECULE
KRG
   33    34     1     0     0
SMALL
bcc


@<TRIPOS>ATOM
      1 CAA         4.3830    3.3170   -0.0090 c3        1 KRG     -0.097100
      2 CAB         3.7650    1.9400    0.0750 c3        1 KRG      0.128400
      3 OAC         2.3500    2.1280   -0.0210 os        1 KRG     -0.352900
      4 CAD         1.5940    0.9650    0.0580 ca        1 KRG      0.086100
      5 CAE         2.1310   -0.3210    0.1870 ca        1 KRG     -0.161000
      6 CAF         1.2710   -1.4190    0.2490 ca        1 KRG     -0.100600
      7 CAG        -0.1120   -1.2270    0.1800 ca        1 KRG     -0.117000
      8 CAH        -0.6510    0.0600    0.0580 ca        1 KRG     -0.032000
      9 CAI         0.2080    1.1680   -0.0060 ca        1 KRG     -0.169000
     10 CAJ        -2.0770    0.2670   -0.0090 cc        1 KRG     -0.222600
     11 CAK        -3.1290   -0.4830    0.7010 cc        1 KRG      0.341600
     12 CAL        -2.8990   -1.6110    1.6220 c3        1 KRG     -0.139400
     13 NAM        -4.3290    0.0340    0.3690 nd        1 KRG     -0.396300
     14 OAN        -4.1600    1.0310   -0.4770 os        1 KRG     -0.142100
     15 CAO        -2.7780    1.2140   -0.7400 cd        1 KRG      0.240000
     16 CAP        -2.4240    2.2850   -1.6680 c3        1 KRG     -0.130400
     17 CAQ         1.8440   -2.8240    0.4000 c         1 KRG      0.909200
     18 OAR         3.1010   -2.9480    0.3950 o         1 KRG     -0.825800
     19 OAS         1.0300   -3.7810    0.5250 o         1 KRG     -0.825800
     20 HAA         4.1140    3.8080   -0.9740 hc        1 KRG      0.037367
     21 HAAA        4.0150    3.9610    0.8250 hc        1 KRG      0.037367
     22 HAAB        5.4920    3.2270    0.0600 hc        1 KRG      0.037367
     23 HAB         4.1140    1.2890   -0.7700 h1        1 KRG      0.042700
     24 HABA        4.0140    1.4440    1.0500 h1        1 KRG      0.042700
     25 HAE         3.2140   -0.5130    0.2410 ha        1 KRG      0.162000
     26 HAG        -0.7600   -2.1190    0.2140 ha        1 KRG      0.158000
     27 HAI        -0.1920    2.1870   -0.0980 ha        1 KRG      0.125000
     28 HAL        -3.7060   -1.6870    2.3910 hc        1 KRG      0.063700
     29 HALA       -2.8660   -2.5700    1.0430 hc        1 KRG      0.063700
     30 HALB       -1.9130   -1.4800    2.1370 hc        1 KRG      0.063700
     31 HAP        -3.2050    2.3960   -2.4600 hc        1 KRG      0.058367
     32 HAPA       -2.3370    3.2560   -1.1170 hc        1 KRG      0.058367
     33 HAPB       -1.4380    2.0560   -2.1460 hc        1 KRG      0.058367
@<TRIPOS>BOND
     1    1    2 1   
     2    1   20 1   
     3    1   21 1   
     4    1   22 1   
     5    2    3 1   
     6    2   23 1   
     7    2   24 1   
     8    3    4 1   
     9    4    5 ar  
    10    4    9 ar  
    11    5    6 ar  
    12    5   25 1   
    13    6    7 ar  
    14    6   17 1   
    15    7    8 ar  
    16    7   26 1   
    17    8    9 ar  
    18    8   10 1   
    19    9   27 1   
    20   10   11 1   
    21   10   15 2   
    22   11   12 1   
    23   11   13 2   
    24   12   28 1   
    25   12   29 1   
    26   12   30 1   
    27   13   14 1   
    28   14   15 1   
    29   15   16 1   
    30   16   31 1   
    31   16   32 1   
    32   16   33 1   
    33   17   18 1   
    34   17   19 1   
@<TRIPOS>SUBSTRUCTURE
     1 KRG         1 TEMP              0 ****  ****    0 ROOT
