@<TRIPOS>MOLECULE
KRG
   33    34     1     0     0
SMALL
bcc


@<TRIPOS>ATOM
      1 CAA         0.0150   -0.5110    0.1010 c3        1 KRG     -0.097100
      2 CAB         1.4960   -0.2240   -0.0130 c3        1 KRG      0.128400
      3 OAC         2.0290   -0.3410    1.3100 os        1 KRG     -0.352900
      4 CAD         3.3920   -0.0890    1.4200 ca        1 KRG      0.086100
      5 CAE         4.2280    0.2250    0.3430 ca        1 KRG     -0.161000
      6 CAF         5.5860    0.4510    0.5740 ca        1 KRG     -0.100600
      7 CAG         6.0980    0.3590    1.8710 ca        1 KRG     -0.117000
      8 CAH         5.2600    0.0530    2.9510 ca        1 KRG     -0.032000
      9 CAI         3.8940   -0.1770    2.7260 ca        1 KRG     -0.169000
     10 CAJ         5.7790   -0.0390    4.2940 cc        1 KRG     -0.222600
     11 CAK         6.8450    0.7780    4.9030 cc        1 KRG      0.341600
     12 CAL         7.5900    1.8540    4.2230 c3        1 KRG     -0.139400
     13 NAM         7.0210    0.3780    6.1790 nd        1 KRG     -0.396300
     14 OAN         6.1870   -0.6060    6.4510 os        1 KRG     -0.142100
     15 CAO         5.3950   -0.8980    5.3110 cd        1 KRG      0.240000
     16 CAP         4.4170   -1.9740    5.4520 c3        1 KRG     -0.130400
     17 CAQ         6.5050    0.8040   -0.5910 c         1 KRG      0.909200
     18 OAR         6.0050    0.8120   -1.7500 o         1 KRG     -0.825800
     19 OAS         7.7110    1.0710   -0.3280 o         1 KRG     -0.825800
     20 HAA        -0.1530   -1.5370    0.5060 hc        1 KRG      0.037367
     21 HAAA       -0.4720    0.2210    0.7880 hc        1 KRG      0.037367
     22 HAAB       -0.4520   -0.4330   -0.9080 hc        1 KRG      0.037367
     23 HAB         1.6770    0.8130   -0.4020 h1        1 KRG      0.042700
     24 HABA        2.0000   -0.9660   -0.6870 h1        1 KRG      0.042700
     25 HAE         3.8630    0.3020   -0.6930 ha        1 KRG      0.162000
     26 HAG         7.1780    0.5270    2.0130 ha        1 KRG      0.158000
     27 HAI         3.2180   -0.4150    3.5570 ha        1 KRG      0.125000
     28 HAL         8.4800    1.4220    3.6970 hc        1 KRG      0.063700
     29 HALA        7.9460    2.6290    4.9460 hc        1 KRG      0.063700
     30 HALB        6.9330    2.3400    3.4580 hc        1 KRG      0.063700
     31 HAP         4.2010   -2.4170    4.4470 hc        1 KRG      0.058367
     32 HAPA        3.4630   -1.5720    5.8780 hc        1 KRG      0.058367
     33 HAPB        4.8030   -2.7710    6.1350 hc        1 KRG      0.058367
@<TRIPOS>BOND
     1    1    2 1   
     2    1   20 1   
     3    1   21 1   
     4    1   22 1   
     5    2    3 1   
     6    2   23 1   
     7    2   24 1   
     8    3    4 1   
     9    4    5 ar  
    10    4    9 ar  
    11    5    6 ar  
    12    5   25 1   
    13    6    7 ar  
    14    6   17 1   
    15    7    8 ar  
    16    7   26 1   
    17    8    9 ar  
    18    8   10 1   
    19    9   27 1   
    20   10   11 1   
    21   10   15 2   
    22   11   12 1   
    23   11   13 2   
    24   12   28 1   
    25   12   29 1   
    26   12   30 1   
    27   13   14 1   
    28   14   15 1   
    29   15   16 1   
    30   16   31 1   
    31   16   32 1   
    32   16   33 1   
    33   17   18 1   
    34   17   19 1   
@<TRIPOS>SUBSTRUCTURE
     1 KRG         1 TEMP              0 ****  ****    0 ROOT
