@<TRIPOS>MOLECULE
KRG
   33    34     1     0     0
SMALL
bcc


@<TRIPOS>ATOM
      1 CAA         0.0140   -0.5160    0.1050 c3        1 KRG     -0.097100
      2 CAB         1.4950   -0.2330   -0.0110 c3        1 KRG      0.128400
      3 OAC         2.0280   -0.3450    1.3120 os        1 KRG     -0.352900
      4 CAD         3.3920   -0.0950    1.4210 ca        1 KRG      0.086100
      5 CAE         4.2280    0.2130    0.3420 ca        1 KRG     -0.161000
      6 CAF         5.5860    0.4390    0.5710 ca        1 KRG     -0.100600
      7 CAG         6.0980    0.3540    1.8690 ca        1 KRG     -0.117000
      8 CAH         5.2610    0.0540    2.9510 ca        1 KRG     -0.032000
      9 CAI         3.8940   -0.1750    2.7270 ca        1 KRG     -0.169000
     10 CAJ         5.7800   -0.0300    4.2940 cc        1 KRG     -0.222600
     11 CAK         6.8460    0.7890    4.8980 cc        1 KRG      0.341600
     12 CAL         7.5920    1.8610    4.2130 c3        1 KRG     -0.139400
     13 NAM         7.0220    0.3970    6.1770 nd        1 KRG     -0.396300
     14 OAN         6.1870   -0.5850    6.4540 os        1 KRG     -0.142100
     15 CAO         5.3950   -0.8830    5.3160 cd        1 KRG      0.240000
     16 CAP         4.4160   -1.9580    5.4630 c3        1 KRG     -0.130400
     17 CAQ         6.5060    0.7840   -0.5960 c         1 KRG      0.909200
     18 OAR         6.0060    0.7870   -1.7550 o         1 KRG     -0.825800
     19 OAS         7.7120    1.0510   -0.3350 o         1 KRG     -0.825800
     20 HAA        -0.1570   -1.5400    0.5150 hc        1 KRG      0.037367
     21 HAAA       -0.4720    0.2210    0.7890 hc        1 KRG      0.037367
     22 HAAB       -0.4540   -0.4420   -0.9050 hc        1 KRG      0.037367
     23 HAB         1.6790    0.8020   -0.4040 h1        1 KRG      0.042700
     24 HABA        1.9970   -0.9790   -0.6820 h1        1 KRG      0.042700
     25 HAE         3.8630    0.2840   -0.6950 ha        1 KRG      0.162000
     26 HAG         7.1790    0.5220    2.0100 ha        1 KRG      0.158000
     27 HAI         3.2180   -0.4080    3.5600 ha        1 KRG      0.125000
     28 HAL         8.4810    1.4250    3.6880 hc        1 KRG      0.063700
     29 HALA        7.9490    2.6400    4.9300 hc        1 KRG      0.063700
     30 HALB        6.9350    2.3430    3.4450 hc        1 KRG      0.063700
     31 HAP         4.1990   -2.4050    4.4600 hc        1 KRG      0.058367
     32 HAPA        3.4620   -1.5530    5.8880 hc        1 KRG      0.058367
     33 HAPB        4.8010   -2.7520    6.1500 hc        1 KRG      0.058367
@<TRIPOS>BOND
     1    1    2 1   
     2    1   20 1   
     3    1   21 1   
     4    1   22 1   
     5    2    3 1   
     6    2   23 1   
     7    2   24 1   
     8    3    4 1   
     9    4    5 ar  
    10    4    9 ar  
    11    5    6 ar  
    12    5   25 1   
    13    6    7 ar  
    14    6   17 1   
    15    7    8 ar  
    16    7   26 1   
    17    8    9 ar  
    18    8   10 1   
    19    9   27 1   
    20   10   11 1   
    21   10   15 2   
    22   11   12 1   
    23   11   13 2   
    24   12   28 1   
    25   12   29 1   
    26   12   30 1   
    27   13   14 1   
    28   14   15 1   
    29   15   16 1   
    30   16   31 1   
    31   16   32 1   
    32   16   33 1   
    33   17   18 1   
    34   17   19 1   
@<TRIPOS>SUBSTRUCTURE
     1 KRG         1 TEMP              0 ****  ****    0 ROOT
