@<TRIPOS>MOLECULE
KRH
   59    53     1     0     0
SMALL
bcc


@<TRIPOS>ATOM
      1 N1         -1.0140    0.2440   -4.1020 n         1 KRH     -0.322000
      2 C2          0.4390    0.3500   -4.0830 c2        1 KRH      0.407000
      3 N3          1.1540    0.2580   -2.8160 n         1 KRH     -0.236000
      4 C4          0.3910    0.2060   -1.5330 c2        1 KRH      0.056000
      5 C5         -0.9710    0.2450   -1.5460 c1        1 KRH     -0.285000
      6 C6         -1.7300    0.2460   -2.8890 c1        1 KRH      0.403000
      7 C7          2.5700    0.1310   -2.8020 c3        1 KRH     -0.013000
      8 C8          3.2060    1.4960   -2.9950 c3        1 KRH     -0.128000
      9 C9          4.4860    1.5620   -2.2400 c3        1 KRH     -0.209000
     10 C10         3.4760    1.7050   -4.4680 c3        1 KRH     -0.209000
     11 O11         1.0560    0.4380   -5.1260 o         1 KRH     -0.361000
     12 C12        -1.7210    0.2910   -5.3440 c3        1 KRH     -0.075000
     13 O13        -2.9270    0.3040   -2.8990 o         1 KRH     -0.356000
     14 C14        -1.4110    0.1810   -0.2410 c1        1 KRH      0.128000
     15 N15        -0.3270    0.1030    0.5630 n2        1 KRH     -0.105000
     16 N16         0.7950    0.1180   -0.2330 n2        1 KRH     -0.101000
     17 C17        -2.8940    0.2060    0.1930 c1        1 KRH     -0.122000
     18 N20        -4.9350   -0.4600    0.6670 n2        1 KRH     -0.126000
     19 C21        -4.8570    0.8960    0.8500 c1        1 KRH     -0.081000
     20 C23         0.0470    0.2950    2.0030 c2        1 KRH      0.028000
     21 C24         0.2320   -1.0640    2.6670 c2        1 KRH     -0.096000
     22 C25         0.4590   -2.1080    1.7560 c2        1 KRH     -0.103000
     23 C26         0.7860   -3.3820    2.2190 c1        1 KRH     -0.128000
     24 C27         0.8850   -3.6160    3.5630 c1        1 KRH     -0.110000
     25 C28         0.6510   -2.5430    4.5080 c1        1 KRH     -0.036000
     26 C29         0.3350   -1.3060    4.0590 c1        1 KRH     -0.026000
     27 N29        -3.5880    1.2890    0.5520 n2        1 KRH     -0.126000
     28 C30         0.1090   -0.2390    4.9940 c1        1 KRH     -0.131000
     29 C31         0.2160   -0.4760    6.3590 c1        1 KRH     -0.122000
     30 C32         0.5380   -1.7380    6.8160 c1        1 KRH     -0.122000
     31 C33         0.7590   -2.7850    5.8980 c1        1 KRH     -0.110000
     32 C34        -3.7430   -0.8900    0.2660 c1        1 KRH     -0.122000
     33 C35        -3.7540    2.6770    0.8020 c2        1 KRH     -0.082000
     34 H7          2.8460   -0.4520   -3.5150 h1        1 KRH      0.117500
     35 H7A         2.8620   -0.2550   -1.9220 h1        1 KRH      0.117500
     36 H8          2.5790    2.2160   -2.6590 hc        1 KRH      0.099000
     37 H9          5.1290    0.9920   -2.6530 hc        1 KRH      0.077833
     38 H9A         4.8110    2.4700   -2.2450 hc        1 KRH      0.077833
     39 H9B         4.3400    1.2750   -1.3250 hc        1 KRH      0.077833
     40 H10         4.0670    2.4990   -4.5930 hc        1 KRH      0.077833
     41 H10A        2.6190    1.8520   -4.9420 hc        1 KRH      0.077833
     42 H10B        3.9350    0.8750   -4.8480 hc        1 KRH      0.077833
     43 H12        -2.5950    0.7030   -5.2040 h1        1 KRH      0.101000
     44 H12A       -1.8440   -0.6490   -5.6990 h1        1 KRH      0.101000
     45 H12B       -1.2260    0.8060   -5.9740 h1        1 KRH      0.101000
     46 H21        -5.5630    1.4600    1.1330 DU        1 KRH      0.197000
     47 H23         0.9020    0.8100    2.0600 ha        1 KRH      0.127000
     48 H23A       -0.6990    0.8150    2.4880 ha        1 KRH      0.127000
     49 H25         0.3870   -1.9360    0.7620 ha        1 KRH      0.144000
     50 H26         0.9420   -4.0890    1.5990 ha        1 KRH      0.139000
     51 H27         1.1320   -4.5720    3.9090 ha        1 KRH      0.135500
     52 H30        -0.1160    0.6450    4.6720 ha        1 KRH      0.128000
     53 H31         0.0600    0.2700    7.0110 ha        1 KRH      0.135500
     54 H32         0.6110   -1.9000    7.7500 ha        1 KRH      0.135500
     55 H33         0.9750   -3.6310    6.2050 ha        1 KRH      0.135500
     56 H34        -3.4980   -1.8500    0.0530 DU        1 KRH      0.197000
     57 H35        -3.9760    2.8080    1.7090 ha        1 KRH      0.106000
     58 H35A       -2.8940    3.1630    0.5930 ha        1 KRH      0.106000
     59 H35B       -4.4990    3.0380    0.2170 ha        1 KRH      0.106000
@<TRIPOS>BOND
     1    1    2 1   
     2    1    6 1   
     3    1   12 1   
     4    2    3 1   
     5    2   11 1   
     6    3    4 1   
     7    3    7 1   
     8    4    5 1   
     9    4   16 1   
    10    5   14 1   
    11    6   13 1   
    12    7    8 1   
    13    7   34 1   
    14    7   35 1   
    15    8    9 1   
    16    8   10 1   
    17    8   36 1   
    18    9   37 1   
    19    9   38 1   
    20    9   39 1   
    21   10   40 1   
    22   10   41 1   
    23   10   42 1   
    24   12   43 1   
    25   12   44 1   
    26   12   45 1   
    27   14   15 1   
    28   15   16 1   
    29   17   27 1   
    30   17   32 1   
    31   18   19 1   
    32   18   32 1   
    33   19   27 1   
    34   20   21 1   
    35   20   47 1   
    36   20   48 1   
    37   21   22 1   
    38   21   26 1   
    39   22   23 1   
    40   22   49 1   
    41   23   50 1   
    42   24   25 1   
    43   24   51 1   
    44   25   31 1   
    45   26   28 1   
    46   28   52 1   
    47   29   30 1   
    48   29   53 1   
    49   30   54 1   
    50   31   55 1   
    51   33   57 1   
    52   33   58 1   
    53   33   59 1   
@<TRIPOS>SUBSTRUCTURE
     1 KRH         1 TEMP              0 ****  ****    0 ROOT
