@<TRIPOS>MOLECULE
KRH
   59    63     1     0     0
SMALL
bcc


@<TRIPOS>ATOM
      1 N1          3.5910   -1.1080    1.0990 n         1 KRH     -0.493400
      2 C2          3.6190    0.3090    1.0550 c         1 KRH      0.815500
      3 N3          2.4940    1.0420    0.5990 n         1 KRH     -0.418300
      4 C4          1.4210    0.3340    0.0680 cc        1 KRH      0.464200
      5 C5          1.3860   -1.1260    0.1140 cc        1 KRH     -0.364900
      6 C6          2.4880   -1.8810    0.6730 c         1 KRH      0.767100
      7 C7          2.5750    2.4830    0.4660 c3        1 KRH      0.103000
      8 C8          2.9430    3.0020   -0.9340 c3        1 KRH     -0.089700
      9 C9          2.6170    4.4790   -1.0020 c3        1 KRH     -0.091100
     10 C10         4.4070    2.7680   -1.2340 c3        1 KRH     -0.091100
     11 O11         4.6340    0.9180    1.4590 o         1 KRH     -0.636500
     12 C12         4.7640   -1.7560    1.6370 c3        1 KRH      0.080300
     13 O13         2.5100   -3.1180    0.8080 o         1 KRH     -0.631500
     14 C14         0.1620   -1.4790   -0.4950 cd        1 KRH      0.093700
     15 N15        -0.4520   -0.2720   -0.8620 na        1 KRH      0.114400
     16 N16         0.2790    0.8120   -0.5280 nd        1 KRH     -0.532800
     17 C17        -0.3690   -2.7820   -0.7950 cd        1 KRH     -0.195600
     18 N20        -1.1990   -4.6120   -1.9120 nc        1 KRH     -0.667000
     19 C21        -1.0140   -4.9210   -0.6050 cd        1 KRH      0.404400
     20 C23        -1.7970   -0.1510   -1.4200 c3        1 KRH      0.096600
     21 C24        -2.8420    0.2730   -0.4290 ca        1 KRH     -0.108300
     22 C25        -3.5380   -0.7070    0.2490 ca        1 KRH     -0.102000
     23 C26        -4.5670   -0.3720    1.1570 ca        1 KRH     -0.138000
     24 C27        -4.8880    0.9440    1.3770 ca        1 KRH     -0.098000
     25 C28        -4.1900    1.9790    0.6990 ca        1 KRH     -0.043000
     26 C29        -3.1480    1.6500   -0.2110 ca        1 KRH     -0.008000
     27 N29        -0.5150   -3.8370    0.1220 na        1 KRH     -0.156900
     28 C30        -2.4640    2.7120   -0.8660 ca        1 KRH     -0.116000
     29 C31        -2.8040    4.0220   -0.6300 ca        1 KRH     -0.123000
     30 C32        -3.8450    4.3440    0.2720 ca        1 KRH     -0.126000
     31 C33        -4.5210    3.3440    0.9230 ca        1 KRH     -0.117000
     32 C34        -0.8030   -3.2920   -2.0470 cc        1 KRH      0.325200
     33 C35        -0.1600   -3.8470    1.5040 c3        1 KRH      0.014600
     34 H7          1.5670    2.8980    0.7550 h1        1 KRH      0.077700
     35 H7A         3.3440    2.8520    1.2040 h1        1 KRH      0.077700
     36 H8          2.3220    2.4640   -1.7040 hc        1 KRH      0.060700
     37 H9          3.1750    5.0430   -0.2150 hc        1 KRH      0.038200
     38 H9A         2.9070    4.8870   -2.0010 hc        1 KRH      0.038200
     39 H9B         1.5230    4.6480   -0.8530 hc        1 KRH      0.038200
     40 H10         5.0500    3.3480   -0.5300 hc        1 KRH      0.038200
     41 H10A        4.6640    1.6860   -1.1250 hc        1 KRH      0.038200
     42 H10B        4.6420    3.0880   -2.2780 hc        1 KRH      0.038200
     43 H12         4.6970   -2.8620    1.4580 h1        1 KRH      0.061700
     44 H12A        5.6820   -1.3460    1.1370 h1        1 KRH      0.061700
     45 H12B        4.8360   -1.5550    2.7380 h1        1 KRH      0.061700
     46 H21        -1.2210   -5.8930   -0.1420 h5        1 KRH      0.067100
     47 H23        -1.7570    0.5790   -2.2800 h1        1 KRH      0.083200
     48 H23A       -2.0670   -1.1660   -1.8350 h1        1 KRH      0.083200
     49 H25        -3.3040   -1.7710    0.0850 ha        1 KRH      0.137000
     50 H26        -5.1030   -1.1790    1.6790 ha        1 KRH      0.137000
     51 H27        -5.6890    1.2200    2.0800 ha        1 KRH      0.136000
     52 H30        -1.6390    2.4810   -1.5570 ha        1 KRH      0.144000
     53 H31        -2.2670    4.8370   -1.1390 ha        1 KRH      0.134000
     54 H32        -4.0990    5.4010    0.4420 ha        1 KRH      0.135000
     55 H33        -5.3320    3.5780    1.6300 ha        1 KRH      0.134000
     56 H34        -0.8230   -2.7800   -3.0090 h4        1 KRH      0.046100
     57 H35         0.0660   -2.8010    1.8440 h1        1 KRH      0.067367
     58 H35A       -1.0100   -4.2670    2.1060 h1        1 KRH      0.067367
     59 H35B        0.7610   -4.4760    1.6570 h1        1 KRH      0.067367
@<TRIPOS>BOND
     1    1    2 1   
     2    1    6 1   
     3    1   12 1   
     4    2    3 1   
     5    2   11 2   
     6    3    4 1   
     7    3    7 1   
     8    4    5 1   
     9    4   16 2   
    10    5    6 1   
    11    5   14 2   
    12    6   13 2   
    13    7    8 1   
    14    7   34 1   
    15    7   35 1   
    16    8    9 1   
    17    8   10 1   
    18    8   36 1   
    19    9   37 1   
    20    9   38 1   
    21    9   39 1   
    22   10   40 1   
    23   10   41 1   
    24   10   42 1   
    25   12   43 1   
    26   12   44 1   
    27   12   45 1   
    28   14   15 1   
    29   14   17 1   
    30   15   16 1   
    31   15   20 1   
    32   17   27 1   
    33   17   32 2   
    34   18   19 2   
    35   18   32 1   
    36   19   27 1   
    37   19   46 1   
    38   20   21 1   
    39   20   47 1   
    40   20   48 1   
    41   21   22 ar  
    42   21   26 ar  
    43   22   23 ar  
    44   22   49 1   
    45   23   24 ar  
    46   23   50 1   
    47   24   25 ar  
    48   24   51 1   
    49   25   26 ar  
    50   25   31 ar  
    51   26   28 ar  
    52   27   33 1   
    53   28   29 ar  
    54   28   52 1   
    55   29   30 ar  
    56   29   53 1   
    57   30   31 ar  
    58   30   54 1   
    59   31   55 1   
    60   32   56 1   
    61   33   57 1   
    62   33   58 1   
    63   33   59 1   
@<TRIPOS>SUBSTRUCTURE
     1 KRH         1 TEMP              0 ****  ****    0 ROOT
