@<TRIPOS>MOLECULE
KRH
   59    63     1     0     0
SMALL
bcc


@<TRIPOS>ATOM
      1 N1         -0.2150   -0.0840   -0.1400 n         1 KRH     -0.493400
      2 C2          1.2010   -0.1220   -0.1750 c         1 KRH      0.815500
      3 N3          1.9530   -0.2340    1.0220 n         1 KRH     -0.418300
      4 C4          1.2720   -0.1650    2.2330 cc        1 KRH      0.464200
      5 C5         -0.1890   -0.1300    2.2750 cc        1 KRH     -0.364900
      6 C6         -0.9680   -0.1200    1.0540 c         1 KRH      0.767100
      7 C7          3.4000   -0.1700    0.9780 c3        1 KRH      0.103000
      8 C8          4.0120    1.2180    1.2280 c3        1 KRH     -0.089700
      9 C9          5.4880    1.0480    1.5240 c3        1 KRH     -0.091100
     10 C10         3.8110    2.1260    0.0360 c3        1 KRH     -0.091100
     11 O11         1.7920   -0.0940   -1.2770 o         1 KRH     -0.636500
     12 C12        -0.8870   -0.0300   -1.4180 c3        1 KRH      0.080300
     13 O13        -2.2120   -0.1540    1.0010 o         1 KRH     -0.631500
     14 C14        -0.5120   -0.0780    3.6480 cd        1 KRH      0.093700
     15 N15         0.7110   -0.0840    4.3350 na        1 KRH      0.114400
     16 N16         1.7780   -0.1420    3.5100 nd        1 KRH     -0.532800
     17 C17        -1.7980    0.0500    4.2820 cd        1 KRH     -0.195600
     18 N20        -3.5580    0.8210    5.5430 nc        1 KRH     -0.667000
     19 C21        -3.9500   -0.2620    4.8260 cd        1 KRH      0.404400
     20 C23         0.8560   -0.1580    5.7870 c3        1 KRH      0.096600
     21 C24         1.2050   -1.5240    6.3050 ca        1 KRH     -0.108300
     22 C25         0.1770   -2.3700    6.6660 ca        1 KRH     -0.102000
     23 C26         0.4430   -3.6480    7.2050 ca        1 KRH     -0.138000
     24 C27         1.7390   -4.0660    7.3770 ca        1 KRH     -0.098000
     25 C28         2.8220   -3.2220    7.0120 ca        1 KRH     -0.043000
     26 C29         2.5620   -1.9370    6.4620 ca        1 KRH     -0.008000
     27 N29        -2.9110   -0.7740    4.0450 na        1 KRH     -0.156900
     28 C30         3.6710   -1.1210    6.0990 ca        1 KRH     -0.116000
     29 C31         4.9590   -1.5600    6.2810 ca        1 KRH     -0.123000
     30 C32         5.2130   -2.8370    6.8350 ca        1 KRH     -0.126000
     31 C33         4.1670   -3.6500    7.1910 ca        1 KRH     -0.117000
     32 C34        -2.2290    1.0280    5.2150 cc        1 KRH      0.325200
     33 C35        -3.0090   -1.8710    3.1380 c3        1 KRH      0.014600
     34 H7          3.7870   -0.8860    1.7590 h1        1 KRH      0.077700
     35 H7A         3.7270   -0.5330   -0.0400 h1        1 KRH      0.077700
     36 H8          3.5210    1.6840    2.1280 hc        1 KRH      0.060700
     37 H9          5.6380    0.4380    2.4470 hc        1 KRH      0.038200
     38 H9A         5.9630    2.0470    1.6770 hc        1 KRH      0.038200
     39 H9B         6.0040    0.5390    0.6730 hc        1 KRH      0.038200
     40 H10         4.2010    3.1480    0.2590 hc        1 KRH      0.038200
     41 H10A        4.3510    1.7260   -0.8570 hc        1 KRH      0.038200
     42 H10B        2.7280    2.2040   -0.2220 hc        1 KRH      0.038200
     43 H12        -1.9790    0.1710   -1.2590 h1        1 KRH      0.061700
     44 H12A       -0.4370    0.7850   -2.0450 h1        1 KRH      0.061700
     45 H12B       -0.7570   -1.0080   -1.9550 h1        1 KRH      0.061700
     46 H21        -4.9520   -0.7060    4.8370 h5        1 KRH      0.067100
     47 H23        -0.1330    0.1650    6.2280 h1        1 KRH      0.083200
     48 H23A        1.6410    0.5890    6.1010 h1        1 KRH      0.083200
     49 H25        -0.8720   -2.0560    6.5450 ha        1 KRH      0.137000
     50 H26        -0.4010   -4.2970    7.4850 ha        1 KRH      0.137000
     51 H27         1.9620   -5.0580    7.7980 ha        1 KRH      0.136000
     52 H30         3.4920   -0.1320    5.6520 ha        1 KRH      0.144000
     53 H31         5.8100   -0.9230    5.9960 ha        1 KRH      0.134000
     54 H32         6.2540   -3.1660    6.9720 ha        1 KRH      0.135000
     55 H33         4.3470   -4.6480    7.6190 ha        1 KRH      0.134000
     56 H34        -1.6550    1.8560    5.6310 h4        1 KRH      0.046100
     57 H35        -3.6370   -1.5790    2.2510 h1        1 KRH      0.067367
     58 H35A       -3.4740   -2.7490    3.6590 h1        1 KRH      0.067367
     59 H35B       -1.9850   -2.1470    2.7680 h1        1 KRH      0.067367
@<TRIPOS>BOND
     1    1    2 1   
     2    1    6 1   
     3    1   12 1   
     4    2    3 1   
     5    2   11 2   
     6    3    4 1   
     7    3    7 1   
     8    4    5 1   
     9    4   16 2   
    10    5    6 1   
    11    5   14 2   
    12    6   13 2   
    13    7    8 1   
    14    7   34 1   
    15    7   35 1   
    16    8    9 1   
    17    8   10 1   
    18    8   36 1   
    19    9   37 1   
    20    9   38 1   
    21    9   39 1   
    22   10   40 1   
    23   10   41 1   
    24   10   42 1   
    25   12   43 1   
    26   12   44 1   
    27   12   45 1   
    28   14   15 1   
    29   14   17 1   
    30   15   16 1   
    31   15   20 1   
    32   17   27 1   
    33   17   32 2   
    34   18   19 2   
    35   18   32 1   
    36   19   27 1   
    37   19   46 1   
    38   20   21 1   
    39   20   47 1   
    40   20   48 1   
    41   21   22 ar  
    42   21   26 ar  
    43   22   23 ar  
    44   22   49 1   
    45   23   24 ar  
    46   23   50 1   
    47   24   25 ar  
    48   24   51 1   
    49   25   26 ar  
    50   25   31 ar  
    51   26   28 ar  
    52   27   33 1   
    53   28   29 ar  
    54   28   52 1   
    55   29   30 ar  
    56   29   53 1   
    57   30   31 ar  
    58   30   54 1   
    59   31   55 1   
    60   32   56 1   
    61   33   57 1   
    62   33   58 1   
    63   33   59 1   
@<TRIPOS>SUBSTRUCTURE
     1 KRH         1 TEMP              0 ****  ****    0 ROOT
