@<TRIPOS>MOLECULE
KRH
   59    63     1     0     0
SMALL
bcc


@<TRIPOS>ATOM
      1 N1         -0.2180   -0.0870   -0.1390 n         1 KRH     -0.493400
      2 C2          1.1980   -0.1230   -0.1750 c         1 KRH      0.815500
      3 N3          1.9520   -0.2330    1.0210 n         1 KRH     -0.418300
      4 C4          1.2710   -0.1650    2.2330 cc        1 KRH      0.464200
      5 C5         -0.1900   -0.1310    2.2760 cc        1 KRH     -0.364900
      6 C6         -0.9700   -0.1230    1.0560 c         1 KRH      0.767100
      7 C7          3.3980   -0.1670    0.9750 c3        1 KRH      0.103000
      8 C8          4.0080    1.2220    1.2240 c3        1 KRH     -0.089700
      9 C9          5.4850    1.0540    1.5180 c3        1 KRH     -0.091100
     10 C10         3.8050    2.1290    0.0310 c3        1 KRH     -0.091100
     11 O11         1.7880   -0.0950   -1.2780 o         1 KRH     -0.636500
     12 C12        -0.8910   -0.0350   -1.4160 c3        1 KRH      0.080300
     13 O13        -2.2140   -0.1590    1.0040 o         1 KRH     -0.631500
     14 C14        -0.5110   -0.0790    3.6500 cd        1 KRH      0.093700
     15 N15         0.7120   -0.0830    4.3360 na        1 KRH      0.114400
     16 N16         1.7780   -0.1400    3.5100 nd        1 KRH     -0.532800
     17 C17        -1.7960    0.0470    4.2840 cd        1 KRH     -0.195600
     18 N20        -3.5560    0.8170    5.5470 nc        1 KRH     -0.667000
     19 C21        -3.9480   -0.2670    4.8320 cd        1 KRH      0.404400
     20 C23         0.8600   -0.1560    5.7870 c3        1 KRH      0.096600
     21 C24         1.2080   -1.5220    6.3050 ca        1 KRH     -0.108300
     22 C25         0.1800   -2.3670    6.6690 ca        1 KRH     -0.102000
     23 C26         0.4460   -3.6450    7.2090 ca        1 KRH     -0.138000
     24 C27         1.7410   -4.0640    7.3790 ca        1 KRH     -0.098000
     25 C28         2.8250   -3.2200    7.0120 ca        1 KRH     -0.043000
     26 C29         2.5650   -1.9360    6.4620 ca        1 KRH     -0.008000
     27 N29        -2.9090   -0.7780    4.0500 na        1 KRH     -0.156900
     28 C30         3.6740   -1.1210    6.0970 ca        1 KRH     -0.116000
     29 C31         4.9620   -1.5610    6.2770 ca        1 KRH     -0.123000
     30 C32         5.2160   -2.8380    6.8320 ca        1 KRH     -0.126000
     31 C33         4.1690   -3.6500    7.1890 ca        1 KRH     -0.117000
     32 C34        -2.2280    1.0250    5.2180 cc        1 KRH      0.325200
     33 C35        -3.0060   -1.8760    3.1430 c3        1 KRH      0.014600
     34 H7          3.7870   -0.8820    1.7570 h1        1 KRH      0.077700
     35 H7A         3.7240   -0.5310   -0.0420 h1        1 KRH      0.077700
     36 H8          3.5180    1.6870    2.1240 hc        1 KRH      0.060700
     37 H9          5.6370    0.4450    2.4410 hc        1 KRH      0.038200
     38 H9A         5.9580    2.0540    1.6700 hc        1 KRH      0.038200
     39 H9B         6.0010    0.5460    0.6670 hc        1 KRH      0.038200
     40 H10         4.1940    3.1520    0.2540 hc        1 KRH      0.038200
     41 H10A        4.3440    1.7300   -0.8620 hc        1 KRH      0.038200
     42 H10B        2.7210    2.2050   -0.2250 hc        1 KRH      0.038200
     43 H12        -1.9840    0.1640   -1.2560 h1        1 KRH      0.061367
     44 H12A       -0.4440    0.7810   -2.0430 h1        1 KRH      0.061367
     45 H12B       -0.7600   -1.0120   -1.9530 h1        1 KRH      0.061367
     46 H21        -4.9480   -0.7130    4.8430 h5        1 KRH      0.067100
     47 H23        -0.1290    0.1680    6.2290 h1        1 KRH      0.083200
     48 H23A        1.6450    0.5910    6.1000 h1        1 KRH      0.083200
     49 H25        -0.8690   -2.0520    6.5480 ha        1 KRH      0.137000
     50 H26        -0.3980   -4.2920    7.4900 ha        1 KRH      0.137000
     51 H27         1.9640   -5.0560    7.8010 ha        1 KRH      0.136000
     52 H30         3.4950   -0.1320    5.6490 ha        1 KRH      0.144000
     53 H31         5.8130   -0.9250    5.9900 ha        1 KRH      0.134000
     54 H32         6.2560   -3.1670    6.9680 ha        1 KRH      0.135000
     55 H33         4.3490   -4.6470    7.6180 ha        1 KRH      0.134000
     56 H34        -1.6550    1.8550    5.6330 h4        1 KRH      0.046100
     57 H35        -3.6360   -1.5850    2.2570 h1        1 KRH      0.067367
     58 H35A       -3.4700   -2.7550    3.6660 h1        1 KRH      0.067367
     59 H35B       -1.9820   -2.1510    2.7720 h1        1 KRH      0.067367
@<TRIPOS>BOND
     1    1    2 1   
     2    1    6 1   
     3    1   12 1   
     4    2    3 1   
     5    2   11 2   
     6    3    4 1   
     7    3    7 1   
     8    4    5 1   
     9    4   16 2   
    10    5    6 1   
    11    5   14 2   
    12    6   13 2   
    13    7    8 1   
    14    7   34 1   
    15    7   35 1   
    16    8    9 1   
    17    8   10 1   
    18    8   36 1   
    19    9   37 1   
    20    9   38 1   
    21    9   39 1   
    22   10   40 1   
    23   10   41 1   
    24   10   42 1   
    25   12   43 1   
    26   12   44 1   
    27   12   45 1   
    28   14   15 1   
    29   14   17 1   
    30   15   16 1   
    31   15   20 1   
    32   17   27 1   
    33   17   32 2   
    34   18   19 2   
    35   18   32 1   
    36   19   27 1   
    37   19   46 1   
    38   20   21 1   
    39   20   47 1   
    40   20   48 1   
    41   21   22 ar  
    42   21   26 ar  
    43   22   23 ar  
    44   22   49 1   
    45   23   24 ar  
    46   23   50 1   
    47   24   25 ar  
    48   24   51 1   
    49   25   26 ar  
    50   25   31 ar  
    51   26   28 ar  
    52   27   33 1   
    53   28   29 ar  
    54   28   52 1   
    55   29   30 ar  
    56   29   53 1   
    57   30   31 ar  
    58   30   54 1   
    59   31   55 1   
    60   32   56 1   
    61   33   57 1   
    62   33   58 1   
    63   33   59 1   
@<TRIPOS>SUBSTRUCTURE
     1 KRH         1 TEMP              0 ****  ****    0 ROOT
