@<TRIPOS>MOLECULE
KRH
   59    63     1     0     0
SMALL
bcc


@<TRIPOS>ATOM
      1 N1         -0.2170   -0.0820   -0.1410 n         1 KRH     -0.493400
      2 C2          1.2000   -0.1160   -0.1740 c         1 KRH      0.815500
      3 N3          1.9510   -0.2290    1.0240 n         1 KRH     -0.418300
      4 C4          1.2680   -0.1650    2.2340 cc        1 KRH      0.464200
      5 C5         -0.1930   -0.1340    2.2750 cc        1 KRH     -0.364900
      6 C6         -0.9710   -0.1220    1.0530 c         1 KRH      0.767100
      7 C7          3.3970   -0.1630    0.9810 c3        1 KRH      0.103000
      8 C8          4.0060    1.2260    1.2350 c3        1 KRH     -0.089700
      9 C9          5.4830    1.0590    1.5320 c3        1 KRH     -0.091100
     10 C10         3.8060    2.1360    0.0440 c3        1 KRH     -0.091100
     11 O11         1.7920   -0.0850   -1.2750 o         1 KRH     -0.636500
     12 C12        -0.8880   -0.0270   -1.4190 c3        1 KRH      0.080300
     13 O13        -2.2150   -0.1600    0.9990 o         1 KRH     -0.631500
     14 C14        -0.5170   -0.0850    3.6470 cd        1 KRH      0.093700
     15 N15         0.7050   -0.0900    4.3360 na        1 KRH      0.114400
     16 N16         1.7720   -0.1430    3.5120 nd        1 KRH     -0.532800
     17 C17        -1.8040    0.0370    4.2800 cd        1 KRH     -0.195600
     18 N20        -3.5670    0.8000    5.5420 nc        1 KRH     -0.667000
     19 C21        -3.9560   -0.2810    4.8220 cd        1 KRH      0.404400
     20 C23         0.8490   -0.1670    5.7880 c3        1 KRH      0.096600
     21 C24         1.2080   -1.5310    6.3020 ca        1 KRH     -0.108300
     22 C25         0.1850   -2.3860    6.6600 ca        1 KRH     -0.102000
     23 C26         0.4610   -3.6640    7.1960 ca        1 KRH     -0.138000
     24 C27         1.7590   -4.0720    7.3690 ca        1 KRH     -0.098000
     25 C28         2.8370   -3.2180    7.0080 ca        1 KRH     -0.043000
     26 C29         2.5680   -1.9340    6.4610 ca        1 KRH     -0.008000
     27 N29        -2.9150   -0.7880    4.0400 na        1 KRH     -0.156900
     28 C30         3.6710   -1.1090    6.1010 ca        1 KRH     -0.116000
     29 C31         4.9620   -1.5390    6.2840 ca        1 KRH     -0.123000
     30 C32         5.2250   -2.8150    6.8350 ca        1 KRH     -0.126000
     31 C33         4.1840   -3.6370    7.1870 ca        1 KRH     -0.117000
     32 C34        -2.2380    1.0120    5.2160 cc        1 KRH      0.325200
     33 C35        -3.0090   -1.8840    3.1300 c3        1 KRH      0.014600
     34 H7          3.7850   -0.8790    1.7610 h1        1 KRH      0.077700
     35 H7A         3.7260   -0.5230   -0.0370 h1        1 KRH      0.077700
     36 H8          3.5130    1.6890    2.1350 hc        1 KRH      0.060700
     37 H9          5.6320    0.4480    2.4540 hc        1 KRH      0.038200
     38 H9A         6.0000    0.5530    0.6820 hc        1 KRH      0.038200
     39 H9B         5.9550    2.0580    1.6880 hc        1 KRH      0.038200
     40 H10         4.3470    1.7400   -0.8490 hc        1 KRH      0.038200
     41 H10A        4.1920    3.1590    0.2700 hc        1 KRH      0.038200
     42 H10B        2.7220    2.2120   -0.2160 hc        1 KRH      0.038200
     43 H12        -0.7560   -1.0040   -1.9570 h1        1 KRH      0.061700
     44 H12A       -0.4380    0.7900   -2.0440 h1        1 KRH      0.061700
     45 H12B       -1.9800    0.1720   -1.2610 h1        1 KRH      0.061700
     46 H21        -4.9560   -0.7280    4.8310 h5        1 KRH      0.067100
     47 H23         1.6270    0.5860    6.1050 h1        1 KRH      0.083200
     48 H23A       -0.1430    0.1480    6.2290 h1        1 KRH      0.083200
     49 H25        -0.8660   -2.0790    6.5380 ha        1 KRH      0.137000
     50 H26        -0.3790   -4.3190    7.4730 ha        1 KRH      0.137000
     51 H27         1.9890   -5.0640    7.7880 ha        1 KRH      0.136000
     52 H30         3.4850   -0.1200    5.6560 ha        1 KRH      0.144000
     53 H31         5.8080   -0.8950    6.0010 ha        1 KRH      0.134000
     54 H32         6.2680   -3.1360    6.9730 ha        1 KRH      0.135000
     55 H33         4.3720   -4.6350    7.6130 ha        1 KRH      0.134000
     56 H34        -1.6670    1.8400    5.6350 h4        1 KRH      0.046100
     57 H35        -3.6390   -1.5900    2.2440 h1        1 KRH      0.067367
     58 H35A       -3.4730   -2.7640    3.6490 h1        1 KRH      0.067367
     59 H35B       -1.9850   -2.1560    2.7600 h1        1 KRH      0.067367
@<TRIPOS>BOND
     1    1    2 1   
     2    1    6 1   
     3    1   12 1   
     4    2    3 1   
     5    2   11 2   
     6    3    4 1   
     7    3    7 1   
     8    4    5 1   
     9    4   16 2   
    10    5    6 1   
    11    5   14 2   
    12    6   13 2   
    13    7    8 1   
    14    7   34 1   
    15    7   35 1   
    16    8    9 1   
    17    8   10 1   
    18    8   36 1   
    19    9   37 1   
    20    9   38 1   
    21    9   39 1   
    22   10   40 1   
    23   10   41 1   
    24   10   42 1   
    25   12   43 1   
    26   12   44 1   
    27   12   45 1   
    28   14   15 1   
    29   14   17 1   
    30   15   16 1   
    31   15   20 1   
    32   17   27 1   
    33   17   32 2   
    34   18   19 2   
    35   18   32 1   
    36   19   27 1   
    37   19   46 1   
    38   20   21 1   
    39   20   47 1   
    40   20   48 1   
    41   21   22 ar  
    42   21   26 ar  
    43   22   23 ar  
    44   22   49 1   
    45   23   24 ar  
    46   23   50 1   
    47   24   25 ar  
    48   24   51 1   
    49   25   26 ar  
    50   25   31 ar  
    51   26   28 ar  
    52   27   33 1   
    53   28   29 ar  
    54   28   52 1   
    55   29   30 ar  
    56   29   53 1   
    57   30   31 ar  
    58   30   54 1   
    59   31   55 1   
    60   32   56 1   
    61   33   57 1   
    62   33   58 1   
    63   33   59 1   
@<TRIPOS>SUBSTRUCTURE
     1 KRH         1 TEMP              0 ****  ****    0 ROOT
