@<TRIPOS>MOLECULE
KRI
   34    33     1     0     0
SMALL
bcc


@<TRIPOS>ATOM
      1 O           0.0950    0.3690    0.5120 o         1 KRI     -0.756300
      2 C           1.3280    0.2030    0.3400 c         1 KRI      0.938600
      3 OXT         2.0270    0.2860   -0.6830 o         1 KRI     -0.756300
      4 CA          2.1460   -0.1830    1.6770 c3        1 KRI     -0.080500
      5 N           1.2570   -0.0010    2.8610 n4        1 KRI     -0.843600
      6 CB          2.6510   -1.6060    1.5150 c3        1 KRI     -0.085400
      7 CG          3.6470   -2.0300    2.5600 c3        1 KRI     -0.008300
      8 SD          2.7470   -2.4880    4.0290 ss        1 KRI     -0.371200
      9 C5          3.9610   -2.4190    5.3170 c3        1 KRI     -0.043300
     10 C4          4.3600   -3.8080    5.7880 c3        1 KRI      0.124100
     11 O4          5.2210   -4.4460    4.8580 oh        1 KRI     -0.603800
     12 C3          5.1500   -3.6990    7.1140 c3        1 KRI      0.049100
     13 O3          4.3620   -3.0330    8.0790 oh        1 KRI     -0.586800
     14 C2          5.5620   -5.0800    7.5920 c         1 KRI      0.517100
     15 O2          4.8340   -5.7230    8.3560 o         1 KRI     -0.528100
     16 C1          6.8690   -5.6130    7.0750 c3        1 KRI      0.040400
     17 O1          7.3100   -6.7570    7.7710 oh        1 KRI     -0.582800
     18 HA          3.0080    0.5310    1.7680 hx        1 KRI      0.086700
     19 HN1         1.3720    0.9370    3.2370 hn        1 KRI      0.448467
     20 HN2         0.2810   -0.0880    2.5060 hn        1 KRI      0.448467
     21 HB1         3.1430   -1.6360    0.4980 hc        1 KRI      0.100200
     22 HB2         1.7920   -2.3290    1.4780 hc        1 KRI      0.100200
     23 HG1         4.2300   -2.9140    2.2000 h1        1 KRI      0.074700
     24 HG2         4.3720   -1.2120    2.7870 h1        1 KRI      0.074700
     25 H51         4.8640   -1.8570    4.9810 h1        1 KRI      0.096200
     26 H52         3.4990   -1.8710    6.1780 h1        1 KRI      0.096200
     27 H4          3.4390   -4.4360    5.9540 h1        1 KRI      0.064700
     28 HO4         4.7090   -4.5700    4.0470 ho        1 KRI      0.421000
     29 H3          6.0550   -3.0460    6.9670 h1        1 KRI      0.102700
     30 HO3         3.7540   -3.6810    8.4650 ho        1 KRI      0.426000
     31 H11         6.7470   -5.8400    5.9780 h1        1 KRI      0.085700
     32 H12         7.6870   -4.8540    7.2120 h1        1 KRI      0.085700
     33 HO1         6.5430   -7.3290    7.9170 ho        1 KRI      0.418000
     34 HN3         1.4480   -0.7050    3.5890 hn        1 KRI      0.448467
@<TRIPOS>BOND
     1    1    2 1   
     2    2    3 1   
     3    2    4 1   
     4    4    5 1   
     5    4    6 1   
     6    4   18 1   
     7    5   19 1   
     8    5   20 1   
     9    5   34 1   
    10    6    7 1   
    11    6   21 1   
    12    6   22 1   
    13    7    8 1   
    14    7   23 1   
    15    7   24 1   
    16    8    9 1   
    17    9   10 1   
    18    9   25 1   
    19    9   26 1   
    20   10   11 1   
    21   10   12 1   
    22   10   27 1   
    23   11   28 1   
    24   12   13 1   
    25   12   14 1   
    26   12   29 1   
    27   13   30 1   
    28   14   15 2   
    29   14   16 1   
    30   16   17 1   
    31   16   31 1   
    32   16   32 1   
    33   17   33 1   
@<TRIPOS>SUBSTRUCTURE
     1 KRI         1 TEMP              0 ****  ****    0 ROOT
