@<TRIPOS>MOLECULE
KRI
   34    33     1     0     0
SMALL
bcc


@<TRIPOS>ATOM
      1 O           0.0800    0.2490    0.4380 o         1 KRI     -0.756300
      2 C           1.3250    0.1520    0.3080 c         1 KRI      0.938600
      3 OXT         2.0540    0.2910   -0.6870 o         1 KRI     -0.756300
      4 CA          2.1140   -0.2180    1.6670 c3        1 KRI     -0.080500
      5 N           1.1750   -0.1070    2.8210 nz        1 KRI     -0.843600
      6 CB          2.7000   -1.6080    1.4980 c3        1 KRI     -0.085400
      7 CG          3.6800   -2.0010    2.5710 c3        1 KRI     -0.008300
      8 SD          2.7530   -2.5350    3.9970 ss        1 KRI     -0.371200
      9 C5          3.9150   -2.4290    5.3300 c3        1 KRI     -0.043300
     10 C4          4.3730   -3.8050    5.7870 c3        1 KRI      0.124100
     11 O4          5.3010   -4.3730    4.8770 oh        1 KRI     -0.603800
     12 C3          5.1080   -3.6830    7.1440 c3        1 KRI      0.049100
     13 O3          4.2490   -3.0820    8.0910 oh        1 KRI     -0.586800
     14 C2          5.5770   -5.0500    7.6090 c         1 KRI      0.517100
     15 O2          4.8590   -5.7470    8.3320 o         1 KRI     -0.528100
     16 C1          6.9300   -5.4980    7.1300 c3        1 KRI      0.040400
     17 O1          7.4070   -6.6320    7.8180 oh        1 KRI     -0.582800
     18 HA          2.9330    0.5390    1.8030 hx        1 KRI      0.086700
     19 HN1         0.2190   -0.2380    2.4290 hn        1 KRI      0.448467
     20 HN2         1.2270    0.8280    3.2180 hn        1 KRI      0.448467
     21 HB1         1.8830   -2.3750    1.4160 hc        1 KRI      0.100200
     22 HB2         3.2300   -1.5920    0.4990 hc        1 KRI      0.100200
     23 HG1         4.3510   -1.1500    2.8390 h1        1 KRI      0.074700
     24 HG2         4.3220   -2.8440    2.2160 h1        1 KRI      0.074700
     25 H51         4.7980   -1.8110    5.0380 h1        1 KRI      0.096200
     26 H52         3.3930   -1.9260    6.1840 h1        1 KRI      0.096200
     27 H4          3.4820   -4.4850    5.9050 h1        1 KRI      0.064700
     28 HO4         4.8260   -4.5080    4.0460 ho        1 KRI      0.421000
     29 H3          5.9790   -2.9770    7.0430 h1        1 KRI      0.102700
     30 HO3         3.6640   -3.7710    8.4410 ho        1 KRI      0.426000
     31 H11         6.8600   -5.7070    6.0240 h1        1 KRI      0.085700
     32 H12         7.6990   -4.6990    7.3120 h1        1 KRI      0.085700
     33 HO1         6.6690   -7.2480    7.9240 ho        1 KRI      0.418000
     34 HN3         1.3770   -0.8140    3.5420 hn        1 KRI      0.448467
@<TRIPOS>BOND
     1    1    2 1   
     2    2    3 1   
     3    2    4 1   
     4    4    5 1   
     5    4    6 1   
     6    4   18 1   
     7    5   19 1   
     8    5   20 1   
     9    5   34 1   
    10    6    7 1   
    11    6   21 1   
    12    6   22 1   
    13    7    8 1   
    14    7   23 1   
    15    7   24 1   
    16    8    9 1   
    17    9   10 1   
    18    9   25 1   
    19    9   26 1   
    20   10   11 1   
    21   10   12 1   
    22   10   27 1   
    23   11   28 1   
    24   12   13 1   
    25   12   14 1   
    26   12   29 1   
    27   13   30 1   
    28   14   15 2   
    29   14   16 1   
    30   16   17 1   
    31   16   31 1   
    32   16   32 1   
    33   17   33 1   
@<TRIPOS>SUBSTRUCTURE
     1 KRI         1 TEMP              0 ****  ****    0 ROOT
