@<TRIPOS>MOLECULE
KRI
   33    32     1     0     0
SMALL
bcc


@<TRIPOS>ATOM
      1 O          -2.0690    0.3210    0.8000 o         1 KRI     -0.861800
      2 C          -1.0440    0.9110    1.2480 c         1 KRI      0.882600
      3 OXT        -0.5440    1.9310    0.6800 o         1 KRI     -0.861800
      4 CA         -0.3520    0.3640    2.5240 c3        1 KRI      0.041500
      5 N          -1.2670   -0.2950    3.4480 n3        1 KRI     -0.887800
      6 CB          0.7850   -0.5710    2.0790 c3        1 KRI     -0.061400
      7 CG          1.9350    0.2110    1.4930 c3        1 KRI     -0.003300
      8 SD          2.8140   -0.7510    0.2800 ss        1 KRI     -0.381200
      9 C5          2.5290    0.0660   -1.2700 c3        1 KRI     -0.011300
     10 C4          1.0990    0.5270   -1.5070 c3        1 KRI      0.122100
     11 O4          1.1170    1.9410   -1.6580 oh        1 KRI     -0.637800
     12 C3          0.4540   -0.0330   -2.7990 c3        1 KRI      0.023100
     13 O3          1.1210   -1.1720   -3.3050 oh        1 KRI     -0.599800
     14 C2         -1.0190   -0.3350   -2.5430 c         1 KRI      0.515100
     15 O2         -1.4230   -1.5000   -2.6160 o         1 KRI     -0.542100
     16 C1         -1.8810    0.8480   -2.1930 c3        1 KRI      0.041400
     17 O1         -3.2040    0.4710   -1.8960 oh        1 KRI     -0.612800
     18 HA          0.0980    1.2400    3.0750 h1        1 KRI      0.051700
     19 HN1        -2.0440    0.3220    3.6030 hn        1 KRI      0.336300
     20 HN2        -1.6350   -1.1160    2.9990 hn        1 KRI      0.336300
     21 HB1         1.1510   -1.1770    2.9490 hc        1 KRI      0.046700
     22 HB2         0.3800   -1.2900    1.3170 hc        1 KRI      0.046700
     23 HG1         1.5650    1.1670    1.0350 h1        1 KRI      0.083200
     24 HG2         2.6760    0.4710    2.2880 h1        1 KRI      0.083200
     25 H51         3.2080    0.9510   -1.3480 h1        1 KRI      0.081200
     26 H52         2.8460   -0.6860   -2.0350 h1        1 KRI      0.081200
     27 H4          0.4530    0.2340   -0.6260 h1        1 KRI      0.091700
     28 HO4         0.6060    2.3180   -0.9240 ho        1 KRI      0.456000
     29 H3          0.5460    0.7390   -3.6160 h1        1 KRI      0.094700
     30 HO3         0.8170   -1.9350   -2.7940 ho        1 KRI      0.416000
     31 H11        -1.4170    1.3950   -1.3160 h1        1 KRI      0.090200
     32 H12        -1.9470    1.5270   -3.0850 h1        1 KRI      0.090200
     33 HO1        -3.2010    0.1630   -0.9740 ho        1 KRI      0.451000
@<TRIPOS>BOND
     1    1    2 1   
     2    2    3 1   
     3    2    4 1   
     4    4    5 1   
     5    4    6 1   
     6    4   18 1   
     7    5   19 1   
     8    5   20 1   
     9    6    7 1   
    10    6   21 1   
    11    6   22 1   
    12    7    8 1   
    13    7   23 1   
    14    7   24 1   
    15    8    9 1   
    16    9   10 1   
    17    9   25 1   
    18    9   26 1   
    19   10   11 1   
    20   10   12 1   
    21   10   27 1   
    22   11   28 1   
    23   12   13 1   
    24   12   14 1   
    25   12   29 1   
    26   13   30 1   
    27   14   15 2   
    28   14   16 1   
    29   16   17 1   
    30   16   31 1   
    31   16   32 1   
    32   17   33 1   
@<TRIPOS>SUBSTRUCTURE
     1 KRI         1 TEMP              0 ****  ****    0 ROOT
