@<TRIPOS>MOLECULE
KRI
   34    33     1     0     0
SMALL
bcc


@<TRIPOS>ATOM
      1 O           0.0630    0.3370    0.5180 o         1 KRI     -0.756300
      2 C           1.3040    0.2150    0.3640 c         1 KRI      0.938600
      3 OXT         2.0160    0.3430   -0.6440 o         1 KRI     -0.756300
      4 CA          2.1100   -0.1760    1.7070 c3        1 KRI     -0.080500
      5 N           1.1950   -0.0490    2.8790 n4        1 KRI     -0.843600
      6 CB          2.6640   -1.5770    1.5220 c3        1 KRI     -0.085400
      7 CG          3.6550   -1.9930    2.5750 c3        1 KRI     -0.008300
      8 SD          2.7450   -2.5140    4.0170 ss        1 KRI     -0.371200
      9 C5          3.9330   -2.4360    5.3290 c3        1 KRI     -0.043300
     10 C4          4.3740   -3.8230    5.7700 c3        1 KRI      0.124100
     11 O4          5.2740   -4.4040    4.8400 oh        1 KRI     -0.603800
     12 C3          5.1360   -3.7210    7.1130 c3        1 KRI      0.049100
     13 O3          4.3070   -3.1100    8.0800 oh        1 KRI     -0.586800
     14 C2          5.5900   -5.0990    7.5620 c         1 KRI      0.517100
     15 O2          4.8720   -5.7870    8.2950 o         1 KRI     -0.528100
     16 C1          6.9250   -5.5690    7.0560 c3        1 KRI      0.040400
     17 O1          7.3950   -6.7150    7.7290 oh        1 KRI     -0.582800
     18 HA          2.9470    0.5640    1.8300 hx        1 KRI      0.086700
     19 HN1         1.2740    0.8820    3.2770 hn        1 KRI      0.448467
     20 HN2         1.3960   -0.7630    3.5930 hn        1 KRI      0.448467
     21 HB1         3.1750   -1.5680    0.5140 hc        1 KRI      0.100200
     22 HB2         1.8300   -2.3260    1.4540 hc        1 KRI      0.100200
     23 HG1         4.3490   -1.1570    2.8340 h1        1 KRI      0.074200
     24 HG2         4.2730   -2.8480    2.2060 h1        1 KRI      0.074200
     25 H51         4.8220   -1.8330    5.0230 h1        1 KRI      0.096200
     26 H52         3.4370   -1.9280    6.1950 h1        1 KRI      0.096200
     27 H4          3.4740   -4.4870    5.9020 h1        1 KRI      0.064700
     28 HO4         4.7810   -4.5250    4.0170 ho        1 KRI      0.421000
     29 H3          6.0190   -3.0310    7.0000 h1        1 KRI      0.102700
     30 HO3         3.7160   -3.7900    8.4380 ho        1 KRI      0.426000
     31 H11         7.7110   -4.7850    7.2270 h1        1 KRI      0.085700
     32 H12         6.8300   -5.7710    5.9510 h1        1 KRI      0.085700
     33 HO1         6.6470   -7.3180    7.8460 ho        1 KRI      0.418000
     34 HN3         0.2290   -0.1600    2.5040 hn        1 KRI      0.448467
@<TRIPOS>BOND
     1    1    2 1   
     2    2    3 1   
     3    2    4 1   
     4    4    5 1   
     5    4    6 1   
     6    4   18 1   
     7    5   19 1   
     8    5   20 1   
     9    5   34 1   
    10    6    7 1   
    11    6   21 1   
    12    6   22 1   
    13    7    8 1   
    14    7   23 1   
    15    7   24 1   
    16    8    9 1   
    17    9   10 1   
    18    9   25 1   
    19    9   26 1   
    20   10   11 1   
    21   10   12 1   
    22   10   27 1   
    23   11   28 1   
    24   12   13 1   
    25   12   14 1   
    26   12   29 1   
    27   13   30 1   
    28   14   15 2   
    29   14   16 1   
    30   16   17 1   
    31   16   31 1   
    32   16   32 1   
    33   17   33 1   
@<TRIPOS>SUBSTRUCTURE
     1 KRI         1 TEMP              0 ****  ****    0 ROOT
