@<TRIPOS>MOLECULE
KRJ
   53    56     1     0     0
SMALL
bcc


@<TRIPOS>ATOM
      1 N01        -1.5260    1.7210   -1.9080 n1        1 KRJ     -0.353800
      2 C02        -0.8970    1.2110   -1.0730 cg        1 KRJ      0.164800
      3 C03        -0.1270    0.5890   -0.0690 cc        1 KRJ      0.366300
      4 C04         1.0630   -0.1580   -0.2830 cd        1 KRJ     -0.174600
      5 N05         1.4800   -0.5800    0.9620 na        1 KRJ     -0.265900
      6 C06         0.5500   -0.0910    1.9010 cd        1 KRJ      0.337000
      7 N07        -0.4340    0.6220    1.2940 nc        1 KRJ     -0.604000
      8 C08         0.7210   -0.3820    3.3640 c         1 KRJ      0.608600
      9 O09         1.7000   -1.0670    3.7240 o         1 KRJ     -0.607100
     10 N10        -0.2290    0.1540    4.2020 ns        1 KRJ     -0.438100
     11 C11        -0.3050   -0.0200    5.5980 ca        1 KRJ      0.064600
     12 C12         0.7460   -0.5760    6.3560 ca        1 KRJ     -0.151000
     13 C13         0.6260   -0.7190    7.7340 ca        1 KRJ     -0.103000
     14 C14        -0.5340   -0.3170    8.4030 ca        1 KRJ     -0.094300
     15 C15        -1.5790    0.2350    7.6590 ca        1 KRJ     -0.096000
     16 C16        -1.4860    0.3940    6.2740 ca        1 KRJ     -0.088800
     17 C17        -2.6230    0.9850    5.5560 ce        1 KRJ     -0.081400
     18 C18        -2.5410    2.1860    4.9600 c2        1 KRJ     -0.156200
     19 C19        -3.6700    2.8270    4.2450 c3        1 KRJ     -0.049200
     20 C20        -4.8050    1.8650    3.9530 c3        1 KRJ     -0.078400
     21 C21        -5.0900    0.9790    5.1470 c3        1 KRJ     -0.076400
     22 C22        -3.8700    0.1670    5.5340 c3        1 KRJ     -0.037200
     23 C23        -0.6670   -0.4680    9.8840 c3        1 KRJ     -0.017400
     24 C24         0.3930    0.3440   10.6190 c3        1 KRJ     -0.072400
     25 C25         0.2730    0.1490   12.1290 c3        1 KRJ      0.162800
     26 N26         0.2870   -1.2450   12.5290 n7        1 KRJ     -0.820200
     27 C27        -0.6710   -2.0690   11.8180 c3        1 KRJ      0.162800
     28 C28        -0.5750   -1.9310   10.3000 c3        1 KRJ     -0.072400
     29 HN05        2.2750   -1.1250    1.1890 hn        1 KRJ      0.333700
     30 H04         1.5970   -0.3920   -1.2050 h4        1 KRJ      0.198000
     31 HN10       -0.9940    0.6530    3.7910 hn        1 KRJ      0.352500
     32 H12         1.6770   -0.9080    5.8670 ha        1 KRJ      0.170000
     33 H13         1.4620   -1.1560    8.3020 ha        1 KRJ      0.140000
     34 H15        -2.5010    0.5600    8.1670 ha        1 KRJ      0.137000
     35 H18        -1.6100    2.7750    4.9960 ha        1 KRJ      0.128000
     36 H19        -4.0480    3.6790    4.8750 hc        1 KRJ      0.053700
     37 H19A       -3.2990    3.2690    3.2810 hc        1 KRJ      0.053700
     38 H20        -4.5380    1.2260    3.0710 hc        1 KRJ      0.044700
     39 H20A       -5.7260    2.4440    3.6820 hc        1 KRJ      0.044700
     40 H21        -5.4070    1.6150    6.0150 hc        1 KRJ      0.042200
     41 H21A       -5.9380    0.2860    4.9110 hc        1 KRJ      0.042200
     42 H22        -4.0340   -0.2980    6.5430 hc        1 KRJ      0.052200
     43 H22A       -3.7290   -0.6740    4.8010 hc        1 KRJ      0.052200
     44 H23        -1.6790   -0.0820   10.2000 hc        1 KRJ      0.049700
     45 H24         1.4130    0.0320   10.2740 hc        1 KRJ      0.051450
     46 H24A        0.2700    1.4320   10.3870 hc        1 KRJ      0.051450
     47 H25        -0.6640    0.6780   12.4770 h1        1 KRJ      0.026700
     48 H25A        1.1500    0.6470   12.6310 h1        1 KRJ      0.026700
     49 HN26        0.1320   -1.3170   13.5170 hn        1 KRJ      0.361800
     50 H27        -1.7350   -1.8390   12.1240 h1        1 KRJ      0.026700
     51 H27A       -0.4620   -3.1400   12.1000 h1        1 KRJ      0.026700
     52 H28         0.3930   -2.3660    9.9380 hc        1 KRJ      0.051450
     53 H28A       -1.4090   -2.5150    9.8340 hc        1 KRJ      0.051450
@<TRIPOS>BOND
     1    1    2 3   
     2    2    3 1   
     3    3    4 2   
     4    3    7 1   
     5    4    5 1   
     6    4   30 1   
     7    5    6 1   
     8    5   29 1   
     9    6    7 2   
    10    6    8 1   
    11    8    9 2   
    12    8   10 1   
    13   10   11 1   
    14   10   31 1   
    15   11   12 ar  
    16   11   16 ar  
    17   12   13 ar  
    18   12   32 1   
    19   13   14 ar  
    20   13   33 1   
    21   14   15 ar  
    22   14   23 1   
    23   15   16 ar  
    24   15   34 1   
    25   16   17 1   
    26   17   18 2   
    27   17   22 1   
    28   18   19 1   
    29   18   35 1   
    30   19   20 1   
    31   19   36 1   
    32   19   37 1   
    33   20   21 1   
    34   20   38 1   
    35   20   39 1   
    36   21   22 1   
    37   21   40 1   
    38   21   41 1   
    39   22   42 1   
    40   22   43 1   
    41   23   24 1   
    42   23   28 1   
    43   23   44 1   
    44   24   25 1   
    45   24   45 1   
    46   24   46 1   
    47   25   26 1   
    48   25   47 1   
    49   25   48 1   
    50   26   27 1   
    51   26   49 1   
    52   27   28 1   
    53   27   50 1   
    54   27   51 1   
    55   28   52 1   
    56   28   53 1   
@<TRIPOS>SUBSTRUCTURE
     1 KRJ         1 TEMP              0 ****  ****    0 ROOT
