@<TRIPOS>MOLECULE
KRJ
   54    57     1     0     0
SMALL
bcc


@<TRIPOS>ATOM
      1 N01        -1.4100   -0.6490   -2.1710 n1        1 KRJ     -0.269800
      2 C02        -0.7930   -0.3760   -1.2250 cg        1 KRJ      0.123800
      3 C03        -0.0350   -0.0410   -0.0830 cc        1 KRJ      0.417300
      4 C04         1.2590    0.5830   -0.1000 cd        1 KRJ     -0.118600
      5 N05         1.6370    0.7320    1.2090 na        1 KRJ     -0.226900
      6 C06         0.5910    0.2080    2.0010 cd        1 KRJ      0.241000
      7 N07        -0.4330   -0.2660    1.2200 nc        1 KRJ     -0.585000
      8 C08         0.6400    0.1920    3.4620 c         1 KRJ      0.485600
      9 O09         1.5580    0.6080    4.1550 o         1 KRJ     -0.413100
     10 N10        -0.5830   -0.4120    4.1010 n4        1 KRJ     -0.513200
     11 C11        -0.5810   -0.4120    5.5640 ca        1 KRJ     -0.072400
     12 C12         0.4160   -1.1140    6.2640 ca        1 KRJ     -0.082000
     13 C13         0.3850   -1.1450    7.6520 ca        1 KRJ     -0.112000
     14 C14        -0.6280   -0.4840    8.3630 ca        1 KRJ      0.000700
     15 C15        -1.6150    0.2120    7.6560 ca        1 KRJ     -0.112000
     16 C16        -1.6080    0.2670    6.2590 ca        1 KRJ      0.003200
     17 C17        -2.6660    0.9940    5.5480 ce        1 KRJ     -0.138400
     18 C18        -2.4170    2.1370    4.8830 c2        1 KRJ     -0.130200
     19 C19        -3.4630    2.9230    4.1890 c3        1 KRJ     -0.062200
     20 C20        -4.7550    2.1530    4.0030 c3        1 KRJ     -0.081400
     21 C21        -5.1180    1.3860    5.2560 c3        1 KRJ     -0.080400
     22 C22        -4.0320    0.4000    5.6380 c3        1 KRJ     -0.036200
     23 C23        -0.6600   -0.5160    9.8580 c3        1 KRJ     -0.040400
     24 C24         0.5930    0.1280   10.4430 c3        1 KRJ     -0.072900
     25 C25         0.5850    0.0300   11.9680 c3        1 KRJ      0.163800
     26 N26         0.4030   -1.3270   12.4410 n3        1 KRJ     -0.824200
     27 C27        -0.7710   -1.9770   11.8970 c3        1 KRJ      0.163800
     28 C28        -0.8080   -1.9460   10.3690 c3        1 KRJ     -0.072900
     29 HN05        2.4780    1.1280    1.5590 hn        1 KRJ      0.347700
     30 H04         1.8730    0.9000   -0.9500 h4        1 KRJ      0.229000
     31 HN10       -0.6670   -1.3850    3.7720 hn        1 KRJ      0.481300
     32 H12         1.2300   -1.6280    5.7270 ha        1 KRJ      0.152000
     33 H13         1.1700   -1.6940    8.2000 ha        1 KRJ      0.173000
     34 H15        -2.4190    0.7360    8.2020 ha        1 KRJ      0.168000
     35 H18        -1.4050    2.5780    4.8670 ha        1 KRJ      0.125000
     36 H19        -3.6590    3.8500    4.7980 hc        1 KRJ      0.069200
     37 H19A       -3.0790    3.2640    3.1900 hc        1 KRJ      0.069200
     38 H20        -4.6510    1.4400    3.1430 hc        1 KRJ      0.054200
     39 H20A       -5.5800    2.8670    3.7450 hc        1 KRJ      0.054200
     40 H21        -6.0790    0.8310    5.0950 hc        1 KRJ      0.060200
     41 H21A       -5.2830    2.1070    6.0990 hc        1 KRJ      0.060200
     42 H22        -4.2120    0.0340    6.6850 hc        1 KRJ      0.056200
     43 H22A       -4.0800   -0.4970    4.9620 hc        1 KRJ      0.056200
     44 H23        -1.5530    0.0750   10.2170 hc        1 KRJ      0.066700
     45 H24         0.6390    1.2080   10.1520 hc        1 KRJ      0.052200
     46 H24A        1.5060   -0.3800   10.0360 hc        1 KRJ      0.052200
     47 H25        -0.2120    0.7300   12.3600 h1        1 KRJ      0.038200
     48 H25A        1.5780    0.3930   12.3580 h1        1 KRJ      0.038200
     49 HN26        0.3800   -1.3470   13.4440 hn        1 KRJ      0.378800
     50 H27        -0.7500   -3.0510   12.2360 h1        1 KRJ      0.038200
     51 H27A       -1.7310   -1.5160   12.2800 h1        1 KRJ      0.038200
     52 H28         0.0170   -2.5830    9.9580 hc        1 KRJ      0.052200
     53 H28A       -1.7830   -2.3760   10.0250 hc        1 KRJ      0.052200
     54 H102       -1.4130    0.1160    3.7690 hn        1 KRJ      0.481300
@<TRIPOS>BOND
     1    1    2 3   
     2    2    3 1   
     3    3    4 2   
     4    3    7 1   
     5    4    5 1   
     6    4   30 1   
     7    5    6 1   
     8    5   29 1   
     9    6    7 2   
    10    6    8 1   
    11    8    9 2   
    12    8   10 1   
    13   10   11 1   
    14   10   31 1   
    15   10   54 1   
    16   11   12 ar  
    17   11   16 ar  
    18   12   13 ar  
    19   12   32 1   
    20   13   14 ar  
    21   13   33 1   
    22   14   15 ar  
    23   14   23 1   
    24   15   16 ar  
    25   15   34 1   
    26   16   17 1   
    27   17   18 2   
    28   17   22 1   
    29   18   19 1   
    30   18   35 1   
    31   19   20 1   
    32   19   36 1   
    33   19   37 1   
    34   20   21 1   
    35   20   38 1   
    36   20   39 1   
    37   21   22 1   
    38   21   40 1   
    39   21   41 1   
    40   22   42 1   
    41   22   43 1   
    42   23   24 1   
    43   23   28 1   
    44   23   44 1   
    45   24   25 1   
    46   24   45 1   
    47   24   46 1   
    48   25   26 1   
    49   25   47 1   
    50   25   48 1   
    51   26   27 1   
    52   26   49 1   
    53   27   28 1   
    54   27   50 1   
    55   27   51 1   
    56   28   52 1   
    57   28   53 1   
@<TRIPOS>SUBSTRUCTURE
     1 KRJ         1 TEMP              0 ****  ****    0 ROOT
