@<TRIPOS>MOLECULE
KRJ
   53    56     1     0     0
SMALL
bcc


@<TRIPOS>ATOM
      1 N01        -7.5220    0.6810   -0.5650 n1        1 KRJ     -0.353800
      2 C02        -6.6150   -0.0290   -0.4110 cg        1 KRJ      0.164800
      3 C03        -5.5230   -0.9000   -0.2220 cc        1 KRJ      0.367300
      4 C04        -5.6120   -2.2960    0.0330 cd        1 KRJ     -0.174600
      5 N05        -4.3140   -2.7470    0.1500 na        1 KRJ     -0.265900
      6 C06        -3.4670   -1.6360   -0.0330 cd        1 KRJ      0.337000
      7 N07        -4.1830   -0.5040   -0.2600 nc        1 KRJ     -0.604000
      8 C08        -1.9770   -1.7950    0.0360 c         1 KRJ      0.608600
      9 O09        -1.5090   -2.9310    0.2600 o         1 KRJ     -0.608100
     10 N10        -1.2360   -0.6550   -0.1700 n         1 KRJ     -0.438100
     11 C11         0.1670   -0.5460   -0.1080 ca        1 KRJ      0.065600
     12 C12         1.0180   -1.6700   -0.0630 ca        1 KRJ     -0.151000
     13 C13         2.3980   -1.5100   -0.0120 ca        1 KRJ     -0.104000
     14 C14         2.9790   -0.2390   -0.0040 ca        1 KRJ     -0.094300
     15 C15         2.1420    0.8790   -0.0500 ca        1 KRJ     -0.095000
     16 C16         0.7530    0.7500   -0.1040 ca        1 KRJ     -0.087800
     17 C17        -0.0650    1.9690   -0.1530 ce        1 KRJ     -0.082400
     18 C18        -0.7900    2.2970   -1.2360 c2        1 KRJ     -0.155200
     19 C19        -1.6100    3.5280   -1.3330 c3        1 KRJ     -0.049200
     20 C20        -1.8290    4.1990    0.0090 c3        1 KRJ     -0.078400
     21 C21        -0.5530    4.2200    0.8230 c3        1 KRJ     -0.076400
     22 C22        -0.0370    2.8170    1.0750 c3        1 KRJ     -0.037200
     23 C23         4.4620   -0.0630    0.0510 c3        1 KRJ     -0.015400
     24 C24         5.1350   -0.6790   -1.1710 c3        1 KRJ     -0.109900
     25 C25         6.6560   -0.5500   -1.0670 c3        1 KRJ      0.148800
     26 N26         7.2380   -1.0430    0.1660 n3        1 KRJ     -0.797200
     27 C27         6.5640   -0.5260    1.3420 c3        1 KRJ      0.148800
     28 C28         5.0400   -0.6540    1.3320 c3        1 KRJ     -0.109900
     29 HN05       -4.0010   -3.6700    0.3290 hn        1 KRJ      0.332700
     30 H04        -6.4840   -2.9440    0.1300 h4        1 KRJ      0.198000
     31 HN10       -1.7260    0.2090   -0.3000 hn        1 KRJ      0.353500
     32 H12         0.6010   -2.6910   -0.0650 ha        1 KRJ      0.170000
     33 H13         3.0380   -2.4060    0.0220 ha        1 KRJ      0.136000
     34 H15         2.5800    1.8900   -0.0460 ha        1 KRJ      0.138000
     35 H18        -0.7890    1.6580   -2.1340 ha        1 KRJ      0.128000
     36 H19        -1.0930    4.2410   -2.0330 hc        1 KRJ      0.054200
     37 H19A       -2.6040    3.2780   -1.7920 hc        1 KRJ      0.054200
     38 H20        -2.1940    5.2460   -0.1520 hc        1 KRJ      0.045200
     39 H20A       -2.6240    3.6490    0.5770 hc        1 KRJ      0.045200
     40 H21         0.2270    4.8130    0.2770 hc        1 KRJ      0.042700
     41 H21A       -0.7380    4.7290    1.8040 hc        1 KRJ      0.042700
     42 H22        -0.6650    2.3190    1.8630 hc        1 KRJ      0.052200
     43 H22A        1.0120    2.8690    1.4720 hc        1 KRJ      0.052200
     44 H23         4.6970    1.0410    0.0480 hc        1 KRJ      0.054700
     45 H24         4.8470   -1.7590   -1.2570 hc        1 KRJ      0.047950
     46 H24A        4.7850   -0.1600   -2.0980 hc        1 KRJ      0.047950
     47 H25         7.1320   -1.0980   -1.9270 h1        1 KRJ      0.051950
     48 H25A        6.9320    0.5390   -1.1560 h1        1 KRJ      0.051950
     49 HN26        7.2070   -2.0470    0.1750 hn        1 KRJ      0.348800
     50 H27         6.9730   -1.0560    2.2460 h1        1 KRJ      0.051950
     51 H27A        6.8340    0.5650    1.4300 h1        1 KRJ      0.051950
     52 H28         4.6200   -0.1170    2.2190 hc        1 KRJ      0.047950
     53 H28A        4.7450   -1.7320    1.4180 hc        1 KRJ      0.047950
@<TRIPOS>BOND
     1    1    2 3   
     2    2    3 1   
     3    3    4 2   
     4    3    7 1   
     5    4    5 1   
     6    4   30 1   
     7    5    6 1   
     8    5   29 1   
     9    6    7 2   
    10    6    8 1   
    11    8    9 2   
    12    8   10 1   
    13   10   11 1   
    14   10   31 1   
    15   11   12 ar  
    16   11   16 ar  
    17   12   13 ar  
    18   12   32 1   
    19   13   14 ar  
    20   13   33 1   
    21   14   15 ar  
    22   14   23 1   
    23   15   16 ar  
    24   15   34 1   
    25   16   17 1   
    26   17   18 2   
    27   17   22 1   
    28   18   19 1   
    29   18   35 1   
    30   19   20 1   
    31   19   36 1   
    32   19   37 1   
    33   20   21 1   
    34   20   38 1   
    35   20   39 1   
    36   21   22 1   
    37   21   40 1   
    38   21   41 1   
    39   22   42 1   
    40   22   43 1   
    41   23   24 1   
    42   23   28 1   
    43   23   44 1   
    44   24   25 1   
    45   24   45 1   
    46   24   46 1   
    47   25   26 1   
    48   25   47 1   
    49   25   48 1   
    50   26   27 1   
    51   26   49 1   
    52   27   28 1   
    53   27   50 1   
    54   27   51 1   
    55   28   52 1   
    56   28   53 1   
@<TRIPOS>SUBSTRUCTURE
     1 KRJ         1 TEMP              0 ****  ****    0 ROOT
