@<TRIPOS>MOLECULE
KRJ
   53    56     1     0     0
SMALL
bcc


@<TRIPOS>ATOM
      1 N01        -1.5420    1.7030   -1.9090 n1        1 KRJ     -0.353800
      2 C02        -0.9100    1.1980   -1.0740 cg        1 KRJ      0.164800
      3 C03        -0.1360    0.5820   -0.0700 cc        1 KRJ      0.366300
      4 C04         1.0590   -0.1580   -0.2850 cd        1 KRJ     -0.174600
      5 N05         1.4790   -0.5760    0.9610 na        1 KRJ     -0.265900
      6 C06         0.5460   -0.0920    1.9000 cd        1 KRJ      0.337000
      7 N07        -0.4420    0.6140    1.2930 nc        1 KRJ     -0.604000
      8 C08         0.7200   -0.3800    3.3630 c         1 KRJ      0.608600
      9 O09         1.7030   -1.0590    3.7230 o         1 KRJ     -0.607100
     10 N10        -0.2320    0.1520    4.2020 n         1 KRJ     -0.438100
     11 C11        -0.3060   -0.0200    5.5980 ca        1 KRJ      0.064600
     12 C12         0.7470   -0.5730    6.3560 ca        1 KRJ     -0.151000
     13 C13         0.6280   -0.7140    7.7330 ca        1 KRJ     -0.103000
     14 C14        -0.5310   -0.3130    8.4030 ca        1 KRJ     -0.094300
     15 C15        -1.5790    0.2370    7.6600 ca        1 KRJ     -0.096000
     16 C16        -1.4870    0.3930    6.2740 ca        1 KRJ     -0.088800
     17 C17        -2.6250    0.9810    5.5570 ce        1 KRJ     -0.081400
     18 C18        -2.5460    2.1820    4.9580 c2        1 KRJ     -0.156200
     19 C19        -3.6760    2.8200    4.2430 c3        1 KRJ     -0.049200
     20 C20        -4.8110    1.8560    3.9550 c3        1 KRJ     -0.078400
     21 C21        -5.0930    0.9720    5.1510 c3        1 KRJ     -0.076400
     22 C22        -3.8720    0.1620    5.5370 c3        1 KRJ     -0.037200
     23 C23        -0.6630   -0.4630    9.8840 c3        1 KRJ     -0.017400
     24 C24         0.3970    0.3520   10.6170 c3        1 KRJ     -0.072400
     25 C25         0.2780    0.1590   12.1280 c3        1 KRJ      0.162800
     26 N26         0.2950   -1.2340   12.5300 n3        1 KRJ     -0.820200
     27 C27        -0.6630   -2.0610   11.8210 c3        1 KRJ      0.162800
     28 C28        -0.5690   -1.9250   10.3020 c3        1 KRJ     -0.072400
     29 HN05        2.2770   -1.1170    1.1880 hn        1 KRJ      0.333700
     30 H04         1.5930   -0.3900   -1.2060 h4        1 KRJ      0.198000
     31 HN10       -0.9990    0.6470    3.7900 hn        1 KRJ      0.352500
     32 H12         1.6780   -0.9050    5.8660 ha        1 KRJ      0.171000
     33 H13         1.4660   -1.1490    8.3010 ha        1 KRJ      0.140000
     34 H15        -2.5010    0.5610    8.1680 ha        1 KRJ      0.137000
     35 H18        -1.6160    2.7720    4.9920 ha        1 KRJ      0.128000
     36 H19        -4.0550    3.6720    4.8720 hc        1 KRJ      0.053700
     37 H19A       -3.3070    3.2600    3.2780 hc        1 KRJ      0.053700
     38 H20        -4.5440    1.2160    3.0730 hc        1 KRJ      0.044700
     39 H20A       -5.7320    2.4330    3.6830 hc        1 KRJ      0.044700
     40 H21        -5.4100    1.6100    6.0180 hc        1 KRJ      0.042200
     41 H21A       -5.9410    0.2770    4.9170 hc        1 KRJ      0.042200
     42 H22        -4.0340   -0.3010    6.5480 hc        1 KRJ      0.052200
     43 H22A       -3.7310   -0.6800    4.8060 hc        1 KRJ      0.052200
     44 H23        -1.6750   -0.0770   10.2010 hc        1 KRJ      0.049700
     45 H24         0.2720    1.4400   10.3840 hc        1 KRJ      0.051450
     46 H24A        1.4170    0.0400   10.2720 hc        1 KRJ      0.051450
     47 H25         1.1550    0.6590   12.6290 h1        1 KRJ      0.026700
     48 H25A       -0.6590    0.6880   12.4760 h1        1 KRJ      0.026700
     49 HN26        0.1410   -1.3060   13.5180 hn        1 KRJ      0.361800
     50 H27        -1.7270   -1.8310   12.1280 h1        1 KRJ      0.026700
     51 H27A       -0.4530   -3.1310   12.1040 h1        1 KRJ      0.026700
     52 H28        -1.4030   -2.5100    9.8380 hc        1 KRJ      0.051450
     53 H28A        0.3990   -2.3590    9.9410 hc        1 KRJ      0.051450
@<TRIPOS>BOND
     1    1    2 3   
     2    2    3 1   
     3    3    4 2   
     4    3    7 1   
     5    4    5 1   
     6    4   30 1   
     7    5    6 1   
     8    5   29 1   
     9    6    7 2   
    10    6    8 1   
    11    8    9 2   
    12    8   10 1   
    13   10   11 1   
    14   10   31 1   
    15   11   12 ar  
    16   11   16 ar  
    17   12   13 ar  
    18   12   32 1   
    19   13   14 ar  
    20   13   33 1   
    21   14   15 ar  
    22   14   23 1   
    23   15   16 ar  
    24   15   34 1   
    25   16   17 1   
    26   17   18 2   
    27   17   22 1   
    28   18   19 1   
    29   18   35 1   
    30   19   20 1   
    31   19   36 1   
    32   19   37 1   
    33   20   21 1   
    34   20   38 1   
    35   20   39 1   
    36   21   22 1   
    37   21   40 1   
    38   21   41 1   
    39   22   42 1   
    40   22   43 1   
    41   23   24 1   
    42   23   28 1   
    43   23   44 1   
    44   24   25 1   
    45   24   45 1   
    46   24   46 1   
    47   25   26 1   
    48   25   47 1   
    49   25   48 1   
    50   26   27 1   
    51   26   49 1   
    52   27   28 1   
    53   27   50 1   
    54   27   51 1   
    55   28   52 1   
    56   28   53 1   
@<TRIPOS>SUBSTRUCTURE
     1 KRJ         1 TEMP              0 ****  ****    0 ROOT
