@<TRIPOS>MOLECULE
KRL
   57    58     1     0     0
SMALL
bcc


@<TRIPOS>ATOM
      1 C01         3.7960   -0.0200   -0.1280 c3        1 KRL     -0.164000
      2 N02         2.4070   -0.1040    0.2870 n3        1 KRL     -0.138000
      3 C03         1.7110    0.8560    0.8260 c1        1 KRL     -0.217000
      4 C04        -0.1330   -0.6180    2.7460 c3        1 KRL     -0.111000
      5 N05         0.1840   -1.7610    1.9240 nh        1 KRL     -0.226000
      6 C06         0.3440   -1.5500    0.5030 c3        1 KRL     -0.026000
      7 C07         1.7970   -1.3980    0.0080 c3        1 KRL     -0.062000
      8 C08         0.3870   -2.9880    2.4960 ca        1 KRL      0.175000
      9 C09         0.1370   -3.2070    3.8890 ca        1 KRL     -0.199000
     10 C10         0.3640   -4.4290    4.4740 ca        1 KRL     -0.047000
     11 C11         0.8400   -5.5390    3.7270 ca        1 KRL     -0.156000
     12 N12         1.1630   -6.7090    4.4490 nh        1 KRL     -0.115000
     13 C13         1.3310   -7.9760    4.0690 c2        1 KRL      0.320000
     14 O14         1.2480   -8.4780    2.8110 os        1 KRL     -0.180000
     15 C15         1.6850   -9.0180    5.0170 c2        1 KRL     -0.122000
     16 C16         1.9360  -10.3770    4.8620 c2        1 KRL     -0.024000
     17 C17         2.2430  -10.8920    6.1690 c2        1 KRL     -0.151000
     18 C18         2.1650   -9.8190    7.0480 c2        1 KRL      0.134000
     19 C19         2.3570   -9.7030    8.4370 c1        1 KRL     -0.114000
     20 N20         2.5200   -9.6250    9.5850 n1        1 KRL      0.089000
     21 O21         1.8220   -8.6440    6.3680 os        1 KRL     -0.093000
     22 C22         1.0340   -5.3580    2.3280 ca        1 KRL      0.120000
     23 C23         0.8260   -4.1130    1.7380 ca        1 KRL     -0.205000
     24 N24         1.4350   -6.4600    1.5050 nh        1 KRL     -0.167000
     25 C25         2.3650   -6.2930    0.5850 c1        1 KRL     -0.066000
     26 C26         2.9350   -9.9070   -0.3110 c3        1 KRL     -0.217000
     27 C27         1.7640   -9.8150   -1.2540 c3        1 KRL     -0.169000
     28 C28         0.6260  -10.7070   -0.8320 c3        1 KRL     -0.217000
     29 C29         0.6820   -7.6790    1.7440 c3        1 KRL      0.006000
     30 H01         3.8850   -0.2280   -1.2280 h1        1 KRL      0.098333
     31 H01A        4.1920    1.0080    0.0820 h1        1 KRL      0.098333
     32 H01B        4.4130   -0.7710    0.4320 h1        1 KRL      0.098333
     33 H03         0.0070    0.3280    2.1440 h1        1 KRL      0.112000
     34 H03A        2.2250    1.8230    0.9920 ha        1 KRL      0.071000
     35 H04         0.5520   -0.5710    3.6340 h1        1 KRL      0.112000
     36 H04A       -1.1960   -0.6910    3.1030 h1        1 KRL      0.112000
     37 H06        -0.2380   -0.6230    0.2230 h1        1 KRL      0.123000
     38 H06A       -0.1050   -2.4250   -0.0510 h1        1 KRL      0.123000
     39 H07         1.7820   -1.5420   -1.1110 h1        1 KRL      0.102000
     40 H07A        2.4490   -2.2010    0.4570 h1        1 KRL      0.102000
     41 H09        -0.2480   -2.3870    4.5180 ha        1 KRL      0.168000
     42 H10         0.1680   -4.5370    5.5560 ha        1 KRL      0.150000
     43 HN12        1.2700   -6.5430    5.4440 hn        1 KRL      0.289000
     44 H16         1.9070  -10.9470    3.9300 ha        1 KRL      0.201000
     45 H17         2.4900  -11.9260    6.4120 ha        1 KRL      0.207000
     46 H23         1.0450   -4.0060    0.6600 ha        1 KRL      0.176000
     47 H25         2.6360   -9.6100    0.7250 hc        1 KRL      0.074000
     48 H25A        2.6220   -7.1910   -0.0210 ha        1 KRL      0.074000
     49 H26         3.7620   -9.2350   -0.6470 hc        1 KRL      0.074000
     50 H26A        3.3260  -10.9530   -0.2730 hc        1 KRL      0.074000
     51 H27         1.4080   -8.7510   -1.3130 hc        1 KRL      0.081000
     52 H27A        2.0960  -10.1020   -2.2880 hc        1 KRL      0.081000
     53 H28         0.9510  -11.7760   -0.8170 hc        1 KRL      0.074000
     54 H28A       -0.2310  -10.6110   -1.5420 hc        1 KRL      0.074000
     55 H29         0.7800   -8.3950    0.8670 h2        1 KRL      0.160500
     56 H29A        0.2670  -10.4400    0.1930 hc        1 KRL      0.074000
     57 H122       -0.3960   -7.4650    1.9890 h2        1 KRL      0.160500
@<TRIPOS>BOND
     1    1    2 1   
     2    1   30 1   
     3    1   31 1   
     4    1   32 1   
     5    2    3 1   
     6    2    7 1   
     7    3   34 1   
     8    4    5 1   
     9    4   33 1   
    10    4   35 1   
    11    4   36 1   
    12    5    6 1   
    13    5    8 1   
    14    6    7 1   
    15    6   37 1   
    16    6   38 1   
    17    7   39 1   
    18    7   40 1   
    19    8    9 1   
    20    8   23 1   
    21    9   10 1   
    22    9   41 1   
    23   10   11 1   
    24   10   42 1   
    25   11   12 1   
    26   11   22 1   
    27   12   13 1   
    28   12   43 1   
    29   13   14 1   
    30   13   15 1   
    31   14   29 1   
    32   15   16 1   
    33   15   21 1   
    34   16   17 1   
    35   16   44 1   
    36   17   18 1   
    37   17   45 1   
    38   18   19 1   
    39   18   21 1   
    40   19   20 1   
    41   22   23 1   
    42   22   24 1   
    43   23   46 1   
    44   24   25 1   
    45   24   29 1   
    46   25   48 1   
    47   26   27 1   
    48   26   47 1   
    49   26   49 1   
    50   26   50 1   
    51   27   28 1   
    52   27   51 1   
    53   27   52 1   
    54   28   53 1   
    55   28   54 1   
    56   28   56 1   
    57   29   55 1   
    58   29   57 1   
@<TRIPOS>SUBSTRUCTURE
     1 KRL         1 TEMP              0 ****  ****    0 ROOT
