@<TRIPOS>MOLECULE
KRL
   56    58     1     0     0
SMALL
bcc


@<TRIPOS>ATOM
      1 C01         0.4070   -0.4480   -0.8720 c3        1 KRL      0.173100
      2 N02         1.5910   -0.0500   -0.1550 nh        1 KRL     -0.655400
      3 C03         1.4130    0.5500    1.1010 c2        1 KRL      0.030000
      4 C04         0.2490    0.9050    1.6690 c2        1 KRL     -0.311000
      5 N05         2.4760   -2.4100    1.7040 nu        1 KRL     -0.723600
      6 C06         2.5870   -2.3580    0.2660 c3        1 KRL      0.147800
      7 C07         2.7320   -0.9260   -0.2930 c3        1 KRL      0.185800
      8 C08         2.0740   -3.6240    2.2900 ca        1 KRL      0.131600
      9 C09         1.5080   -3.6250    3.5860 ca        1 KRL     -0.166000
     10 C10         1.1980   -4.8120    4.2260 ca        1 KRL     -0.109000
     11 C11         1.4170   -6.0630    3.6120 ca        1 KRL      0.039600
     12 N12         1.1320   -7.2710    4.2780 ns        1 KRL     -0.436100
     13 C13         0.1620   -7.4370    5.2470 c         1 KRL      0.591600
     14 O14        -0.5020   -6.5070    5.7470 o         1 KRL     -0.588100
     15 C15        -0.0670   -8.8150    5.7420 cc        1 KRL      0.212200
     16 C16        -0.9140   -9.2720    6.7390 cd        1 KRL     -0.190300
     17 C17        -0.7450  -10.7030    6.8030 cd        1 KRL     -0.203300
     18 C18         0.1950  -11.0320    5.8400 cc        1 KRL      0.338700
     19 C19         0.7610  -12.2530    5.4360 cg        1 KRL      0.146800
     20 N20         1.2190  -13.2720    5.1140 n1        1 KRL     -0.322800
     21 O21         0.6330   -9.8810    5.1670 os        1 KRL     -0.338800
     22 C22         1.9780   -6.0800    2.2980 ca        1 KRL      0.083600
     23 C23         2.2930   -4.8660    1.6650 ca        1 KRL     -0.191000
     24 N24         2.2150   -7.3440    1.6530 nh        1 KRL     -0.635000
     25 C25         3.6280   -7.5720    1.3690 c3        1 KRL      0.173800
     26 C26         3.8880   -8.9310    0.7220 c3        1 KRL     -0.079400
     27 C27         3.0270   -9.1240   -0.5090 c3        1 KRL     -0.079400
     28 C28         1.5680   -8.9020   -0.1760 c3        1 KRL     -0.079400
     29 C29         1.3540   -7.5440    0.4910 c3        1 KRL      0.173800
     30 H01        -0.2560    0.4500   -0.9990 h1        1 KRL      0.038367
     31 H01A       -0.1770   -1.2480   -0.3400 h1        1 KRL      0.038367
     32 H01B        0.6970   -0.8290   -1.8850 h1        1 KRL      0.038367
     33 H03         2.3740    0.7960    1.5990 h4        1 KRL      0.136000
     34 H03A        0.2390    1.4620    2.6140 ha        1 KRL      0.120500
     35 H04        -0.7360    0.6900    1.2400 ha        1 KRL      0.120500
     36 H04A        2.0020   -1.6200    2.0970 hn        1 KRL      0.399800
     37 H06         3.5190   -2.9240   -0.0240 h1        1 KRL      0.042200
     38 H06A        3.6230   -0.4300    0.1850 h1        1 KRL      0.063700
     39 H07         1.7120   -2.8620   -0.2410 h1        1 KRL      0.042200
     40 H07A        2.9430   -1.0320   -1.3960 h1        1 KRL      0.063700
     41 H09         1.3140   -2.6750    4.1070 ha        1 KRL      0.139000
     42 H10         0.7570   -4.7680    5.2380 ha        1 KRL      0.169000
     43 HN12        1.5340   -8.0980    3.8850 hn        1 KRL      0.347500
     44 H16        -1.5790   -8.6680    7.3540 ha        1 KRL      0.188000
     45 H17        -1.2620  -11.3800    7.4800 ha        1 KRL      0.178000
     46 H23         2.7280   -4.8990    0.6530 ha        1 KRL      0.136000
     47 H25         4.0510   -6.7700    0.6950 h1        1 KRL      0.035700
     48 H25A        4.1800   -7.5190    2.3490 h1        1 KRL      0.035700
     49 H26         4.9730   -8.9890    0.4480 hc        1 KRL      0.048950
     50 H26A        3.6780   -9.7490    1.4590 hc        1 KRL      0.048950
     51 H27         3.3460   -8.4020   -1.3070 hc        1 KRL      0.041200
     52 H27A        3.1710  -10.1590   -0.9140 hc        1 KRL      0.041200
     53 H28         0.9490   -8.9350   -1.1090 hc        1 KRL      0.048950
     54 H28A        1.2080   -9.7180    0.5030 hc        1 KRL      0.048950
     55 H29         1.5130   -6.7360   -0.2830 h1        1 KRL      0.035700
     56 H29A        0.2880   -7.4710    0.8460 h1        1 KRL      0.035700
@<TRIPOS>BOND
     1    1    2 1   
     2    1   30 1   
     3    1   31 1   
     4    1   32 1   
     5    2    3 1   
     6    2    7 1   
     7    3    4 2   
     8    3   33 1   
     9    4   34 1   
    10    4   35 1   
    11    5    6 1   
    12    5    8 1   
    13    5   36 1   
    14    6    7 1   
    15    6   37 1   
    16    6   39 1   
    17    7   38 1   
    18    7   40 1   
    19    8    9 ar  
    20    8   23 ar  
    21    9   10 ar  
    22    9   41 1   
    23   10   11 ar  
    24   10   42 1   
    25   11   12 1   
    26   11   22 ar  
    27   12   13 1   
    28   12   43 1   
    29   13   14 2   
    30   13   15 1   
    31   15   16 2   
    32   15   21 1   
    33   16   17 1   
    34   16   44 1   
    35   17   18 2   
    36   17   45 1   
    37   18   19 1   
    38   18   21 1   
    39   19   20 3   
    40   22   23 ar  
    41   22   24 1   
    42   23   46 1   
    43   24   25 1   
    44   24   29 1   
    45   25   26 1   
    46   25   47 1   
    47   25   48 1   
    48   26   27 1   
    49   26   49 1   
    50   26   50 1   
    51   27   28 1   
    52   27   51 1   
    53   27   52 1   
    54   28   29 1   
    55   28   53 1   
    56   28   54 1   
    57   29   55 1   
    58   29   56 1   
@<TRIPOS>SUBSTRUCTURE
     1 KRL         1 TEMP              0 ****  ****    0 ROOT
