@<TRIPOS>MOLECULE
KRL
   56    54     1     0     0
SMALL
bcc


@<TRIPOS>ATOM
      1 C01         0.8090   -1.8750   -5.4340 c3        1 KRL     -0.120000
      2 N02         0.5460   -2.7700   -4.3310 n3        1 KRL     -0.255000
      3 C03        -0.7660   -2.5750   -3.8660 c3        1 KRL     -0.101500
      4 C04        -1.0660   -3.3870   -2.6100 c3        1 KRL     -0.058500
      5 N05        -0.0940   -3.1880   -1.5950 n3        1 KRL     -0.225000
      6 C06         1.2310   -3.3780   -2.0650 c3        1 KRL     -0.058500
      7 C07         1.5220   -2.5730   -3.3130 c3        1 KRL     -0.101500
      8 C08        -0.2390   -1.8340   -1.0380 c2        1 KRL      0.029000
      9 C09        -1.1640   -0.9230   -1.6280 c2        1 KRL     -0.154000
     10 C10        -1.4410    0.2590   -1.0110 c1        1 KRL     -0.125000
     11 C11        -0.8190    0.5820    0.2040 c2        1 KRL      0.065000
     12 N12        -1.1410    1.8180    0.8770 n         1 KRL     -0.301000
     13 C13        -1.6630    2.9180    0.1340 c2        1 KRL      0.373000
     14 O14        -1.8340    2.8180   -1.0560 o         1 KRL     -0.322000
     15 C15        -2.0370    4.1790    0.8370 c2        1 KRL     -0.067000
     16 C16        -1.1390    5.0950    1.4330 c1        1 KRL     -0.162000
     17 C17        -1.8690    6.1410    1.9350 c1        1 KRL     -0.140000
     18 C18        -3.1880    5.9020    1.6680 c1        1 KRL      0.037000
     19 C19        -4.3560    6.8620    1.9890 c1        1 KRL     -0.072000
     20 N20        -5.2300    7.5830    2.2340 n1        1 KRL      0.007000
     21 O21        -3.2820    4.6670    0.9780 os        1 KRL     -0.033000
     22 C22         0.0800   -0.3030    0.7780 c1        1 KRL     -0.019000
     23 C23         0.3670   -1.5180    0.1470 c1        1 KRL     -0.154000
     24 N24         0.6390   -0.0200    2.0870 n3        1 KRL     -0.237000
     25 C25         0.3280   -1.1090    2.9800 c3        1 KRL     -0.066500
     26 C26         1.0180   -0.9680    4.3460 c3        1 KRL     -0.157000
     27 C27         2.4770   -0.7400    4.2240 c3        1 KRL     -0.159000
     28 C28         2.7900    0.3610    3.3280 c3        1 KRL     -0.157000
     29 C29         2.0930    0.2170    1.9590 c3        1 KRL     -0.066500
     30 H01         0.2090   -2.1130   -6.2100 h1        1 KRL      0.072667
     31 H01A        0.6400   -0.9930   -5.1680 h1        1 KRL      0.072667
     32 H01B        1.7530   -1.9590   -5.7080 h1        1 KRL      0.072667
     33 H03        -0.8810   -1.6650   -3.6720 h1        1 KRL      0.076750
     34 H03A       -1.4020   -2.8310   -4.5760 h1        1 KRL      0.076750
     35 H04        -1.0890   -4.2860   -2.8330 h1        1 KRL      0.101500
     36 H04A       -1.9010   -3.1360   -2.2780 h1        1 KRL      0.101500
     37 H06         1.3610   -4.2770   -2.2510 h1        1 KRL      0.101500
     38 H06A        1.8760   -3.1010   -1.3460 h1        1 KRL      0.101500
     39 H07         2.3610   -2.8240   -3.6460 h1        1 KRL      0.076750
     40 H07A        1.5460   -1.6200   -3.0740 h1        1 KRL      0.076750
     41 H09        -1.6190   -1.1580   -2.5140 ha        1 KRL      0.139000
     42 H10        -2.0530    0.8600   -1.4000 DU        1 KRL      0.173667
     43 HN12       -0.8920    1.9390    1.8280 hn        1 KRL      0.251000
     44 H16        -0.1560    4.9980    1.4810 DU        1 KRL      0.173667
     45 H17        -1.5100    6.9200    2.4020 DU        1 KRL      0.173667
     46 H23         0.9970   -2.1380    0.5520 ha        1 KRL      0.141000
     47 H25         0.6020   -1.9120    2.5820 h1        1 KRL      0.077500
     48 H25A       -0.5900   -1.1370    3.1100 h1        1 KRL      0.077500
     49 H26         0.8640   -1.7880    4.8710 hc        1 KRL      0.086000
     50 H26A        0.6040   -0.1780    4.8420 hc        1 KRL      0.086000
     51 H27         2.8250   -0.5540    5.0660 hc        1 KRL      0.082500
     52 H27A        2.8680   -1.5040    3.9000 hc        1 KRL      0.082500
     53 H28         3.7940    0.3930    3.1830 hc        1 KRL      0.086000
     54 H28A        2.4810    1.2670    3.7780 hc        1 KRL      0.086000
     55 H29         2.2450    1.0900    1.4110 h1        1 KRL      0.077500
     56 H29A        2.4930   -0.5310    1.4770 h1        1 KRL      0.077500
@<TRIPOS>BOND
     1    1    2 1   
     2    1   30 1   
     3    1   31 1   
     4    1   32 1   
     5    2    3 1   
     6    2    7 1   
     7    3    4 1   
     8    3   33 1   
     9    3   34 1   
    10    4    5 1   
    11    4   35 1   
    12    4   36 1   
    13    5    6 1   
    14    5    8 1   
    15    6    7 1   
    16    6   37 1   
    17    6   38 1   
    18    7   39 1   
    19    7   40 1   
    20    8    9 1   
    21    8   23 1   
    22    9   10 1   
    23    9   41 1   
    24   10   11 1   
    25   11   12 1   
    26   11   22 1   
    27   12   13 1   
    28   12   43 1   
    29   13   14 1   
    30   13   15 1   
    31   15   16 1   
    32   15   21 1   
    33   16   17 1   
    34   17   18 1   
    35   18   21 1   
    36   19   20 1   
    37   22   24 1   
    38   23   46 1   
    39   24   25 1   
    40   24   29 1   
    41   25   26 1   
    42   25   47 1   
    43   25   48 1   
    44   26   27 1   
    45   26   49 1   
    46   26   50 1   
    47   27   28 1   
    48   27   51 1   
    49   27   52 1   
    50   28   29 1   
    51   28   53 1   
    52   28   54 1   
    53   29   55 1   
    54   29   56 1   
@<TRIPOS>SUBSTRUCTURE
     1 KRL         1 TEMP              0 ****  ****    0 ROOT
