@<TRIPOS>MOLECULE
KRL
   56    59     1     0     0
SMALL
bcc


@<TRIPOS>ATOM
      1 C01        -7.2450    1.5520    1.1540 c3        1 KRL      0.147100
      2 N02        -6.8750    0.7010    0.0450 n3        1 KRL     -0.719600
      3 C03        -6.1850    1.4040   -1.0250 c3        1 KRL      0.160300
      4 C04        -4.6800    1.6590   -0.7820 c3        1 KRL      0.150800
      5 N05        -3.9760    0.4480   -0.3920 nh        1 KRL     -0.629000
      6 C06        -4.6260   -0.2660    0.6990 c3        1 KRL      0.150800
      7 C07        -6.1330   -0.4850    0.4410 c3        1 KRL      0.160300
      8 C08        -2.5640    0.5580   -0.2800 ca        1 KRL      0.120600
      9 C09        -1.8830    1.7890   -0.3600 ca        1 KRL     -0.159000
     10 C10        -0.4980    1.8460   -0.3360 ca        1 KRL     -0.125000
     11 C11         0.2870    0.6830   -0.2130 ca        1 KRL      0.054600
     12 N12         1.6940    0.7340   -0.2100 n         1 KRL     -0.438100
     13 C13         2.4590    1.8190    0.1720 c         1 KRL      0.593600
     14 O14         1.9970    2.9400    0.4650 o         1 KRL     -0.586100
     15 C15         3.9280    1.6300    0.2020 cc        1 KRL      0.211200
     16 C16         4.9350    2.5370    0.4900 cd        1 KRL     -0.189300
     17 C17         6.1820    1.8220    0.3780 cd        1 KRL     -0.204300
     18 C18         5.8600    0.5200    0.0290 cc        1 KRL      0.339700
     19 C19         6.6390   -0.6230   -0.2170 cg        1 KRL      0.146800
     20 N20         7.2980   -1.5600   -0.4170 n1        1 KRL     -0.321800
     21 O21         4.4690    0.3730   -0.0870 os        1 KRL     -0.338800
     22 C22        -0.3860   -0.5770   -0.1270 ca        1 KRL      0.070600
     23 C23        -1.7870   -0.6130   -0.1680 ca        1 KRL     -0.159000
     24 N24         0.3930   -1.7810   -0.0130 nh        1 KRL     -0.635000
     25 C25         0.2120   -2.6750   -1.1540 c3        1 KRL      0.173300
     26 C26         1.0680   -3.9360   -1.0560 c3        1 KRL     -0.079400
     27 C27         0.8420   -4.6490    0.2590 c3        1 KRL     -0.079400
     28 C28         1.0590   -3.7020    1.4200 c3        1 KRL     -0.079400
     29 C29         0.2050   -2.4440    1.2740 c3        1 KRL      0.173300
     30 H01        -7.8830    2.3900    0.7700 h1        1 KRL      0.032700
     31 H01A       -7.8470    0.9510    1.8850 h1        1 KRL      0.032700
     32 H01B       -6.3640    1.9940    1.6960 h1        1 KRL      0.032700
     33 H03        -6.3050    0.7800   -1.9550 h1        1 KRL      0.060200
     34 H03A       -6.6770    2.3990   -1.2010 h1        1 KRL      0.060200
     35 H04        -4.2270    2.0310   -1.7430 h1        1 KRL      0.040700
     36 H04A       -4.5760    2.4710   -0.0050 h1        1 KRL      0.040700
     37 H06        -4.1420   -1.2750    0.8070 h1        1 KRL      0.040700
     38 H06A       -4.5000    0.2840    1.6770 h1        1 KRL      0.040700
     39 H07        -6.5830   -0.9150    1.3770 h1        1 KRL      0.060200
     40 H07A       -6.2550   -1.2360   -0.3890 h1        1 KRL      0.060200
     41 H09        -2.4360    2.7380   -0.4480 ha        1 KRL      0.138000
     42 H10        -0.0110    2.8350   -0.4030 ha        1 KRL      0.169000
     43 HN12        2.1680   -0.1370   -0.3390 hn        1 KRL      0.349500
     44 H16         4.8090    3.5870    0.7510 ha        1 KRL      0.188000
     45 H17         7.1750    2.2350    0.5400 ha        1 KRL      0.179000
     46 H23        -2.2890   -1.5950   -0.1200 ha        1 KRL      0.140000
     47 H25        -0.8680   -2.9840   -1.2710 h1        1 KRL      0.036450
     48 H25A        0.5050   -2.1010   -2.0780 h1        1 KRL      0.036450
     49 H26         0.8010   -4.6090   -1.9110 hc        1 KRL      0.048450
     50 H26A        2.1520   -3.6680   -1.1590 hc        1 KRL      0.048450
     51 H27        -0.2040   -5.0530    0.2930 hc        1 KRL      0.041700
     52 H27A        1.5420   -5.5200    0.3440 hc        1 KRL      0.041700
     53 H28         0.7840   -4.2030    2.3840 hc        1 KRL      0.048450
     54 H28A        2.1430   -3.4200    1.4790 hc        1 KRL      0.048450
     55 H29         0.4920   -1.7080    2.0760 h1        1 KRL      0.036450
     56 H29A       -0.8770   -2.7250    1.4370 h1        1 KRL      0.036450
@<TRIPOS>BOND
     1    1    2 1   
     2    1   30 1   
     3    1   31 1   
     4    1   32 1   
     5    2    3 1   
     6    2    7 1   
     7    3    4 1   
     8    3   33 1   
     9    3   34 1   
    10    4    5 1   
    11    4   35 1   
    12    4   36 1   
    13    5    6 1   
    14    5    8 1   
    15    6    7 1   
    16    6   37 1   
    17    6   38 1   
    18    7   39 1   
    19    7   40 1   
    20    8    9 ar  
    21    8   23 ar  
    22    9   10 ar  
    23    9   41 1   
    24   10   11 ar  
    25   10   42 1   
    26   11   12 1   
    27   11   22 ar  
    28   12   13 1   
    29   12   43 1   
    30   13   14 2   
    31   13   15 1   
    32   15   16 2   
    33   15   21 1   
    34   16   17 1   
    35   16   44 1   
    36   17   18 2   
    37   17   45 1   
    38   18   19 1   
    39   18   21 1   
    40   19   20 3   
    41   22   23 ar  
    42   22   24 1   
    43   23   46 1   
    44   24   25 1   
    45   24   29 1   
    46   25   26 1   
    47   25   47 1   
    48   25   48 1   
    49   26   27 1   
    50   26   49 1   
    51   26   50 1   
    52   27   28 1   
    53   27   51 1   
    54   27   52 1   
    55   28   29 1   
    56   28   53 1   
    57   28   54 1   
    58   29   55 1   
    59   29   56 1   
@<TRIPOS>SUBSTRUCTURE
     1 KRL         1 TEMP              0 ****  ****    0 ROOT
