@<TRIPOS>MOLECULE
KRM
   43    46     1     0     0
SMALL
bcc


@<TRIPOS>ATOM
      1 C24        -5.7870   -0.5670   -0.4010 c3        1 KRM      0.142800
      2 C23        -7.0060    0.2850   -0.7760 c3        1 KRM      0.123900
      3 O22        -7.1280    1.4320    0.0570 os        1 KRM     -0.415600
      4 C21        -5.9550    2.2370    0.0360 c3        1 KRM      0.123900
      5 C20        -4.7100    1.4360    0.4380 c3        1 KRM      0.142800
      6 N19        -4.5630    0.2260   -0.3690 nh        1 KRM     -0.694300
      7 C16        -3.3820   -0.4950   -0.0850 cc        1 KRM      0.502200
      8 C15        -2.0450    0.0850   -0.1160 cc        1 KRM     -0.290300
      9 N17        -3.2860   -1.8510    0.1710 nd        1 KRM     -0.547800
     10 N18        -1.9910   -2.1220    0.2950 na        1 KRM     -0.010600
     11 C14        -1.1750   -0.9930    0.1240 cd        1 KRM     -0.042300
     12 C11         0.2720   -1.0060    0.1990 ca        1 KRM     -0.047000
     13 C10         0.9550   -1.9380    0.9950 ca        1 KRM     -0.091000
     14 C9          2.3430   -1.9290    1.0630 ca        1 KRM     -0.161000
     15 C12         1.0030   -0.0570   -0.5330 ca        1 KRM     -0.091000
     16 C13         2.3930   -0.0370   -0.4770 ca        1 KRM     -0.161000
     17 C8          3.0580   -0.9760    0.3200 ca        1 KRM      0.119100
     18 O7          4.4410   -1.0970    0.3770 os        1 KRM     -0.248200
     19 C6          5.1840    0.0620    0.1590 ca        1 KRM      0.096100
     20 C1          4.8520    1.2920    0.7400 ca        1 KRM     -0.151000
     21 C5          6.3590   -0.0970   -0.5910 ca        1 KRM     -0.151000
     22 C4          7.2080    0.9970   -0.7460 ca        1 KRM     -0.110500
     23 C3          6.8880    2.2280   -0.1730 ca        1 KRM     -0.144000
     24 C2          5.7140    2.3740    0.5660 ca        1 KRM     -0.110500
     25 H241       -5.9880   -1.0610    0.5940 h1        1 KRM      0.052700
     26 H242       -5.6610   -1.3740   -1.1750 h1        1 KRM      0.052700
     27 H231       -6.9530    0.6060   -1.8500 h1        1 KRM      0.054950
     28 H232       -7.9490   -0.2950   -0.5930 h1        1 KRM      0.054950
     29 H211       -5.8270    2.6870   -0.9840 h1        1 KRM      0.054950
     30 H212       -6.1530    3.0410    0.7920 h1        1 KRM      0.054950
     31 H201       -3.8000    2.0770    0.2770 h1        1 KRM      0.052700
     32 H202       -4.7800    1.1920    1.5370 h1        1 KRM      0.052700
     33 H15        -1.7870    1.1220   -0.2900 ha        1 KRM      0.167000
     34 H18        -1.6870   -3.0610    0.4010 hn        1 KRM      0.321700
     35 H10         0.3970   -2.6780    1.5880 ha        1 KRM      0.140000
     36 H12         0.4690    0.6730   -1.1620 ha        1 KRM      0.140000
     37 H9          2.8870   -2.6570    1.6830 ha        1 KRM      0.153500
     38 H13         2.9660    0.7050   -1.0530 ha        1 KRM      0.153500
     39 H1          3.9250    1.3940    1.3220 ha        1 KRM      0.149500
     40 H5          6.5990   -1.0750   -1.0320 ha        1 KRM      0.149500
     41 H2          5.4650    3.3450    1.0200 ha        1 KRM      0.136500
     42 H4          8.1360    0.8850   -1.3270 ha        1 KRM      0.136500
     43 H3          7.5640    3.0860   -0.3030 ha        1 KRM      0.136000
@<TRIPOS>BOND
     1    1    2 1   
     2    1    6 1   
     3    1   25 1   
     4    1   26 1   
     5    2    3 1   
     6    2   27 1   
     7    2   28 1   
     8    3    4 1   
     9    4    5 1   
    10    4   29 1   
    11    4   30 1   
    12    5    6 1   
    13    5   31 1   
    14    5   32 1   
    15    6    7 1   
    16    7    8 1   
    17    7    9 2   
    18    8   11 2   
    19    8   33 1   
    20    9   10 1   
    21   10   11 1   
    22   10   34 1   
    23   11   12 1   
    24   12   13 ar  
    25   12   15 ar  
    26   13   14 ar  
    27   13   35 1   
    28   14   17 ar  
    29   14   37 1   
    30   15   16 ar  
    31   15   36 1   
    32   16   17 ar  
    33   16   38 1   
    34   17   18 1   
    35   18   19 1   
    36   19   20 ar  
    37   19   21 ar  
    38   20   24 ar  
    39   20   39 1   
    40   21   22 ar  
    41   21   40 1   
    42   22   23 ar  
    43   22   42 1   
    44   23   24 ar  
    45   23   43 1   
    46   24   41 1   
@<TRIPOS>SUBSTRUCTURE
     1 KRM         1 TEMP              0 ****  ****    0 ROOT
