@<TRIPOS>MOLECULE
KRM
   43    46     1     0     0
SMALL
bcc


@<TRIPOS>ATOM
      1 C24         0.2420   -0.5710   -0.3530 c3        1 KRM      0.142800
      2 C23         1.7680   -0.5840   -0.1920 c3        1 KRM      0.123900
      3 O22         2.1740   -0.0080    1.0450 os        1 KRM     -0.415600
      4 C21         1.5680   -0.6490    2.1600 c3        1 KRM      0.123900
      5 C20         0.0370   -0.6320    2.0620 c3        1 KRM      0.142800
      6 N19        -0.4280   -1.1830    0.7900 nh        1 KRM     -0.694300
      7 C16        -1.8350   -1.2610    0.6960 cc        1 KRM      0.502200
      8 C15        -2.6820   -1.9330    1.6740 cc        1 KRM     -0.290300
      9 N17        -2.6160   -0.8110   -0.3530 nd        1 KRM     -0.547800
     10 N18        -3.8660   -1.1650   -0.0720 na        1 KRM     -0.010600
     11 C14        -3.9810   -1.8580    1.1420 cd        1 KRM     -0.042300
     12 C11        -5.2250   -2.3660    1.6850 ca        1 KRM     -0.047000
     13 C10        -6.4520   -1.7470    1.4030 ca        1 KRM     -0.091000
     14 C9         -7.6350   -2.2410    1.9410 ca        1 KRM     -0.161000
     15 C12        -5.1970   -3.4950    2.5180 ca        1 KRM     -0.091000
     16 C13        -6.3730   -4.0040    3.0610 ca        1 KRM     -0.161000
     17 C8         -7.5890   -3.3750    2.7690 ca        1 KRM      0.119100
     18 O7         -8.8240   -3.8530    3.1880 os        1 KRM     -0.248200
     19 C6         -8.8500   -4.5650    4.3860 ca        1 KRM      0.097100
     20 C1         -8.1580   -4.1460    5.5290 ca        1 KRM     -0.151000
     21 C5         -9.7060   -5.6760    4.4170 ca        1 KRM     -0.151000
     22 C4         -9.8690   -6.3620    5.6190 ca        1 KRM     -0.110500
     23 C3         -9.1840   -5.9550    6.7650 ca        1 KRM     -0.144000
     24 C2         -8.3320   -4.8520    6.7180 ca        1 KRM     -0.110500
     25 H241       -0.0920    0.4960   -0.5080 h1        1 KRM      0.052700
     26 H242       -0.0270   -1.1610   -1.2730 h1        1 KRM      0.052700
     27 H231        2.1670   -1.6300   -0.2670 h1        1 KRM      0.054950
     28 H232        2.2400    0.0680   -0.9720 h1        1 KRM      0.054950
     29 H211        1.9500   -1.7010    2.2430 h1        1 KRM      0.054950
     30 H212        1.9000   -0.0460    3.0460 h1        1 KRM      0.054950
     31 H201       -0.3190    0.4280    2.2060 h1        1 KRM      0.052700
     32 H202       -0.3860   -1.2620    2.8920 h1        1 KRM      0.052700
     33 H15        -2.3680   -2.3900    2.6040 ha        1 KRM      0.167000
     34 H18        -4.5880   -1.0110   -0.7360 hn        1 KRM      0.321700
     35 H10        -6.4900   -0.8510    0.7650 ha        1 KRM      0.140000
     36 H12        -4.2360   -3.9860    2.7360 ha        1 KRM      0.140000
     37 H9         -8.6010   -1.7630    1.7250 ha        1 KRM      0.153500
     38 H13        -6.3510   -4.8900    3.7120 ha        1 KRM      0.153500
     39 H1         -7.4900   -3.2740    5.4800 ha        1 KRM      0.149500
     40 H5        -10.2420   -5.9810    3.5070 ha        1 KRM      0.149500
     41 H2         -7.7960   -4.5310    7.6230 ha        1 KRM      0.136500
     42 H4        -10.5420   -7.2320    5.6600 ha        1 KRM      0.136500
     43 H3         -9.3180   -6.5050    7.7070 ha        1 KRM      0.136000
@<TRIPOS>BOND
     1    1    2 1   
     2    1    6 1   
     3    1   25 1   
     4    1   26 1   
     5    2    3 1   
     6    2   27 1   
     7    2   28 1   
     8    3    4 1   
     9    4    5 1   
    10    4   29 1   
    11    4   30 1   
    12    5    6 1   
    13    5   31 1   
    14    5   32 1   
    15    6    7 1   
    16    7    8 1   
    17    7    9 2   
    18    8   11 2   
    19    8   33 1   
    20    9   10 1   
    21   10   11 1   
    22   10   34 1   
    23   11   12 1   
    24   12   13 ar  
    25   12   15 ar  
    26   13   14 ar  
    27   13   35 1   
    28   14   17 ar  
    29   14   37 1   
    30   15   16 ar  
    31   15   36 1   
    32   16   17 ar  
    33   16   38 1   
    34   17   18 1   
    35   18   19 1   
    36   19   20 ar  
    37   19   21 ar  
    38   20   24 ar  
    39   20   39 1   
    40   21   22 ar  
    41   21   40 1   
    42   22   23 ar  
    43   22   42 1   
    44   23   24 ar  
    45   23   43 1   
    46   24   41 1   
@<TRIPOS>SUBSTRUCTURE
     1 KRM         1 TEMP              0 ****  ****    0 ROOT
