@<TRIPOS>MOLECULE
KRM
   43    46     1     0     0
SMALL
bcc


@<TRIPOS>ATOM
      1 C24         0.2520   -0.5810   -0.3460 c3        1 KRM      0.142800
      2 C23         1.7760   -0.5820   -0.1720 c3        1 KRM      0.123900
      3 O22         2.1680    0.0150    1.0590 os        1 KRM     -0.415600
      4 C21         1.5570   -0.6140    2.1790 c3        1 KRM      0.123900
      5 C20         0.0280   -0.6100    2.0670 c3        1 KRM      0.142800
      6 N19        -0.4230   -1.1820    0.8000 nh        1 KRM     -0.694300
      7 C16        -1.8290   -1.2710    0.6960 cc        1 KRM      0.502200
      8 C15        -2.6790   -1.9350    1.6770 cc        1 KRM     -0.290300
      9 N17        -2.6050   -0.8420   -0.3660 nd        1 KRM     -0.547800
     10 N18        -3.8550   -1.2000   -0.0890 na        1 KRM     -0.010600
     11 C14        -3.9750   -1.8770    1.1340 cd        1 KRM     -0.042300
     12 C11        -5.2190   -2.3850    1.6740 ca        1 KRM     -0.047000
     13 C10        -6.4490   -1.7800    1.3720 ca        1 KRM     -0.091000
     14 C9         -7.6330   -2.2740    1.9080 ca        1 KRM     -0.161000
     15 C12        -5.1910   -3.5010    2.5240 ca        1 KRM     -0.091000
     16 C13        -6.3670   -4.0100    3.0650 ca        1 KRM     -0.161000
     17 C8         -7.5850   -3.3950    2.7530 ca        1 KRM      0.119100
     18 O7         -8.8200   -3.8750    3.1690 os        1 KRM     -0.248200
     19 C6         -8.8510   -4.5690    4.3770 ca        1 KRM      0.097100
     20 C1         -8.1730   -4.1270    5.5190 ca        1 KRM     -0.151000
     21 C5         -9.7000   -5.6850    4.4190 ca        1 KRM     -0.151000
     22 C4         -9.8690   -6.3540    5.6300 ca        1 KRM     -0.110500
     23 C3         -9.1970   -5.9240    6.7750 ca        1 KRM     -0.144000
     24 C2         -8.3520   -4.8150    6.7180 ca        1 KRM     -0.110500
     25 H241       -0.0060   -1.1870   -1.2590 h1        1 KRM      0.052700
     26 H242       -0.0880    0.4800   -0.5200 h1        1 KRM      0.052700
     27 H231        2.1830   -1.6250   -0.2290 h1        1 KRM      0.054950
     28 H232        2.2500    0.0620   -0.9590 h1        1 KRM      0.054950
     29 H211        1.9460   -1.6610    2.2800 h1        1 KRM      0.054950
     30 H212        1.8780    0.0040    3.0580 h1        1 KRM      0.054950
     31 H201       -0.3380    0.4500    2.1940 h1        1 KRM      0.052700
     32 H202       -0.3980   -1.2300    2.9030 h1        1 KRM      0.052700
     33 H15        -2.3700   -2.3750    2.6160 ha        1 KRM      0.167000
     34 H18        -4.5720   -1.0620   -0.7610 hn        1 KRM      0.321700
     35 H10        -6.4880   -0.8940    0.7200 ha        1 KRM      0.140000
     36 H12        -4.2280   -3.9810    2.7590 ha        1 KRM      0.140000
     37 H9         -8.6010   -1.8070    1.6760 ha        1 KRM      0.153500
     38 H13        -6.3450   -4.8860    3.7300 ha        1 KRM      0.153500
     39 H1         -7.5110   -3.2510    5.4630 ha        1 KRM      0.149500
     40 H5        -10.2260   -6.0080    3.5090 ha        1 KRM      0.149500
     41 H2         -7.8260   -4.4770    7.6230 ha        1 KRM      0.136500
     42 H4        -10.5360   -7.2280    5.6790 ha        1 KRM      0.136500
     43 H3         -9.3350   -6.4600    7.7250 ha        1 KRM      0.136000
@<TRIPOS>BOND
     1    1    2 1   
     2    1    6 1   
     3    1   25 1   
     4    1   26 1   
     5    2    3 1   
     6    2   27 1   
     7    2   28 1   
     8    3    4 1   
     9    4    5 1   
    10    4   29 1   
    11    4   30 1   
    12    5    6 1   
    13    5   31 1   
    14    5   32 1   
    15    6    7 1   
    16    7    8 1   
    17    7    9 2   
    18    8   11 2   
    19    8   33 1   
    20    9   10 1   
    21   10   11 1   
    22   10   34 1   
    23   11   12 1   
    24   12   13 ar  
    25   12   15 ar  
    26   13   14 ar  
    27   13   35 1   
    28   14   17 ar  
    29   14   37 1   
    30   15   16 ar  
    31   15   36 1   
    32   16   17 ar  
    33   16   38 1   
    34   17   18 1   
    35   18   19 1   
    36   19   20 ar  
    37   19   21 ar  
    38   20   24 ar  
    39   20   39 1   
    40   21   22 ar  
    41   21   40 1   
    42   22   23 ar  
    43   22   42 1   
    44   23   24 ar  
    45   23   43 1   
    46   24   41 1   
@<TRIPOS>SUBSTRUCTURE
     1 KRM         1 TEMP              0 ****  ****    0 ROOT
