@<TRIPOS>MOLECULE
KRM
   43    46     1     0     0
SMALL
bcc


@<TRIPOS>ATOM
      1 C24         0.2460   -0.5650   -0.3430 c3        1 KRM      0.142800
      2 C23         1.7700   -0.5660   -0.1720 c3        1 KRM      0.123900
      3 O22         2.1660    0.0240    1.0620 os        1 KRM     -0.415600
      4 C21         1.5570   -0.6110    2.1790 c3        1 KRM      0.123900
      5 C20         0.0270   -0.6060    2.0710 c3        1 KRM      0.142800
      6 N19        -0.4260   -1.1710    0.8010 nh        1 KRM     -0.694300
      7 C16        -1.8330   -1.2600    0.6990 cc        1 KRM      0.502200
      8 C15        -2.6810   -1.9290    1.6780 cc        1 KRM     -0.290300
      9 N17        -2.6110   -0.8250   -0.3580 nd        1 KRM     -0.547800
     10 N18        -3.8600   -1.1840   -0.0820 na        1 KRM     -0.010600
     11 C14        -3.9780   -1.8680    1.1380 cd        1 KRM     -0.042300
     12 C11        -5.2210   -2.3800    1.6770 ca        1 KRM     -0.047000
     13 C10        -6.4510   -1.7720    1.3830 ca        1 KRM     -0.091000
     14 C9         -7.6340   -2.2690    1.9170 ca        1 KRM     -0.161000
     15 C12        -5.1910   -3.5020    2.5200 ca        1 KRM     -0.091000
     16 C13        -6.3660   -4.0130    3.0610 ca        1 KRM     -0.161000
     17 C8         -7.5850   -3.3950    2.7550 ca        1 KRM      0.119100
     18 O7         -8.8190   -3.8780    3.1710 os        1 KRM     -0.248200
     19 C6         -8.8480   -4.5810    4.3740 ca        1 KRM      0.096100
     20 C1         -8.1660   -4.1470    5.5180 ca        1 KRM     -0.151000
     21 C5         -9.6970   -5.6970    4.4100 ca        1 KRM     -0.151000
     22 C4         -9.8630   -6.3740    5.6160 ca        1 KRM     -0.110500
     23 C3         -9.1880   -5.9520    6.7630 ca        1 KRM     -0.144000
     24 C2         -8.3430   -4.8430    6.7120 ca        1 KRM     -0.110500
     25 H241       -0.0940    0.4980   -0.5100 h1        1 KRM      0.052700
     26 H242       -0.0130   -1.1650   -1.2590 h1        1 KRM      0.052700
     27 H231        2.2440    0.0820   -0.9560 h1        1 KRM      0.054950
     28 H232        2.1780   -1.6100   -0.2350 h1        1 KRM      0.054950
     29 H211        1.9450   -1.6590    2.2740 h1        1 KRM      0.054950
     30 H212        1.8790    0.0020    3.0610 h1        1 KRM      0.054950
     31 H201       -0.3970   -1.2310    2.9040 h1        1 KRM      0.052700
     32 H202       -0.3380    0.4530    2.2040 h1        1 KRM      0.052700
     33 H15        -2.3700   -2.3760    2.6140 ha        1 KRM      0.167000
     34 H18        -4.5790   -1.0420   -0.7510 hn        1 KRM      0.321700
     35 H10        -6.4910   -0.8820    0.7370 ha        1 KRM      0.140000
     36 H12        -4.2280   -3.9830    2.7490 ha        1 KRM      0.140000
     37 H9         -8.6020   -1.8000    1.6910 ha        1 KRM      0.153500
     38 H13        -6.3430   -4.8940    3.7190 ha        1 KRM      0.153500
     39 H1         -7.5050   -3.2710    5.4660 ha        1 KRM      0.149500
     40 H5        -10.2240   -6.0130    3.4990 ha        1 KRM      0.149500
     41 H2         -7.8150   -4.5110    7.6180 ha        1 KRM      0.136500
     42 H4        -10.5300   -7.2480    5.6610 ha        1 KRM      0.136500
     43 H3         -9.3240   -6.4950    7.7100 ha        1 KRM      0.136000
@<TRIPOS>BOND
     1    1    2 1   
     2    1    6 1   
     3    1   25 1   
     4    1   26 1   
     5    2    3 1   
     6    2   27 1   
     7    2   28 1   
     8    3    4 1   
     9    4    5 1   
    10    4   29 1   
    11    4   30 1   
    12    5    6 1   
    13    5   31 1   
    14    5   32 1   
    15    6    7 1   
    16    7    8 1   
    17    7    9 2   
    18    8   11 2   
    19    8   33 1   
    20    9   10 1   
    21   10   11 1   
    22   10   34 1   
    23   11   12 1   
    24   12   13 ar  
    25   12   15 ar  
    26   13   14 ar  
    27   13   35 1   
    28   14   17 ar  
    29   14   37 1   
    30   15   16 ar  
    31   15   36 1   
    32   16   17 ar  
    33   16   38 1   
    34   17   18 1   
    35   18   19 1   
    36   19   20 ar  
    37   19   21 ar  
    38   20   24 ar  
    39   20   39 1   
    40   21   22 ar  
    41   21   40 1   
    42   22   23 ar  
    43   22   42 1   
    44   23   24 ar  
    45   23   43 1   
    46   24   41 1   
@<TRIPOS>SUBSTRUCTURE
     1 KRM         1 TEMP              0 ****  ****    0 ROOT
