@<TRIPOS>MOLECULE
KRO
   33    34     1     0     0
SMALL
bcc


@<TRIPOS>ATOM
      1 OAB        -0.0440    0.7930    0.0420 o         1 KRO     -0.793800
      2 CAN         1.0980    0.2770    0.0970 c         1 KRO      0.921800
      3 OAE         1.6890   -0.1280    1.1300 o         1 KRO     -0.793800
      4 CAR         1.8920    0.1400   -1.2390 cc        1 KRO      0.044400
      5 NAL         3.2620    0.3240   -1.1300 n         1 KRO     -0.436100
      6 CAT         4.1230    0.1710   -2.2230 c         1 KRO      0.791500
      7 OAC         5.3660    0.3070   -2.1030 o         1 KRO     -0.695500
      8 NAM         3.5540   -0.1210   -3.4710 n         1 KRO     -0.592500
      9 CAU         2.1670   -0.3070   -3.6450 c         1 KRO      0.716700
     10 OAD         1.7740   -0.5890   -4.7960 o         1 KRO     -0.668500
     11 CAS         1.3240   -0.1570   -2.4540 cd        1 KRO     -0.293400
     12 CAK        -0.1360   -0.3470   -2.6350 c3        1 KRO      0.009800
     13 CAJ        -0.8310    0.9680   -2.9630 c3        1 KRO     -0.039100
     14 CAP        -2.3090    0.8450   -2.8480 ca        1 KRO     -0.066300
     15 CAI        -3.1280    0.8420   -3.9780 ca        1 KRO     -0.118000
     16 CAO        -4.5190    0.7410   -3.8660 ca        1 KRO     -0.126300
     17 CAA        -5.3730    0.7250   -5.0740 c3        1 KRO     -0.042800
     18 CAQ        -5.0860    0.6430   -2.5790 ca        1 KRO      0.093900
     19 FAF        -6.4340    0.5490   -2.4320 f         1 KRO     -0.162900
     20 CAH        -4.2660    0.6450   -1.4340 ca        1 KRO     -0.168000
     21 CAG        -2.8880    0.7450   -1.5730 ca        1 KRO     -0.099000
     22 H2          4.1700   -0.2180   -4.2460 hn        1 KRO      0.331500
     23 H4         -0.3190   -1.0850   -3.4600 hc        1 KRO      0.058200
     24 H5         -0.5740   -0.7570   -1.6830 hc        1 KRO      0.058200
     25 H6         -0.5400    1.2990   -3.9940 hc        1 KRO      0.059700
     26 H7         -0.4760    1.7430   -2.2270 hc        1 KRO      0.059700
     27 H8         -2.6750    0.9170   -4.9790 ha        1 KRO      0.131000
     28 H9         -6.3380    1.2550   -4.8810 hc        1 KRO      0.038367
     29 H10        -5.6070   -0.3300   -5.3630 hc        1 KRO      0.038367
     30 H11        -4.8590    1.2190   -5.9350 hc        1 KRO      0.038367
     31 H12        -4.7260    0.5660   -0.4400 ha        1 KRO      0.138000
     32 H13        -2.2240    0.7470   -0.6850 ha        1 KRO      0.197000
     33 H14         3.6580    0.4200   -0.2170 hn        1 KRO      0.366500
@<TRIPOS>BOND
     1    1    2 1   
     2    2    3 1   
     3    2    4 1   
     4    4    5 1   
     5    4   11 2   
     6    5    6 1   
     7    5   33 1   
     8    6    7 2   
     9    6    8 1   
    10    8    9 1   
    11    8   22 1   
    12    9   10 2   
    13    9   11 1   
    14   11   12 1   
    15   12   13 1   
    16   12   23 1   
    17   12   24 1   
    18   13   14 1   
    19   13   25 1   
    20   13   26 1   
    21   14   15 ar  
    22   14   21 ar  
    23   15   16 ar  
    24   15   27 1   
    25   16   17 1   
    26   16   18 ar  
    27   17   28 1   
    28   17   29 1   
    29   17   30 1   
    30   18   19 1   
    31   18   20 ar  
    32   20   21 ar  
    33   20   31 1   
    34   21   32 1   
@<TRIPOS>SUBSTRUCTURE
     1 KRO         1 TEMP              0 ****  ****    0 ROOT
