@<TRIPOS>MOLECULE
KRO
   33    34     1     0     0
SMALL
bcc


@<TRIPOS>ATOM
      1 OAB         0.6820   -2.3300    0.4520 o         1 KRO     -0.793800
      2 CAN         1.8590   -2.2050    0.0400 c         1 KRO      0.921800
      3 OAE         2.6250   -3.1300   -0.3340 o         1 KRO     -0.793800
      4 CAR         2.4620   -0.7660    0.0050 cc        1 KRO      0.044400
      5 NAL         3.8130   -0.6880    0.3090 n         1 KRO     -0.436100
      6 CAT         4.5180    0.5210    0.2580 c         1 KRO      0.791500
      7 OAC         5.7490    0.5720    0.5020 o         1 KRO     -0.695500
      8 NAM         3.8030    1.6860   -0.0550 n         1 KRO     -0.592500
      9 CAU         2.4260    1.6690   -0.3610 c         1 KRO      0.716700
     10 OAD         1.8970    2.7620   -0.6500 o         1 KRO     -0.668500
     11 CAS         1.7530    0.3660   -0.3140 cd        1 KRO     -0.293400
     12 CAK         0.3040    0.3460   -0.6300 c3        1 KRO      0.009800
     13 CAJ        -0.5400    0.5270    0.6250 c3        1 KRO     -0.039100
     14 CAP        -1.9710    0.2080    0.3680 ca        1 KRO     -0.066300
     15 CAI        -2.9400    1.2110    0.3170 ca        1 KRO     -0.118000
     16 CAO        -4.2870    0.9080    0.0890 ca        1 KRO     -0.126300
     17 CAA        -5.3010    1.9830    0.0250 c3        1 KRO     -0.042800
     18 CAQ        -4.6530   -0.4420   -0.0880 ca        1 KRO      0.093900
     19 FAF        -5.9530   -0.7750   -0.3060 f         1 KRO     -0.162900
     20 CAH        -3.6800   -1.4590   -0.0400 ca        1 KRO     -0.168000
     21 CAG        -2.3500   -1.1310    0.1870 ca        1 KRO     -0.099000
     22 H2          4.3070    2.5420   -0.0790 hn        1 KRO      0.331500
     23 H4          0.0690    1.1630   -1.3620 hc        1 KRO      0.058200
     24 H5          0.0430   -0.6430   -1.0990 hc        1 KRO      0.058200
     25 H6         -0.1510   -0.1790    1.4110 hc        1 KRO      0.059700
     26 H7         -0.4300    1.5760    1.0040 hc        1 KRO      0.059700
     27 H8         -2.6430    2.2620    0.4550 ha        1 KRO      0.131000
     28 H9         -5.4840    2.2720   -1.0410 hc        1 KRO      0.038367
     29 H10        -6.2700    1.6380    0.4620 hc        1 KRO      0.038367
     30 H11        -4.9590    2.8900    0.5810 hc        1 KRO      0.038367
     31 H12        -3.9850   -2.5050   -0.1810 ha        1 KRO      0.138000
     32 H13        -1.5680   -1.9160    0.2280 ha        1 KRO      0.197000
     33 H14         4.3270   -1.5380    0.4180 hn        1 KRO      0.366500
@<TRIPOS>BOND
     1    1    2 1   
     2    2    3 1   
     3    2    4 1   
     4    4    5 1   
     5    4   11 2   
     6    5    6 1   
     7    5   33 1   
     8    6    7 2   
     9    6    8 1   
    10    8    9 1   
    11    8   22 1   
    12    9   10 2   
    13    9   11 1   
    14   11   12 1   
    15   12   13 1   
    16   12   23 1   
    17   12   24 1   
    18   13   14 1   
    19   13   25 1   
    20   13   26 1   
    21   14   15 ar  
    22   14   21 ar  
    23   15   16 ar  
    24   15   27 1   
    25   16   17 1   
    26   16   18 ar  
    27   17   28 1   
    28   17   29 1   
    29   17   30 1   
    30   18   19 1   
    31   18   20 ar  
    32   20   21 ar  
    33   20   31 1   
    34   21   32 1   
@<TRIPOS>SUBSTRUCTURE
     1 KRO         1 TEMP              0 ****  ****    0 ROOT
