@<TRIPOS>MOLECULE
KRO
   33    27     1     0     0
SMALL
bcc


@<TRIPOS>ATOM
      1 OAB        -1.2010    3.1210    1.4180 o         1 KRO     -0.528000
      2 CAN         0.0540    3.0990    1.3160 c1        1 KRO      0.371000
      3 OAE         0.7690    3.0910    2.3520 o         1 KRO     -0.528000
      4 CAR         0.7020    3.1150   -0.0500 c1        1 KRO      0.061000
      5 NAL         0.9680    4.3510   -0.6950 n3        1 KRO     -0.279000
      6 CAT         1.6570    4.3700   -1.9850 c1        1 KRO      0.382000
      7 OAC         1.7920    5.4160   -2.5860 o         1 KRO     -0.420000
      8 NAM         2.2030    3.1340   -2.5410 n2        1 KRO     -0.372000
      9 CAU         1.9250    1.8920   -1.9160 c1        1 KRO      0.356000
     10 OAD         2.3090    0.8570   -2.4220 o         1 KRO     -0.393000
     11 CAS         1.1640    1.8580   -0.6580 c1        1 KRO     -0.268000
     12 CAK         0.9370    0.5430    0.0550 c2        1 KRO     -0.088000
     13 CAJ        -0.0350   -0.3020   -0.7420 c3        1 KRO     -0.122000
     14 CAP        -0.3200   -1.5850    0.0070 c1        1 KRO     -0.063000
     15 CAI        -1.5820   -1.8100    0.5380 c1        1 KRO     -0.098000
     16 CAO        -1.8720   -3.0210    1.1460 c1        1 KRO     -0.105000
     17 CAA        -3.2640   -3.2890    1.6730 c2        1 KRO     -0.173000
     18 CAQ        -0.9010   -4.0080    1.2240 c2        1 KRO      0.058000
     19 FAF        -1.1940   -5.1940    1.7730 f         1 KRO     -0.128000
     20 CAH         0.3600   -3.7830    0.6940 c1        1 KRO     -0.177000
     21 CAG         0.6500   -2.5710    0.0850 c1        1 KRO     -0.121000
     22 H2          2.7300    3.1620   -3.2840 hn        1 KRO      0.245000
     23 H4          1.7880    0.0670    0.1410 ha        1 KRO      0.108000
     24 H5          0.5680    0.7130    0.9440 ha        1 KRO      0.108000
     25 H6          0.3560   -0.5140   -1.6140 hc        1 KRO      0.092500
     26 H7         -0.8680    0.1940   -0.8700 hc        1 KRO      0.092500
     27 H8         -2.2590   -1.1090    0.4990 ha        1 KRO      0.201000
     28 H9         -3.6850   -3.9960    1.1400 ha        1 KRO      0.084000
     29 H10        -3.8000   -2.4700    1.6100 ha        1 KRO      0.084000
     30 H11        -3.2110   -3.5730    2.6090 ha        1 KRO      0.084000
     31 H12         1.0430   -4.4770    0.7490 ha        1 KRO      0.129000
     32 H13         1.5380   -2.4120   -0.2860 ha        1 KRO      0.129000
     33 H14         0.6760    5.1310   -0.3240 hn        1 KRO      0.279000
@<TRIPOS>BOND
     1    1    2 1   
     2    2    3 1   
     3    4    5 1   
     4    4   11 1   
     5    5    6 1   
     6    5   33 1   
     7    6    7 1   
     8    8    9 1   
     9    8   22 1   
    10    9   10 1   
    11   12   13 1   
    12   12   23 1   
    13   12   24 1   
    14   13   14 1   
    15   13   25 1   
    16   13   26 1   
    17   14   21 1   
    18   15   16 1   
    19   15   27 1   
    20   16   18 1   
    21   17   28 1   
    22   17   29 1   
    23   17   30 1   
    24   18   19 1   
    25   18   20 1   
    26   20   31 1   
    27   21   32 1   
@<TRIPOS>SUBSTRUCTURE
     1 KRO         1 TEMP              0 ****  ****    0 ROOT
