@<TRIPOS>MOLECULE
KRO
   33    34     1     0     0
SMALL
bcc


@<TRIPOS>ATOM
      1 OAB        -0.0480    0.7620    0.0480 o         1 KRO     -0.793800
      2 CAN         1.0940    0.2470    0.0980 c         1 KRO      0.921800
      3 OAE         1.6840   -0.1700    1.1270 o         1 KRO     -0.793800
      4 CAR         1.8900    0.1260   -1.2380 cc        1 KRO      0.044400
      5 NAL         3.2600    0.3100   -1.1250 ns        1 KRO     -0.436100
      6 CAT         4.1220    0.1700   -2.2190 c         1 KRO      0.791500
      7 OAC         5.3650    0.3060   -2.0950 o         1 KRO     -0.695500
      8 NAM         3.5560   -0.1070   -3.4720 ns        1 KRO     -0.592500
      9 CAU         2.1690   -0.2930   -3.6490 c         1 KRO      0.716700
     10 OAD         1.7770   -0.5610   -4.8040 o         1 KRO     -0.668500
     11 CAS         1.3240   -0.1570   -2.4580 cd        1 KRO     -0.293400
     12 CAK        -0.1350   -0.3460   -2.6430 c3        1 KRO      0.009800
     13 CAJ        -0.8310    0.9720   -2.9570 c3        1 KRO     -0.039100
     14 CAP        -2.3090    0.8460   -2.8440 ca        1 KRO     -0.066300
     15 CAI        -3.1260    0.8550   -3.9750 ca        1 KRO     -0.118000
     16 CAO        -4.5170    0.7520   -3.8660 ca        1 KRO     -0.126300
     17 CAA        -5.3700    0.7500   -5.0760 c3        1 KRO     -0.042800
     18 CAQ        -5.0870    0.6390   -2.5820 ca        1 KRO      0.093900
     19 FAF        -6.4340    0.5420   -2.4370 f         1 KRO     -0.162900
     20 CAH        -4.2680    0.6280   -1.4360 ca        1 KRO     -0.168000
     21 CAG        -2.8900    0.7300   -1.5710 ca        1 KRO     -0.099000
     22 H2          4.1730   -0.1950   -4.2460 hn        1 KRO      0.331500
     23 H4         -0.3160   -1.0750   -3.4770 hc        1 KRO      0.058200
     24 H5         -0.5750   -0.7680   -1.6960 hc        1 KRO      0.058200
     25 H6         -0.5390    1.3150   -3.9830 hc        1 KRO      0.059700
     26 H7         -0.4780    1.7380   -2.2110 hc        1 KRO      0.059700
     27 H8         -2.6720    0.9430   -4.9740 ha        1 KRO      0.131000
     28 H9         -6.3340    1.2820   -4.8790 hc        1 KRO      0.038367
     29 H10        -5.6090   -0.3020   -5.3730 hc        1 KRO      0.038367
     30 H11        -4.8530    1.2490   -5.9320 hc        1 KRO      0.038367
     31 H12        -4.7290    0.5370   -0.4430 ha        1 KRO      0.138000
     32 H13        -2.2270    0.7230   -0.6830 ha        1 KRO      0.197000
     33 H14         3.6550    0.3950   -0.2110 hn        1 KRO      0.366500
@<TRIPOS>BOND
     1    1    2 1   
     2    2    3 1   
     3    2    4 1   
     4    4    5 1   
     5    4   11 2   
     6    5    6 1   
     7    5   33 1   
     8    6    7 2   
     9    6    8 1   
    10    8    9 1   
    11    8   22 1   
    12    9   10 2   
    13    9   11 1   
    14   11   12 1   
    15   12   13 1   
    16   12   23 1   
    17   12   24 1   
    18   13   14 1   
    19   13   25 1   
    20   13   26 1   
    21   14   15 ar  
    22   14   21 ar  
    23   15   16 ar  
    24   15   27 1   
    25   16   17 1   
    26   16   18 ar  
    27   17   28 1   
    28   17   29 1   
    29   17   30 1   
    30   18   19 1   
    31   18   20 ar  
    32   20   21 ar  
    33   20   31 1   
    34   21   32 1   
@<TRIPOS>SUBSTRUCTURE
     1 KRO         1 TEMP              0 ****  ****    0 ROOT
