@<TRIPOS>MOLECULE
KRO
   33    34     1     0     0
SMALL
bcc


@<TRIPOS>ATOM
      1 OAB        -0.0420    0.7760    0.0440 o         1 KRO     -0.793800
      2 CAN         1.1010    0.2630    0.0940 c         1 KRO      0.921800
      3 OAE         1.6940   -0.1480    1.1240 o         1 KRO     -0.793800
      4 CAR         1.8940    0.1370   -1.2430 cc        1 KRO      0.044400
      5 NAL         3.2640    0.3250   -1.1340 n         1 KRO     -0.436100
      6 CAT         4.1240    0.1810   -2.2300 c         1 KRO      0.791500
      7 OAC         5.3670    0.3190   -2.1090 o         1 KRO     -0.695500
      8 NAM         3.5550   -0.1030   -3.4800 n         1 KRO     -0.592500
      9 CAU         2.1680   -0.2920   -3.6530 c         1 KRO      0.716700
     10 OAD         1.7740   -0.5660   -4.8060 o         1 KRO     -0.668500
     11 CAS         1.3260   -0.1520   -2.4600 cd        1 KRO     -0.293400
     12 CAK        -0.1340   -0.3450   -2.6410 c3        1 KRO      0.009800
     13 CAJ        -0.8320    0.9700   -2.9600 c3        1 KRO     -0.039100
     14 CAP        -2.3110    0.8430   -2.8430 ca        1 KRO     -0.066300
     15 CAI        -3.1300    0.8450   -3.9720 ca        1 KRO     -0.118000
     16 CAO        -4.5210    0.7400   -3.8600 ca        1 KRO     -0.126300
     17 CAA        -5.3760    0.7300   -5.0670 c3        1 KRO     -0.041800
     18 CAQ        -5.0870    0.6320   -2.5730 ca        1 KRO      0.093900
     19 FAF        -6.4340    0.5330   -2.4250 f         1 KRO     -0.162900
     20 CAH        -4.2650    0.6280   -1.4290 ca        1 KRO     -0.168000
     21 CAG        -2.8880    0.7320   -1.5680 ca        1 KRO     -0.099000
     22 H2          4.1700   -0.1930   -4.2550 hn        1 KRO      0.331500
     23 H4         -0.5700   -0.7630   -1.6920 hc        1 KRO      0.058200
     24 H5         -0.3150   -1.0780   -3.4710 hc        1 KRO      0.058200
     25 H6         -0.5440    1.3090   -3.9890 hc        1 KRO      0.059700
     26 H7         -0.4790    1.7410   -2.2180 hc        1 KRO      0.059700
     27 H8         -2.6790    0.9280   -4.9730 ha        1 KRO      0.131000
     28 H9         -6.3400    1.2630   -4.8710 hc        1 KRO      0.038367
     29 H10        -4.8620    1.2240   -5.9270 hc        1 KRO      0.038367
     30 H11        -5.6160   -0.3240   -5.3570 hc        1 KRO      0.038367
     31 H12        -4.7240    0.5420   -0.4340 ha        1 KRO      0.138000
     32 H13        -2.2230    0.7300   -0.6810 ha        1 KRO      0.197000
     33 H14         3.6610    0.4140   -0.2210 hn        1 KRO      0.366500
@<TRIPOS>BOND
     1    1    2 1   
     2    2    3 1   
     3    2    4 1   
     4    4    5 1   
     5    4   11 2   
     6    5    6 1   
     7    5   33 1   
     8    6    7 2   
     9    6    8 1   
    10    8    9 1   
    11    8   22 1   
    12    9   10 2   
    13    9   11 1   
    14   11   12 1   
    15   12   13 1   
    16   12   23 1   
    17   12   24 1   
    18   13   14 1   
    19   13   25 1   
    20   13   26 1   
    21   14   15 ar  
    22   14   21 ar  
    23   15   16 ar  
    24   15   27 1   
    25   16   17 1   
    26   16   18 ar  
    27   17   28 1   
    28   17   29 1   
    29   17   30 1   
    30   18   19 1   
    31   18   20 ar  
    32   20   21 ar  
    33   20   31 1   
    34   21   32 1   
@<TRIPOS>SUBSTRUCTURE
     1 KRO         1 TEMP              0 ****  ****    0 ROOT
