@<TRIPOS>MOLECULE
KRP
   46    47     1     0     0
SMALL
bcc


@<TRIPOS>ATOM
      1 C1         -0.0720   -0.2360    0.2120 c3        1 KRP     -0.111400
      2 C2          1.4330   -0.2630    0.2740 c3        1 KRP     -0.092100
      3 C4         -0.6470   -0.0930    1.6210 c3        1 KRP      0.089000
      4 N5         -2.0970   -0.0330    1.6890 n         1 KRP     -0.359000
      5 C6         -2.8750   -1.1870    1.6170 cc        1 KRP      0.017400
      6 C7         -2.1490   -2.5100    1.6750 c         1 KRP      0.589900
      7 O8         -1.7660   -3.0540    0.6360 o         1 KRP     -0.494100
      8 C9         -1.9300   -3.0930    3.0130 ca        1 KRP     -0.182600
      9 C10        -2.4530   -2.4980    4.1660 ca        1 KRP     -0.048000
     10 C11        -2.2110   -3.0820    5.4160 ca        1 KRP     -0.022000
     11 C12        -2.7360   -2.4790    6.5910 cg        1 KRP      0.225800
     12 N13        -3.1650   -1.9870    7.5540 n1        1 KRP     -0.343800
     13 C14        -1.4540   -4.2570    5.5140 ca        1 KRP     -0.061000
     14 C15        -0.9380   -4.8580    4.3610 ca        1 KRP     -0.090300
     15 C16        -0.1540   -6.1110    4.4620 c3        1 KRP     -0.059800
     16 C17        -1.1780   -4.2720    3.1150 ca        1 KRP     -0.055000
     17 C18        -4.2390   -1.1530    1.5040 cd        1 KRP     -0.218400
     18 C19        -5.0730   -2.3930    1.4590 c3        1 KRP      0.001500
     19 C20        -6.0340   -2.4470    2.6320 c3        1 KRP     -0.096600
     20 C21        -5.8270   -2.4970    0.1460 c3        1 KRP     -0.096600
     21 C22        -4.9280    0.1520    1.4170 c         1 KRP      0.719700
     22 O23        -6.1550    0.3190    1.3080 o         1 KRP     -0.605500
     23 N24        -4.1140    1.2950    1.4640 n         1 KRP     -0.584500
     24 C25        -2.7180    1.2400    1.5640 c         1 KRP      0.804500
     25 O26        -2.0420    2.2910    1.5760 o         1 KRP     -0.632500
     26 H1         -0.4530   -1.1810   -0.2620 hc        1 KRP      0.061700
     27 H1A        -0.4100    0.6240   -0.4230 hc        1 KRP      0.061700
     28 H2          1.7900   -1.1220    0.8930 hc        1 KRP      0.039033
     29 H2A         1.8540   -0.3710   -0.7540 hc        1 KRP      0.039033
     30 H2B         1.8290    0.6820    0.7200 hc        1 KRP      0.039033
     31 H4         -0.2470    0.8560    2.0860 h1        1 KRP      0.074700
     32 H4A        -0.3120   -0.9650    2.2520 h1        1 KRP      0.074700
     33 H10        -3.0570   -1.5780    4.0960 ha        1 KRP      0.160000
     34 H14        -1.2680   -4.7100    6.5010 ha        1 KRP      0.153000
     35 H16         0.5550   -6.2110    3.6030 hc        1 KRP      0.053700
     36 H16A        0.4330   -6.1400    5.4120 hc        1 KRP      0.053700
     37 H16B       -0.8450   -6.9930    4.4490 hc        1 KRP      0.053700
     38 H17        -0.7770   -4.7360    2.1960 ha        1 KRP      0.162000
     39 H19        -4.3880   -3.2890    1.5320 hc        1 KRP      0.044700
     40 H20        -6.6090   -3.4030    2.6050 hc        1 KRP      0.046033
     41 H20A       -5.4740   -2.3930    3.5970 hc        1 KRP      0.046033
     42 H20B       -6.7550   -1.5940    2.5860 hc        1 KRP      0.046033
     43 H21        -5.1170   -2.4880   -0.7150 hc        1 KRP      0.046033
     44 H21A       -6.4070   -3.4510    0.1220 hc        1 KRP      0.046033
     45 H21B       -6.5390   -1.6420    0.0360 hc        1 KRP      0.046033
     46 HN24       -4.5300    2.2000    1.3970 hn        1 KRP      0.355500
@<TRIPOS>BOND
     1    1    2 1   
     2    1    3 1   
     3    1   26 1   
     4    1   27 1   
     5    2   28 1   
     6    2   29 1   
     7    2   30 1   
     8    3    4 1   
     9    3   31 1   
    10    3   32 1   
    11    4    5 1   
    12    4   24 1   
    13    5    6 1   
    14    5   17 2   
    15    6    7 2   
    16    6    8 1   
    17    8    9 ar  
    18    8   16 ar  
    19    9   10 ar  
    20    9   33 1   
    21   10   11 1   
    22   10   13 ar  
    23   11   12 3   
    24   13   14 ar  
    25   13   34 1   
    26   14   15 1   
    27   14   16 ar  
    28   15   35 1   
    29   15   36 1   
    30   15   37 1   
    31   16   38 1   
    32   17   18 1   
    33   17   21 1   
    34   18   19 1   
    35   18   20 1   
    36   18   39 1   
    37   19   40 1   
    38   19   41 1   
    39   19   42 1   
    40   20   43 1   
    41   20   44 1   
    42   20   45 1   
    43   21   22 2   
    44   21   23 1   
    45   23   24 1   
    46   23   46 1   
    47   24   25 2   
@<TRIPOS>SUBSTRUCTURE
     1 KRP         1 TEMP              0 ****  ****    0 ROOT
