@<TRIPOS>MOLECULE
KRP
   46    47     1     0     0
SMALL
bcc


@<TRIPOS>ATOM
      1 C1         -2.4310   -2.8270    0.1610 c3        1 KRP     -0.111400
      2 C2         -2.2670   -4.2820   -0.1930 c3        1 KRP     -0.092100
      3 C4         -1.6550   -1.9610   -0.8320 c3        1 KRP      0.089000
      4 N5         -1.7550   -0.5300   -0.6060 n         1 KRP     -0.359000
      5 C6         -0.9870    0.1060    0.3680 cc        1 KRP      0.017400
      6 C7          0.0960   -0.7110    1.0320 c         1 KRP      0.589900
      7 O8         -0.1490   -1.3500    2.0580 o         1 KRP     -0.494100
      8 C9          1.4260   -0.7000    0.3930 ca        1 KRP     -0.182600
      9 C10         1.6980    0.1030   -0.7200 ca        1 KRP     -0.048000
     10 C11         2.9730    0.0730   -1.2990 ca        1 KRP     -0.022000
     11 C12         3.2530    0.8850   -2.4320 cg        1 KRP      0.225800
     12 N13         3.4850    1.5480   -3.3590 n1        1 KRP     -0.343800
     13 C14         3.9730   -0.7520   -0.7670 ca        1 KRP     -0.061000
     14 C15         3.7050   -1.5500    0.3490 ca        1 KRP     -0.090300
     15 C16         4.7670   -2.4080    0.9240 c3        1 KRP     -0.059800
     16 C17         2.4310   -1.5210    0.9250 ca        1 KRP     -0.055000
     17 C18        -1.1810    1.4140    0.7230 cd        1 KRP     -0.218400
     18 C19        -0.3340    2.1020    1.7460 c3        1 KRP      0.001500
     19 C20         0.4090    3.2770    1.1370 c3        1 KRP     -0.096600
     20 C21        -1.1680    2.5550    2.9300 c3        1 KRP     -0.096600
     21 C22        -2.2660    2.1880    0.0840 c         1 KRP      0.719700
     22 O23        -2.5470    3.3750    0.3200 o         1 KRP     -0.605500
     23 N24        -3.0390    1.5100   -0.8720 n         1 KRP     -0.584500
     24 C25        -2.8370    0.1660   -1.2110 c         1 KRP      0.804500
     25 O26        -3.5740   -0.3930   -2.0510 o         1 KRP     -0.632500
     26 H1         -3.5180   -2.5510    0.1340 hc        1 KRP      0.061700
     27 H1A        -2.0580   -2.6420    1.2040 hc        1 KRP      0.061700
     28 H2         -2.8320   -4.9160    0.5330 hc        1 KRP      0.039033
     29 H2A        -2.6590   -4.4880   -1.2190 hc        1 KRP      0.039033
     30 H2B        -1.1920   -4.5820   -0.1590 hc        1 KRP      0.039033
     31 H4         -0.5620   -2.2380   -0.7930 h1        1 KRP      0.074700
     32 H4A        -2.0370   -2.1670   -1.8740 h1        1 KRP      0.074700
     33 H10         0.9190    0.7630   -1.1370 ha        1 KRP      0.160000
     34 H14         4.9730   -0.7710   -1.2300 ha        1 KRP      0.153000
     35 H16         5.3740   -1.8200    1.6600 hc        1 KRP      0.053700
     36 H16A        4.3280   -3.2870    1.4570 hc        1 KRP      0.053700
     37 H16B        5.4530   -2.7830    0.1260 hc        1 KRP      0.053700
     38 H17         2.2050   -2.1440    1.8070 ha        1 KRP      0.162000
     39 H19         0.4350    1.3680    2.1290 hc        1 KRP      0.044700
     40 H20        -0.3120    4.0480    0.7700 hc        1 KRP      0.046033
     41 H20A        1.0720    3.7430    1.9050 hc        1 KRP      0.046033
     42 H20B        1.0390    2.9370    0.2790 hc        1 KRP      0.046033
     43 H21        -1.6900    1.6850    3.3960 hc        1 KRP      0.046033
     44 H21A       -0.5060    3.0260    3.6960 hc        1 KRP      0.046033
     45 H21B       -1.9320    3.3040    2.6070 hc        1 KRP      0.046033
     46 HN24       -3.7920    1.9840   -1.3240 hn        1 KRP      0.355500
@<TRIPOS>BOND
     1    1    2 1   
     2    1    3 1   
     3    1   26 1   
     4    1   27 1   
     5    2   28 1   
     6    2   29 1   
     7    2   30 1   
     8    3    4 1   
     9    3   31 1   
    10    3   32 1   
    11    4    5 1   
    12    4   24 1   
    13    5    6 1   
    14    5   17 2   
    15    6    7 2   
    16    6    8 1   
    17    8    9 ar  
    18    8   16 ar  
    19    9   10 ar  
    20    9   33 1   
    21   10   11 1   
    22   10   13 ar  
    23   11   12 3   
    24   13   14 ar  
    25   13   34 1   
    26   14   15 1   
    27   14   16 ar  
    28   15   35 1   
    29   15   36 1   
    30   15   37 1   
    31   16   38 1   
    32   17   18 1   
    33   17   21 1   
    34   18   19 1   
    35   18   20 1   
    36   18   39 1   
    37   19   40 1   
    38   19   41 1   
    39   19   42 1   
    40   20   43 1   
    41   20   44 1   
    42   20   45 1   
    43   21   22 2   
    44   21   23 1   
    45   23   24 1   
    46   23   46 1   
    47   24   25 2   
@<TRIPOS>SUBSTRUCTURE
     1 KRP         1 TEMP              0 ****  ****    0 ROOT
