@<TRIPOS>MOLECULE
KRP
   46    47     1     0     0
SMALL
bcc


@<TRIPOS>ATOM
      1 C1         -0.0640   -0.2470    0.2140 c3        1 KRP     -0.111400
      2 C2          1.4410   -0.2790    0.2790 c3        1 KRP     -0.092100
      3 C4         -0.6400   -0.1000    1.6220 c3        1 KRP      0.089000
      4 N5         -2.0900   -0.0350    1.6880 n         1 KRP     -0.359000
      5 C6         -2.8720   -1.1870    1.6160 cc        1 KRP      0.017400
      6 C7         -2.1510   -2.5120    1.6760 c         1 KRP      0.589900
      7 O8         -1.7680   -3.0580    0.6380 o         1 KRP     -0.494100
      8 C9         -1.9350   -3.0940    3.0140 ca        1 KRP     -0.182600
      9 C10        -2.4580   -2.4970    4.1660 ca        1 KRP     -0.048000
     10 C11        -2.2200   -3.0800    5.4170 ca        1 KRP     -0.022000
     11 C12        -2.7460   -2.4760    6.5910 cg        1 KRP      0.225800
     12 N13        -3.1750   -1.9820    7.5530 n1        1 KRP     -0.343800
     13 C14        -1.4660   -4.2570    5.5180 ca        1 KRP     -0.061000
     14 C15        -0.9480   -4.8600    4.3660 ca        1 KRP     -0.090300
     15 C16        -0.1680   -6.1150    4.4690 c3        1 KRP     -0.059800
     16 C17        -1.1850   -4.2750    3.1190 ca        1 KRP     -0.055000
     17 C18        -4.2350   -1.1470    1.5010 cd        1 KRP     -0.218400
     18 C19        -5.0740   -2.3840    1.4550 c3        1 KRP      0.001500
     19 C20        -6.0360   -2.4340    2.6270 c3        1 KRP     -0.096600
     20 C21        -5.8260   -2.4870    0.1410 c3        1 KRP     -0.096600
     21 C22        -4.9200    0.1600    1.4120 c         1 KRP      0.719700
     22 O23        -6.1460    0.3310    1.3010 o         1 KRP     -0.605500
     23 N24        -4.1020    1.3000    1.4590 ns        1 KRP     -0.584500
     24 C25        -2.7060    1.2400    1.5610 c         1 KRP      0.804500
     25 O26        -2.0270    2.2880    1.5730 o         1 KRP     -0.632500
     26 H1         -0.4470   -1.1900   -0.2600 hc        1 KRP      0.061700
     27 H1A        -0.3980    0.6150   -0.4230 hc        1 KRP      0.061700
     28 H2          1.7950   -1.1380    0.8980 hc        1 KRP      0.039033
     29 H2A         1.8630   -0.3890   -0.7500 hc        1 KRP      0.039033
     30 H2B         1.8400    0.6650    0.7240 hc        1 KRP      0.039033
     31 H4         -0.2380    0.8480    2.0870 h1        1 KRP      0.074700
     32 H4A        -0.3090   -0.9730    2.2550 h1        1 KRP      0.074700
     33 H10        -3.0620   -1.5770    4.0940 ha        1 KRP      0.160000
     34 H14        -1.2810   -4.7100    6.5050 ha        1 KRP      0.153000
     35 H16         0.5420   -6.2170    3.6110 hc        1 KRP      0.053700
     36 H16A        0.4200   -6.1430    5.4200 hc        1 KRP      0.053700
     37 H16B       -0.8600   -6.9950    4.4580 hc        1 KRP      0.053700
     38 H17        -0.7840   -4.7400    2.2010 ha        1 KRP      0.162000
     39 H19        -4.3920   -3.2830    1.5300 hc        1 KRP      0.044700
     40 H20        -6.6150   -3.3890    2.5990 hc        1 KRP      0.046033
     41 H20A       -5.4780   -2.3810    3.5930 hc        1 KRP      0.046033
     42 H20B       -6.7550   -1.5790    2.5790 hc        1 KRP      0.046033
     43 H21        -5.1150   -2.4810   -0.7180 hc        1 KRP      0.046033
     44 H21A       -6.4100   -3.4390    0.1170 hc        1 KRP      0.046033
     45 H21B       -6.5350   -1.6300    0.0290 hc        1 KRP      0.046033
     46 HN24       -4.5140    2.2070    1.3910 hn        1 KRP      0.355500
@<TRIPOS>BOND
     1    1    2 1   
     2    1    3 1   
     3    1   26 1   
     4    1   27 1   
     5    2   28 1   
     6    2   29 1   
     7    2   30 1   
     8    3    4 1   
     9    3   31 1   
    10    3   32 1   
    11    4    5 1   
    12    4   24 1   
    13    5    6 1   
    14    5   17 2   
    15    6    7 2   
    16    6    8 1   
    17    8    9 ar  
    18    8   16 ar  
    19    9   10 ar  
    20    9   33 1   
    21   10   11 1   
    22   10   13 ar  
    23   11   12 3   
    24   13   14 ar  
    25   13   34 1   
    26   14   15 1   
    27   14   16 ar  
    28   15   35 1   
    29   15   36 1   
    30   15   37 1   
    31   16   38 1   
    32   17   18 1   
    33   17   21 1   
    34   18   19 1   
    35   18   20 1   
    36   18   39 1   
    37   19   40 1   
    38   19   41 1   
    39   19   42 1   
    40   20   43 1   
    41   20   44 1   
    42   20   45 1   
    43   21   22 2   
    44   21   23 1   
    45   23   24 1   
    46   23   46 1   
    47   24   25 2   
@<TRIPOS>SUBSTRUCTURE
     1 KRP         1 TEMP              0 ****  ****    0 ROOT
