@<TRIPOS>MOLECULE
KRP
   46    44     1     0     0
SMALL
bcc


@<TRIPOS>ATOM
      1 C1          3.4250   -0.0830   -2.2000 c3        1 KRP     -0.189000
      2 C2          4.8060   -0.4670   -1.6810 c3        1 KRP     -0.210000
      3 C4          2.3590   -0.4750   -1.1610 c3        1 KRP     -0.028000
      4 N5          1.4780    0.6500   -0.9240 n         1 KRP     -0.251000
      5 C6          0.0670    0.4580   -0.9030 c2        1 KRP      0.036000
      6 C7         -0.5110   -0.9340   -0.6110 c2        1 KRP      0.310000
      7 O8         -0.8880   -1.6390   -1.5260 o         1 KRP     -0.252000
      8 C9         -0.5480   -1.4660    0.8410 c2        1 KRP     -0.162000
      9 C10         0.5800   -2.0480    1.3930 c2        1 KRP     -0.041000
     10 C11         0.5150   -2.6400    2.6460 c1        1 KRP     -0.019000
     11 C12         1.7740   -3.1850    3.2920 c1        1 KRP     -0.103000
     12 N13         2.7120   -3.5920    3.7740 n1        1 KRP     -0.020000
     13 C14        -0.6830   -2.6490    3.3470 c1        1 KRP     -0.060000
     14 C15        -1.8090   -2.0680    2.7970 c1        1 KRP     -0.081000
     15 C16        -3.1180   -2.0420    3.5860 c3        1 KRP     -0.185000
     16 C17        -1.7440   -1.4760    1.5430 c1        1 KRP     -0.062000
     17 C18        -0.8320    1.6280   -0.9630 c1        1 KRP     -0.197000
     18 C19        -2.2890    1.4480   -1.4050 c3        1 KRP     -0.042000
     19 C20        -2.5910    2.3920   -2.5600 c3        1 KRP     -0.214500
     20 C21        -3.2130    1.7610   -0.2420 c3        1 KRP     -0.214500
     21 C22        -0.2750    2.9760   -0.8220 c1        1 KRP      0.358000
     22 O23        -1.0100    3.9460   -0.8700 o         1 KRP     -0.331000
     23 N24         1.1350    3.1550   -0.7170 n         1 KRP     -0.364000
     24 C25         2.0320    1.9910   -0.7860 c2        1 KRP      0.394000
     25 O26         3.2350    2.1490   -0.7350 o         1 KRP     -0.357000
     26 H1          3.3910    0.8830   -2.3530 hc        1 KRP      0.101000
     27 H1A         3.2500   -0.5530   -3.0400 hc        1 KRP      0.101000
     28 H2          5.3720   -0.7470   -2.4320 hc        1 KRP      0.079000
     29 H2A         5.2150    0.3060   -1.2340 hc        1 KRP      0.079000
     30 H2B         4.7220   -1.2040   -1.0440 hc        1 KRP      0.079000
     31 H4          2.7980   -0.7290   -0.3230 h1        1 KRP      0.114500
     32 H4A         1.8380   -1.2310   -1.4980 h1        1 KRP      0.114500
     33 H10         1.4060   -2.0790    0.8850 ha        1 KRP      0.169000
     34 H14        -0.7290   -3.0620    4.2220 ha        1 KRP      0.153000
     35 H16        -3.2390   -2.9000    4.0480 hc        1 KRP      0.093333
     36 H16A       -3.8650   -1.8950    2.9720 hc        1 KRP      0.093333
     37 H16B       -3.0880   -1.3120    4.2490 hc        1 KRP      0.093333
     38 H17        -2.5310   -1.0710    1.1590 ha        1 KRP      0.153000
     39 H19        -2.4290    0.5260   -1.6930 hc        1 KRP      0.086000
     40 H20        -3.3650    2.0610   -3.0570 hc        1 KRP      0.085000
     41 H20A       -1.8150    2.4370   -3.1570 hc        1 KRP      0.085000
     42 H20B       -2.7860    3.2880   -2.2090 hc        1 KRP      0.085000
     43 H21        -3.6160    2.6520   -0.3730 hc        1 KRP      0.085000
     44 H21A       -2.7040    1.7540    0.5900 hc        1 KRP      0.085000
     45 H21B       -3.9210    1.0870   -0.1970 hc        1 KRP      0.085000
     46 HN24        1.4850    3.9980   -0.6300 hn        1 KRP      0.269000
@<TRIPOS>BOND
     1    1    2 1   
     2    1    3 1   
     3    1   26 1   
     4    1   27 1   
     5    2   28 1   
     6    2   29 1   
     7    2   30 1   
     8    3    4 1   
     9    3   31 1   
    10    3   32 1   
    11    4    5 1   
    12    4   24 1   
    13    5    6 1   
    14    5   17 1   
    15    6    7 1   
    16    6    8 1   
    17    8    9 1   
    18    8   16 1   
    19    9   10 1   
    20    9   33 1   
    21   10   11 1   
    22   11   12 1   
    23   13   14 1   
    24   13   34 1   
    25   14   15 1   
    26   15   35 1   
    27   15   36 1   
    28   15   37 1   
    29   16   38 1   
    30   17   18 1   
    31   18   19 1   
    32   18   20 1   
    33   18   39 1   
    34   19   40 1   
    35   19   41 1   
    36   19   42 1   
    37   20   43 1   
    38   20   44 1   
    39   20   45 1   
    40   21   22 1   
    41   21   23 1   
    42   23   24 1   
    43   23   46 1   
    44   24   25 1   
@<TRIPOS>SUBSTRUCTURE
     1 KRP         1 TEMP              0 ****  ****    0 ROOT
