@<TRIPOS>MOLECULE
KRS
   41    43     1     0     0
SMALL
bcc


@<TRIPOS>ATOM
      1 O4          0.5100    1.5400   -0.2580 o         1 KRS     -0.562500
      2 C8          1.4500    0.7690   -0.0650 c         1 KRS      0.745200
      3 C9          2.0380    0.3460    1.2100 ca        1 KRS     -0.233600
      4 C5          3.3170   -0.2370    1.2240 ca        1 KRS      0.036700
      5 C4          3.9260   -0.6010    2.4210 ca        1 KRS     -0.262000
      6 C3          3.2430   -0.3850    3.6310 ca        1 KRS      0.200100
      7 O2          3.7830   -0.7160    4.8480 oh        1 KRS     -0.489100
      8 C2          1.9620    0.1790    3.6520 ca        1 KRS     -0.272000
      9 C1          1.3650    0.5400    2.4340 ca        1 KRS      0.229100
     10 O1          0.1110    1.0810    2.3860 oh        1 KRS     -0.457100
     11 O3          1.9970    0.3230   -1.2500 os        1 KRS     -0.424900
     12 C7          2.9860   -0.7160   -1.1790 c3        1 KRS      0.149100
     13 C6          4.0050   -0.4500   -0.0770 c3        1 KRS     -0.082100
     14 C10         3.6540   -0.7550   -2.5490 c3        1 KRS     -0.074400
     15 C11         2.7420   -1.3940   -3.5900 c3        1 KRS      0.137100
     16 O5          2.7200   -2.7950   -3.2880 os        1 KRS     -0.427600
     17 C12         1.9280   -3.5750   -4.1840 c3        1 KRS      0.144100
     18 C16         0.4460   -3.3260   -3.9790 c3        1 KRS     -0.124100
     19 C13         2.3500   -3.3760   -5.6360 c3        1 KRS     -0.105400
     20 C14         2.4330   -1.9110   -6.0090 c3        1 KRS     -0.076400
     21 C15         3.2640   -1.1480   -5.0000 c3        1 KRS     -0.105400
     22 H1          4.9270   -1.0530    2.4220 ha        1 KRS      0.143000
     23 H2          4.6620   -1.0940    4.6960 ho        1 KRS      0.427000
     24 H3          1.4440    0.3320    4.6080 ha        1 KRS      0.160000
     25 H4         -0.2140    1.1810    3.2950 ho        1 KRS      0.426000
     26 H5          2.4490   -1.6870   -0.9840 h1        1 KRS      0.074700
     27 H6          4.7120   -1.3190   -0.0150 hc        1 KRS      0.074200
     28 H7          4.6060    0.4660   -0.3280 hc        1 KRS      0.074200
     29 H8          3.8990    0.2870   -2.8780 hc        1 KRS      0.064700
     30 H9          4.6030   -1.3450   -2.4670 hc        1 KRS      0.064700
     31 H10         1.6980   -0.9830   -3.4870 h1        1 KRS      0.062700
     32 H11         2.1760   -4.6300   -3.8640 h1        1 KRS      0.066700
     33 H12         0.1410   -2.3400   -4.4010 hc        1 KRS      0.044033
     34 H13         0.2070   -3.3320   -2.8880 hc        1 KRS      0.044033
     35 H14        -0.1430   -4.1280   -4.4850 hc        1 KRS      0.044033
     36 H15         3.3560   -3.8500   -5.7840 hc        1 KRS      0.048700
     37 H16         1.6200   -3.9000   -6.3040 hc        1 KRS      0.048700
     38 H17         2.8860   -1.8070   -7.0290 hc        1 KRS      0.044200
     39 H18         1.4020   -1.4720   -6.0540 hc        1 KRS      0.044200
     40 H19         3.2270   -0.0510   -5.2210 hc        1 KRS      0.050200
     41 H20         4.3340   -1.4780   -5.0630 hc        1 KRS      0.050200
@<TRIPOS>BOND
     1    1    2 2   
     2    2    3 1   
     3    2   11 1   
     4    3    4 ar  
     5    3    9 ar  
     6    4    5 ar  
     7    4   13 1   
     8    5    6 ar  
     9    5   22 1   
    10    6    7 1   
    11    6    8 ar  
    12    7   23 1   
    13    8    9 ar  
    14    8   24 1   
    15    9   10 1   
    16   10   25 1   
    17   11   12 1   
    18   12   13 1   
    19   12   14 1   
    20   12   26 1   
    21   13   27 1   
    22   13   28 1   
    23   14   15 1   
    24   14   29 1   
    25   14   30 1   
    26   15   16 1   
    27   15   21 1   
    28   15   31 1   
    29   16   17 1   
    30   17   18 1   
    31   17   19 1   
    32   17   32 1   
    33   18   33 1   
    34   18   34 1   
    35   18   35 1   
    36   19   20 1   
    37   19   36 1   
    38   19   37 1   
    39   20   21 1   
    40   20   38 1   
    41   20   39 1   
    42   21   40 1   
    43   21   41 1   
@<TRIPOS>SUBSTRUCTURE
     1 KRS         1 TEMP              0 ****  ****    0 ROOT
