@<TRIPOS>MOLECULE
KRS
   41    43     1     0     0
SMALL
bcc


@<TRIPOS>ATOM
      1 O4          0.5010    1.5380   -0.2700 o         1 KRS     -0.562500
      2 C8          1.4420    0.7700   -0.0730 c         1 KRS      0.745200
      3 C9          2.0290    0.3530    1.2040 ca        1 KRS     -0.233600
      4 C5          3.3100   -0.2270    1.2230 ca        1 KRS      0.036700
      5 C4          3.9170   -0.5850    2.4220 ca        1 KRS     -0.262000
      6 C3          3.2310   -0.3680    3.6300 ca        1 KRS      0.200100
      7 O2          3.7690   -0.6930    4.8490 oh        1 KRS     -0.489100
      8 C2          1.9490    0.1930    3.6470 ca        1 KRS     -0.272000
      9 C1          1.3530    0.5490    2.4270 ca        1 KRS      0.229100
     10 O1          0.0970    1.0860    2.3740 oh        1 KRS     -0.457100
     11 O3          1.9930    0.3220   -1.2550 os        1 KRS     -0.424900
     12 C7          2.9850   -0.7140   -1.1790 c3        1 KRS      0.149100
     13 C6          4.0010   -0.4420   -0.0760 c3        1 KRS     -0.082100
     14 C10         3.6560   -0.7550   -2.5470 c3        1 KRS     -0.074400
     15 C11         2.7470   -1.4000   -3.5880 c3        1 KRS      0.137100
     16 O5          2.7280   -2.7990   -3.2830 os        1 KRS     -0.427600
     17 C12         1.9400   -3.5840   -4.1780 c3        1 KRS      0.144100
     18 C16         0.4560   -3.3380   -3.9770 c3        1 KRS     -0.124100
     19 C13         2.3650   -3.3880   -5.6300 c3        1 KRS     -0.105400
     20 C14         2.4450   -1.9240   -6.0070 c3        1 KRS     -0.076400
     21 C15         3.2720   -1.1560   -4.9990 c3        1 KRS     -0.105400
     22 H1          4.9190   -1.0350    2.4270 ha        1 KRS      0.143000
     23 H2          4.6500   -1.0700    4.7000 ho        1 KRS      0.427000
     24 H3          1.4280    0.3480    4.6020 ha        1 KRS      0.160000
     25 H4         -0.2300    1.1880    3.2820 ho        1 KRS      0.426000
     26 H5          2.4500   -1.6860   -0.9820 h1        1 KRS      0.074700
     27 H6          4.6000    0.4750   -0.3290 hc        1 KRS      0.074200
     28 H7          4.7100   -1.3080   -0.0100 hc        1 KRS      0.074200
     29 H8          4.6060   -1.3430   -2.4630 hc        1 KRS      0.064700
     30 H9          3.8990    0.2860   -2.8800 hc        1 KRS      0.064700
     31 H10         1.7020   -0.9900   -3.4890 h1        1 KRS      0.062700
     32 H11         2.1890   -4.6380   -3.8540 h1        1 KRS      0.066700
     33 H12         0.2150   -3.3410   -2.8870 hc        1 KRS      0.044033
     34 H13         0.1500   -2.3530   -4.4030 hc        1 KRS      0.044033
     35 H14        -0.1300   -4.1420   -4.4820 hc        1 KRS      0.044033
     36 H15         3.3710   -3.8610   -5.7750 hc        1 KRS      0.048700
     37 H16         1.6370   -3.9160   -6.2980 hc        1 KRS      0.048700
     38 H17         2.9000   -1.8230   -7.0260 hc        1 KRS      0.044200
     39 H18         1.4130   -1.4880   -6.0560 hc        1 KRS      0.044200
     40 H19         3.2320   -0.0600   -5.2230 hc        1 KRS      0.050200
     41 H20         4.3420   -1.4840   -5.0580 hc        1 KRS      0.050200
@<TRIPOS>BOND
     1    1    2 2   
     2    2    3 1   
     3    2   11 1   
     4    3    4 ar  
     5    3    9 ar  
     6    4    5 ar  
     7    4   13 1   
     8    5    6 ar  
     9    5   22 1   
    10    6    7 1   
    11    6    8 ar  
    12    7   23 1   
    13    8    9 ar  
    14    8   24 1   
    15    9   10 1   
    16   10   25 1   
    17   11   12 1   
    18   12   13 1   
    19   12   14 1   
    20   12   26 1   
    21   13   27 1   
    22   13   28 1   
    23   14   15 1   
    24   14   29 1   
    25   14   30 1   
    26   15   16 1   
    27   15   21 1   
    28   15   31 1   
    29   16   17 1   
    30   17   18 1   
    31   17   19 1   
    32   17   32 1   
    33   18   33 1   
    34   18   34 1   
    35   18   35 1   
    36   19   20 1   
    37   19   36 1   
    38   19   37 1   
    39   20   21 1   
    40   20   38 1   
    41   20   39 1   
    42   21   40 1   
    43   21   41 1   
@<TRIPOS>SUBSTRUCTURE
     1 KRS         1 TEMP              0 ****  ****    0 ROOT
