@<TRIPOS>MOLECULE
KRV
   43    44     1     0     0
SMALL
bcc


@<TRIPOS>ATOM
      1 C1         -0.1980    0.2130    0.0900 c3        1 KRV      0.090000
      2 C2          1.3060    0.4210    0.0230 c3        1 KRV     -0.128100
      3 N8         -0.7500    0.1200    1.4310 n         1 KRV     -0.360000
      4 C9         -0.7880   -1.1600    2.0480 c         1 KRV      0.804500
      5 N10        -1.1570   -1.2400    3.3970 n         1 KRV     -0.584500
      6 C11        -1.4290   -0.1140    4.1890 c         1 KRV      0.719700
      7 C12        -1.3330    1.2020    3.5200 cc        1 KRV     -0.218400
      8 C13        -0.9860    1.2600    2.1970 cd        1 KRV      0.017400
      9 C14        -0.8530    2.5950    1.5030 c         1 KRV      0.589900
     10 O15         0.2340    3.1790    1.4850 o         1 KRV     -0.494100
     11 C16        -2.0650    3.1380    0.8620 ca        1 KRV     -0.182600
     12 C17        -3.3010    2.4920    0.9660 ca        1 KRV     -0.047000
     13 C18        -4.4230    3.0400    0.3320 ca        1 KRV     -0.022000
     14 C19        -5.6810    2.3850    0.4310 cg        1 KRV      0.224800
     15 N20        -6.7120    1.8510    0.5110 n1        1 KRV     -0.343800
     16 C21        -4.3130    4.2300   -0.4000 ca        1 KRV     -0.061000
     17 C22        -3.0790    4.8810   -0.4990 ca        1 KRV     -0.090300
     18 C23        -1.9600    4.3320    0.1330 ca        1 KRV     -0.055000
     19 C24        -2.9650    6.1500   -1.2560 c3        1 KRV     -0.059800
     20 C25        -1.6180    2.4250    4.3310 c3        1 KRV      0.001500
     21 C26        -3.0450    2.4180    4.8460 c3        1 KRV     -0.096600
     22 C27        -0.6360    2.5600    5.4810 c3        1 KRV     -0.096600
     23 O28        -1.7270   -0.3020    5.3800 o         1 KRV     -0.605500
     24 O29        -0.5320   -2.1960    1.3990 o         1 KRV     -0.632500
     25 H1         -0.4630   -0.7440   -0.4490 h1        1 KRV      0.073700
     26 H1A        -0.7190    1.0680   -0.4310 h1        1 KRV      0.073700
     27 H2          1.6090    0.4730   -1.0500 hc        1 KRV      0.055700
     28 H2A         1.8480   -0.4280    0.5050 hc        1 KRV      0.055700
     29 H2B         1.6050    1.3730    0.5280 hc        1 KRV      0.055700
     30 HN10       -1.1960   -2.1510    3.8040 hn        1 KRV      0.355500
     31 H17        -3.3980    1.5600    1.5490 ha        1 KRV      0.160000
     32 H21        -5.2000    4.6540   -0.8970 ha        1 KRV      0.153000
     33 H23        -0.9800    4.8350    0.0640 ha        1 KRV      0.162000
     34 H24        -3.6680    6.1610   -2.1250 hc        1 KRV      0.053700
     35 H24A       -3.2180    7.0140   -0.5900 hc        1 KRV      0.053700
     36 H24B       -1.9250    6.2960   -1.6390 hc        1 KRV      0.053700
     37 H25        -1.4940    3.3320    3.6680 hc        1 KRV      0.044700
     38 H26        -3.2490    3.3620    5.4050 hc        1 KRV      0.046033
     39 H26A       -3.2070    1.5520    5.5350 hc        1 KRV      0.046033
     40 H26B       -3.7660    2.3410    3.9970 hc        1 KRV      0.046033
     41 H27        -0.8440    3.5020    6.0430 hc        1 KRV      0.046033
     42 H27A       -0.7350    1.6950    6.1820 hc        1 KRV      0.046033
     43 H27B        0.4120    2.5960    5.0980 hc        1 KRV      0.046033
@<TRIPOS>BOND
     1    1    2 1   
     2    1    3 1   
     3    1   25 1   
     4    1   26 1   
     5    2   27 1   
     6    2   28 1   
     7    2   29 1   
     8    3    4 1   
     9    3    8 1   
    10    4    5 1   
    11    4   24 2   
    12    5    6 1   
    13    5   30 1   
    14    6    7 1   
    15    6   23 2   
    16    7    8 2   
    17    7   20 1   
    18    8    9 1   
    19    9   10 2   
    20    9   11 1   
    21   11   12 ar  
    22   11   18 ar  
    23   12   13 ar  
    24   12   31 1   
    25   13   14 1   
    26   13   16 ar  
    27   14   15 3   
    28   16   17 ar  
    29   16   32 1   
    30   17   18 ar  
    31   17   19 1   
    32   18   33 1   
    33   19   34 1   
    34   19   35 1   
    35   19   36 1   
    36   20   21 1   
    37   20   22 1   
    38   20   37 1   
    39   21   38 1   
    40   21   39 1   
    41   21   40 1   
    42   22   41 1   
    43   22   42 1   
    44   22   43 1   
@<TRIPOS>SUBSTRUCTURE
     1 KRV         1 TEMP              0 ****  ****    0 ROOT
