@<TRIPOS>MOLECULE
KRV
   43    44     1     0     0
SMALL
bcc


@<TRIPOS>ATOM
      1 C1          1.4530    2.3080   -0.9940 c3        1 KRV      0.090000
      2 C2          2.1020    3.3210   -0.0650 c3        1 KRV     -0.128100
      3 N8          1.7320    0.9160   -0.6810 n         1 KRV     -0.360000
      4 C9          2.8970    0.3270   -1.2430 c         1 KRV      0.804500
      5 N10         3.2690   -0.9550   -0.8170 n         1 KRV     -0.584500
      6 C11         2.5870   -1.6610    0.1860 c         1 KRV      0.719700
      7 C12         1.4080   -0.9930    0.7770 cc        1 KRV     -0.218400
      8 C13         1.0480    0.2530    0.3380 cd        1 KRV      0.017400
      9 C14        -0.1340    0.9660    0.9500 c         1 KRV      0.589900
     10 O15         0.0240    1.7040    1.9260 o         1 KRV     -0.494100
     11 C16        -1.4490    0.7350    0.3240 ca        1 KRV     -0.182600
     12 C17        -1.6100   -0.1690   -0.7310 ca        1 KRV     -0.047000
     13 C18        -2.8770   -0.3470   -1.3010 ca        1 KRV     -0.022000
     14 C19        -3.0460   -1.2610   -2.3770 cg        1 KRV      0.224800
     15 N20        -3.1870   -2.0080   -3.2570 n1        1 KRV     -0.343800
     16 C21        -3.9800    0.3700   -0.8170 ca        1 KRV     -0.061000
     17 C22        -3.8210    1.2690    0.2430 ca        1 KRV     -0.090300
     18 C23        -2.5560    1.4470    0.8090 ca        1 KRV     -0.055000
     19 C24        -4.9890    2.0130    0.7700 c3        1 KRV     -0.059800
     20 C25         0.6540   -1.7160    1.8480 c3        1 KRV      0.001500
     21 C26         0.0700   -3.0140    1.3220 c3        1 KRV     -0.096600
     22 C27         1.5340   -1.9760    3.0560 c3        1 KRV     -0.096600
     23 O28         3.0180   -2.7830    0.4990 o         1 KRV     -0.605500
     24 O29         3.5580    0.9190   -2.1220 o         1 KRV     -0.632500
     25 H1          0.3330    2.4410   -0.9720 h1        1 KRV      0.073700
     26 H1A         1.8110    2.4910   -2.0500 h1        1 KRV      0.073700
     27 H2          1.8190    4.3460   -0.4070 hc        1 KRV      0.055700
     28 H2A         1.7540    3.1840    0.9880 hc        1 KRV      0.055700
     29 H2B         3.2150    3.2320   -0.0920 hc        1 KRV      0.055700
     30 HN10        4.0790   -1.3570   -1.2400 hn        1 KRV      0.355500
     31 H17        -0.7500   -0.7440   -1.1110 ha        1 KRV      0.160000
     32 H21        -4.9730    0.2250   -1.2710 ha        1 KRV      0.153000
     33 H23        -2.4160    2.1520    1.6470 ha        1 KRV      0.162000
     34 H24        -5.5130    1.3990    1.5460 hc        1 KRV      0.053700
     35 H24A       -4.6720    2.9760    1.2410 hc        1 KRV      0.053700
     36 H24B       -5.7180    2.2410   -0.0470 hc        1 KRV      0.053700
     37 H25        -0.2050   -1.0630    2.1850 hc        1 KRV      0.044700
     38 H26         0.8870   -3.7080    1.0040 hc        1 KRV      0.046033
     39 H26A       -0.5290   -3.5090    2.1230 hc        1 KRV      0.046033
     40 H26B       -0.5950   -2.8170    0.4470 hc        1 KRV      0.046033
     41 H27         1.9370   -1.0170    3.4600 hc        1 KRV      0.046033
     42 H27A        0.9350   -2.4780    3.8540 hc        1 KRV      0.046033
     43 H27B        2.3890   -2.6400    2.7800 hc        1 KRV      0.046033
@<TRIPOS>BOND
     1    1    2 1   
     2    1    3 1   
     3    1   25 1   
     4    1   26 1   
     5    2   27 1   
     6    2   28 1   
     7    2   29 1   
     8    3    4 1   
     9    3    8 1   
    10    4    5 1   
    11    4   24 2   
    12    5    6 1   
    13    5   30 1   
    14    6    7 1   
    15    6   23 2   
    16    7    8 2   
    17    7   20 1   
    18    8    9 1   
    19    9   10 2   
    20    9   11 1   
    21   11   12 ar  
    22   11   18 ar  
    23   12   13 ar  
    24   12   31 1   
    25   13   14 1   
    26   13   16 ar  
    27   14   15 3   
    28   16   17 ar  
    29   16   32 1   
    30   17   18 ar  
    31   17   19 1   
    32   18   33 1   
    33   19   34 1   
    34   19   35 1   
    35   19   36 1   
    36   20   21 1   
    37   20   22 1   
    38   20   37 1   
    39   21   38 1   
    40   21   39 1   
    41   21   40 1   
    42   22   41 1   
    43   22   42 1   
    44   22   43 1   
@<TRIPOS>SUBSTRUCTURE
     1 KRV         1 TEMP              0 ****  ****    0 ROOT
