@<TRIPOS>MOLECULE
KRV
   43    43     1     0     0
SMALL
bcc


@<TRIPOS>ATOM
      1 C1          0.4450   -0.1960   -0.7710 c1        1 KRV     -0.064000
      2 C2          1.7730    0.3330   -0.7640 c3        1 KRV     -0.313000
      3 N8         -0.8300   -0.1120    1.6250 n         1 KRV     -0.344000
      4 C9         -0.9160   -1.3060    2.3590 c2        1 KRV      0.384000
      5 N10        -1.3490   -1.2480    3.6940 n         1 KRV     -0.368000
      6 C11        -1.6400   -0.0380    4.3450 c2        1 KRV      0.358000
      7 C12        -1.4940    1.1980    3.5470 c2        1 KRV     -0.222000
      8 C13        -1.1000    1.0960    2.2370 c2        1 KRV      0.039000
      9 C14        -0.9030    2.3140    1.3720 c2        1 KRV      0.319000
     10 O15         0.2380    2.6920    1.0800 o         1 KRV     -0.285000
     11 C16        -2.1140    2.9910    0.8700 ca        1 KRV     -0.159000
     12 C17        -3.3720    2.3860    0.9560 ca        1 KRV     -0.043000
     13 C18        -4.4930    3.0490    0.4400 ca        1 KRV     -0.019000
     14 C19        -5.7740    2.4360    0.5140 c1        1 KRV     -0.103000
     15 N20        -6.8230    1.9370    0.5710 n1        1 KRV     -0.020000
     16 C21        -4.3600    4.3150   -0.1460 ca        1 KRV     -0.062000
     17 C22        -3.1030    4.9230   -0.2270 ca        1 KRV     -0.085000
     18 C23        -1.9840    4.2560    0.2790 ca        1 KRV     -0.057000
     19 C24        -2.9620    6.2570   -0.8560 c3        1 KRV     -0.183000
     20 C25        -1.7670    2.5060    4.2120 c3        1 KRV     -0.037000
     21 C26        -3.2070    2.5920    4.6850 c3        1 KRV     -0.213500
     22 C27        -0.8130    2.7440    5.3690 c3        1 KRV     -0.213500
     23 O28        -1.9960   -0.0910    5.5360 o         1 KRV     -0.348000
     24 O29        -0.6200   -2.4020    1.8320 o         1 KRV     -0.385000
     25 H1          0.0460   -0.6660   -1.6780 ha        1 KRV      0.084000
     26 H1A        -0.3860   -0.1550    0.6480 hn        1 KRV      0.338000
     27 H2          1.7320    1.3890   -0.3620 hc        1 KRV      0.139000
     28 H2A         2.3290    0.3260   -1.7340 hc        1 KRV      0.139000
     29 H2B         2.3630   -0.2590   -0.0030 hc        1 KRV      0.139000
     30 HN10       -1.4220   -2.1070    4.1950 hn        1 KRV      0.262000
     31 H17        -3.4840    1.3950    1.4270 ha        1 KRV      0.164000
     32 H21        -5.2470    4.8330   -0.5430 ha        1 KRV      0.151000
     33 H23        -0.9850    4.7200    0.2180 ha        1 KRV      0.158000
     34 H24        -2.9120    6.1500   -1.9700 hc        1 KRV      0.092000
     35 H24A       -3.8360    6.9080   -0.6060 hc        1 KRV      0.092000
     36 H24B       -2.0300    6.7680   -0.5110 hc        1 KRV      0.092000
     37 H25        -1.6030    3.3310    3.4560 hc        1 KRV      0.077000
     38 H26        -3.3960    3.5940    5.1410 hc        1 KRV      0.083000
     39 H26A       -3.4130    1.8040    5.4500 hc        1 KRV      0.083000
     40 H26B       -3.9060    2.4520    3.8260 hc        1 KRV      0.083000
     41 H27         0.2450    2.7150    5.0150 hc        1 KRV      0.083000
     42 H27A       -1.0130    3.7440    5.8230 hc        1 KRV      0.083000
     43 H27B       -0.9520    1.9590    6.1530 hc        1 KRV      0.083000
@<TRIPOS>BOND
     1    1    2 1   
     2    1   25 1   
     3    2   27 1   
     4    2   28 1   
     5    2   29 1   
     6    3    4 1   
     7    3    8 1   
     8    3   26 1   
     9    4    5 1   
    10    4   24 1   
    11    5    6 1   
    12    5   30 1   
    13    6    7 1   
    14    6   23 1   
    15    7    8 1   
    16    7   20 1   
    17    8    9 1   
    18    9   10 1   
    19    9   11 1   
    20   11   12 1   
    21   11   18 1   
    22   12   13 1   
    23   12   31 1   
    24   13   14 1   
    25   13   16 1   
    26   14   15 1   
    27   16   17 1   
    28   16   32 1   
    29   17   18 1   
    30   17   19 1   
    31   18   33 1   
    32   19   34 1   
    33   19   35 1   
    34   19   36 1   
    35   20   21 1   
    36   20   22 1   
    37   20   37 1   
    38   21   38 1   
    39   21   39 1   
    40   21   40 1   
    41   22   41 1   
    42   22   42 1   
    43   22   43 1   
@<TRIPOS>SUBSTRUCTURE
     1 KRV         1 TEMP              0 ****  ****    0 ROOT
