@<TRIPOS>MOLECULE
KRV
   43    43     1     0     0
SMALL
bcc


@<TRIPOS>ATOM
      1 C1          0.4530   -0.1940   -0.7660 c1        1 KRV     -0.064000
      2 C2          1.7810    0.3360   -0.7570 c3        1 KRV     -0.313000
      3 N8         -0.8270   -0.1110    1.6270 ns        1 KRV     -0.344000
      4 C9         -0.9130   -1.3040    2.3620 c2        1 KRV      0.384000
      5 N10        -1.3480   -1.2460    3.6960 ns        1 KRV     -0.368000
      6 C11        -1.6420   -0.0370    4.3460 c2        1 KRV      0.358000
      7 C12        -1.4960    1.1990    3.5480 c2        1 KRV     -0.222000
      8 C13        -1.0990    1.0970    2.2390 c2        1 KRV      0.039000
      9 C14        -0.9020    2.3150    1.3730 c2        1 KRV      0.319000
     10 O15         0.2380    2.6940    1.0830 o         1 KRV     -0.285000
     11 C16        -2.1130    2.9900    0.8690 ca        1 KRV     -0.159000
     12 C17        -3.3700    2.3830    0.9510 ca        1 KRV     -0.043000
     13 C18        -4.4920    3.0450    0.4340 ca        1 KRV     -0.019000
     14 C19        -5.7720    2.4300    0.5030 c1        1 KRV     -0.103000
     15 N20        -6.8200    1.9280    0.5580 n1        1 KRV     -0.020000
     16 C21        -4.3600    4.3110   -0.1510 ca        1 KRV     -0.062000
     17 C22        -3.1030    4.9210   -0.2290 ca        1 KRV     -0.085000
     18 C23        -1.9840    4.2560    0.2800 ca        1 KRV     -0.057000
     19 C24        -2.9620    6.2560   -0.8570 c3        1 KRV     -0.183000
     20 C25        -1.7730    2.5070    4.2120 c3        1 KRV     -0.037000
     21 C26        -3.2130    2.5910    4.6810 c3        1 KRV     -0.213500
     22 C27        -0.8210    2.7460    5.3700 c3        1 KRV     -0.213500
     23 O28        -2.0000   -0.0900    5.5360 o         1 KRV     -0.348000
     24 O29        -0.6140   -2.4010    1.8360 o         1 KRV     -0.385000
     25 H1          0.0570   -0.6650   -1.6740 ha        1 KRV      0.084000
     26 H1A        -0.3810   -0.1540    0.6520 hn        1 KRV      0.338000
     27 H2          1.7380    1.3920   -0.3550 hc        1 KRV      0.139000
     28 H2A         2.3390    0.3290   -1.7260 hc        1 KRV      0.139000
     29 H2B         2.3690   -0.2550    0.0060 hc        1 KRV      0.139000
     30 HN10       -1.4210   -2.1060    4.1970 hn        1 KRV      0.262000
     31 H17        -3.4820    1.3920    1.4220 ha        1 KRV      0.164000
     32 H21        -5.2470    4.8290   -0.5500 ha        1 KRV      0.151000
     33 H23        -0.9860    4.7220    0.2210 ha        1 KRV      0.158000
     34 H24        -2.8930    6.1490   -1.9690 hc        1 KRV      0.092000
     35 H24A       -3.8460    6.9000   -0.6220 hc        1 KRV      0.092000
     36 H24B       -2.0410    6.7750   -0.4960 hc        1 KRV      0.092000
     37 H25        -1.6080    3.3310    3.4550 hc        1 KRV      0.077000
     38 H26        -3.4050    3.5920    5.1370 hc        1 KRV      0.083000
     39 H26A       -3.4200    1.8030    5.4470 hc        1 KRV      0.083000
     40 H26B       -3.9110    2.4490    3.8210 hc        1 KRV      0.083000
     41 H27         0.2380    2.7190    5.0180 hc        1 KRV      0.083000
     42 H27A       -1.0230    3.7460    5.8230 hc        1 KRV      0.083000
     43 H27B       -0.9610    1.9620    6.1540 hc        1 KRV      0.083000
@<TRIPOS>BOND
     1    1    2 1   
     2    1   25 1   
     3    2   27 1   
     4    2   28 1   
     5    2   29 1   
     6    3    4 1   
     7    3    8 1   
     8    3   26 1   
     9    4    5 1   
    10    4   24 1   
    11    5    6 1   
    12    5   30 1   
    13    6    7 1   
    14    6   23 1   
    15    7    8 1   
    16    7   20 1   
    17    8    9 1   
    18    9   10 1   
    19    9   11 1   
    20   11   12 1   
    21   11   18 1   
    22   12   13 1   
    23   12   31 1   
    24   13   14 1   
    25   13   16 1   
    26   14   15 1   
    27   16   17 1   
    28   16   32 1   
    29   17   18 1   
    30   17   19 1   
    31   18   33 1   
    32   19   34 1   
    33   19   35 1   
    34   19   36 1   
    35   20   21 1   
    36   20   22 1   
    37   20   37 1   
    38   21   38 1   
    39   21   39 1   
    40   21   40 1   
    41   22   41 1   
    42   22   42 1   
    43   22   43 1   
@<TRIPOS>SUBSTRUCTURE
     1 KRV         1 TEMP              0 ****  ****    0 ROOT
