@<TRIPOS>MOLECULE
KRW
   44    48     1     0     0
SMALL
bcc


@<TRIPOS>ATOM
      1 O28        -0.2120    0.2340    0.4600 oh        1 KRW     -0.603800
      2 C27         1.1750    0.0570    0.2170 c3        1 KRW      0.115400
      3 C26         1.8120   -0.0470    1.6130 c3        1 KRW      0.048300
      4 N12         3.2610   -0.0780    1.5830 na        1 KRW      0.093400
      5 C11         4.0810    0.9060    2.1330 cc        1 KRW     -0.100300
      6 N13         3.9750   -1.0480    0.9760 nc        1 KRW     -0.513800
      7 C14         5.2810   -0.7290    1.1280 cd        1 KRW      0.351200
      8 C10         5.4100    0.5160    1.8650 cd        1 KRW     -0.346800
      9 C1          6.6310    1.1880    2.2320 ca        1 KRW      0.447500
     10 N4          7.8160    0.6690    1.8220 nb        1 KRW     -0.632000
     11 C5          8.8910    1.3930    2.2250 ca        1 KRW      0.308500
     12 N9         10.2830    1.2040    2.0690 na        1 KRW     -0.038800
     13 N8         10.9250    2.2500    2.6660 nc        1 KRW     -0.129400
     14 N7         10.1480    3.0550    3.2450 nd        1 KRW     -0.249000
     15 C6          8.7970    2.6210    3.0350 ca        1 KRW      0.347000
     16 N3          7.5960    3.1120    3.4390 nb        1 KRW     -0.536000
     17 C2          6.5480    2.3940    3.0300 ca        1 KRW      0.258900
     18 C          10.9040    0.2620    1.1550 c3        1 KRW      0.110600
     19 C16        11.1910    0.8170   -0.2090 ca        1 KRW     -0.130300
     20 C19        12.2290    1.7010   -0.4030 ca        1 KRW     -0.076000
     21 C20        12.5170    2.1970   -1.6990 ca        1 KRW     -0.155300
     22 C25        13.5820    3.1150   -1.9350 ca        1 KRW     -0.073000
     23 C24        13.8140    3.5590   -3.2110 ca        1 KRW     -0.250300
     24 C23        12.9720    3.0800   -4.2650 ca        1 KRW      0.418200
     25 N22        11.9740    2.2320   -4.0960 nb        1 KRW     -0.659000
     26 C21        11.7260    1.7760   -2.8130 ca        1 KRW      0.403600
     27 C18        10.6520    0.8600   -2.5750 ca        1 KRW     -0.167300
     28 C17        10.3970    0.4020   -1.3080 ca        1 KRW     -0.105000
     29 H28        -0.6510    0.1590   -0.3950 ho        1 KRW      0.413000
     30 H271        1.5760    0.9400   -0.3480 h1        1 KRW      0.044200
     31 H272        1.3590   -0.8780   -0.3740 h1        1 KRW      0.044200
     32 H261        1.4350   -0.9860    2.1110 h1        1 KRW      0.079700
     33 H262        1.4940    0.8390    2.2310 h1        1 KRW      0.079700
     34 H11         3.6800    1.7720    2.6590 h4        1 KRW      0.183000
     35 H14         6.0890   -1.3510    0.7380 h4        1 KRW      0.060100
     36 H2          5.5590    2.7720    3.3420 h4        1 KRW      0.034100
     37 HC1        10.2070   -0.6210    1.0770 h1        1 KRW      0.084200
     38 HC2        11.8720   -0.0810    1.6260 h1        1 KRW      0.084200
     39 H19        12.8480    2.0390    0.4440 ha        1 KRW      0.148000
     40 H17         9.5630   -0.2960   -1.1300 ha        1 KRW      0.143000
     41 H25        14.1950    3.4510   -1.0860 ha        1 KRW      0.143000
     42 H24        14.6200    4.2670   -3.4440 ha        1 KRW      0.147000
     43 H23        13.1450    3.4270   -5.3010 h4        1 KRW      0.024100
     44 H18        10.0330    0.5330   -3.4260 ha        1 KRW      0.154000
@<TRIPOS>BOND
     1    1    2 1   
     2    1   29 1   
     3    2    3 1   
     4    2   30 1   
     5    2   31 1   
     6    3    4 1   
     7    3   32 1   
     8    3   33 1   
     9    4    5 1   
    10    4    6 1   
    11    5    8 2   
    12    5   34 1   
    13    6    7 2   
    14    7    8 1   
    15    7   35 1   
    16    8    9 1   
    17    9   10 ar  
    18    9   17 ar  
    19   10   11 ar  
    20   11   12 1   
    21   11   15 ar  
    22   12   13 1   
    23   12   18 1   
    24   13   14 2   
    25   14   15 1   
    26   15   16 ar  
    27   16   17 ar  
    28   17   36 1   
    29   18   19 1   
    30   18   37 1   
    31   18   38 1   
    32   19   20 ar  
    33   19   28 ar  
    34   20   21 ar  
    35   20   39 1   
    36   21   22 ar  
    37   21   26 ar  
    38   22   23 ar  
    39   22   41 1   
    40   23   24 ar  
    41   23   42 1   
    42   24   25 ar  
    43   24   43 1   
    44   25   26 ar  
    45   26   27 ar  
    46   27   28 ar  
    47   27   44 1   
    48   28   40 1   
@<TRIPOS>SUBSTRUCTURE
     1 KRW         1 TEMP              0 ****  ****    0 ROOT
