@<TRIPOS>MOLECULE
KRW
   44    48     1     0     0
SMALL
bcc


@<TRIPOS>ATOM
      1 O28        -0.2130    0.2510    0.4610 oh        1 KRW     -0.603800
      2 C27         1.1730    0.0710    0.2180 c3        1 KRW      0.115400
      3 C26         1.8100   -0.0370    1.6140 c3        1 KRW      0.048300
      4 N12         3.2590   -0.0720    1.5830 na        1 KRW      0.093400
      5 C11         4.0820    0.9110    2.1340 cc        1 KRW     -0.100300
      6 N13         3.9710   -1.0420    0.9750 nc        1 KRW     -0.513800
      7 C14         5.2770   -0.7260    1.1280 cd        1 KRW      0.351200
      8 C10         5.4100    0.5180    1.8660 cd        1 KRW     -0.346800
      9 C1          6.6320    1.1870    2.2330 ca        1 KRW      0.447500
     10 N4          7.8150    0.6670    1.8210 nb        1 KRW     -0.632000
     11 C5          8.8930    1.3890    2.2250 ca        1 KRW      0.308500
     12 N9         10.2840    1.1970    2.0680 na        1 KRW     -0.038800
     13 N8         10.9280    2.2410    2.6660 nc        1 KRW     -0.129400
     14 N7         10.1530    3.0460    3.2470 nd        1 KRW     -0.249000
     15 C6          8.8010    2.6150    3.0370 ca        1 KRW      0.347000
     16 N3          7.6020    3.1080    3.4430 nb        1 KRW     -0.536000
     17 C2          6.5520    2.3920    3.0320 ca        1 KRW      0.258900
     18 C          10.9030    0.2550    1.1520 c3        1 KRW      0.110600
     19 C16        11.1900    0.8110   -0.2110 ca        1 KRW     -0.130300
     20 C19        12.2290    1.6940   -0.4050 ca        1 KRW     -0.076000
     21 C20        12.5170    2.1910   -1.7000 ca        1 KRW     -0.155300
     22 C25        13.5840    3.1070   -1.9350 ca        1 KRW     -0.073000
     23 C24        13.8170    3.5540   -3.2110 ca        1 KRW     -0.250300
     24 C23        12.9730    3.0770   -4.2650 ca        1 KRW      0.418200
     25 N22        11.9730    2.2310   -4.0960 nb        1 KRW     -0.659000
     26 C21        11.7260    1.7730   -2.8140 ca        1 KRW      0.403600
     27 C18        10.6490    0.8590   -2.5770 ca        1 KRW     -0.167300
     28 C17        10.3950    0.3990   -1.3100 ca        1 KRW     -0.105000
     29 H28        -0.6520    0.1780   -0.3940 ho        1 KRW      0.413000
     30 H271        1.5760    0.9540   -0.3460 h1        1 KRW      0.044200
     31 H272        1.3560   -0.8640   -0.3740 h1        1 KRW      0.044200
     32 H261        1.4310   -0.9760    2.1100 h1        1 KRW      0.080200
     33 H262        1.4950    0.8480    2.2330 h1        1 KRW      0.080200
     34 H11         3.6820    1.7770    2.6610 h4        1 KRW      0.183000
     35 H14         6.0840   -1.3490    0.7370 h4        1 KRW      0.060100
     36 H2          5.5640    2.7720    3.3460 h4        1 KRW      0.034100
     37 HC1        10.2040   -0.6270    1.0730 h1        1 KRW      0.084200
     38 HC2        11.8700   -0.0910    1.6220 h1        1 KRW      0.084200
     39 H19        12.8490    2.0300    0.4430 ha        1 KRW      0.148000
     40 H17         9.5600   -0.2980   -1.1330 ha        1 KRW      0.143000
     41 H25        14.1990    3.4410   -1.0860 ha        1 KRW      0.143000
     42 H24        14.6240    4.2600   -3.4430 ha        1 KRW      0.147000
     43 H23        13.1460    3.4260   -5.3010 h4        1 KRW      0.024100
     44 H18        10.0290    0.5340   -3.4280 ha        1 KRW      0.154000
@<TRIPOS>BOND
     1    1    2 1   
     2    1   29 1   
     3    2    3 1   
     4    2   30 1   
     5    2   31 1   
     6    3    4 1   
     7    3   32 1   
     8    3   33 1   
     9    4    5 1   
    10    4    6 1   
    11    5    8 2   
    12    5   34 1   
    13    6    7 2   
    14    7    8 1   
    15    7   35 1   
    16    8    9 1   
    17    9   10 ar  
    18    9   17 ar  
    19   10   11 ar  
    20   11   12 1   
    21   11   15 ar  
    22   12   13 1   
    23   12   18 1   
    24   13   14 2   
    25   14   15 1   
    26   15   16 ar  
    27   16   17 ar  
    28   17   36 1   
    29   18   19 1   
    30   18   37 1   
    31   18   38 1   
    32   19   20 ar  
    33   19   28 ar  
    34   20   21 ar  
    35   20   39 1   
    36   21   22 ar  
    37   21   26 ar  
    38   22   23 ar  
    39   22   41 1   
    40   23   24 ar  
    41   23   42 1   
    42   24   25 ar  
    43   24   43 1   
    44   25   26 ar  
    45   26   27 ar  
    46   27   28 ar  
    47   27   44 1   
    48   28   40 1   
@<TRIPOS>SUBSTRUCTURE
     1 KRW         1 TEMP              0 ****  ****    0 ROOT
