@<TRIPOS>MOLECULE
KRW
   44    48     1     0     0
SMALL
bcc


@<TRIPOS>ATOM
      1 O28         8.0660    2.4890   -0.9700 oh        1 KRW     -0.603800
      2 C27         6.7360    2.3710   -0.4890 c3        1 KRW      0.115400
      3 C26         6.5840    0.8920   -0.1010 c3        1 KRW      0.048300
      4 N12         5.2300    0.5320    0.2750 na        1 KRW      0.093400
      5 C11         4.4320   -0.3720   -0.4260 cc        1 KRW     -0.100300
      6 N13         4.5780    1.0720    1.3250 nc        1 KRW     -0.513800
      7 C14         3.3430    0.5210    1.3460 cd        1 KRW      0.351200
      8 C10         3.1920   -0.4150    0.2450 cd        1 KRW     -0.346800
      9 C1          2.0290   -1.2040   -0.0750 ca        1 KRW      0.447500
     10 N4          0.9060   -1.0510    0.6710 nb        1 KRW     -0.632000
     11 C5         -0.1210   -1.8430    0.2690 ca        1 KRW      0.308500
     12 N9         -1.4270   -2.0410    0.7720 na        1 KRW     -0.038800
     13 N8         -2.0570   -2.9510   -0.0260 nc        1 KRW     -0.129400
     14 N7         -1.3210   -3.4210   -0.9340 nd        1 KRW     -0.249000
     15 C6         -0.0370   -2.7850   -0.8610 ca        1 KRW      0.347000
     16 N3          1.1040   -2.9230   -1.5850 nb        1 KRW     -0.536000
     17 C2          2.1030   -2.1330   -1.1830 ca        1 KRW      0.258900
     18 C          -2.0910   -1.1900    1.7430 c3        1 KRW      0.110600
     19 C16        -2.8810   -0.0640    1.1440 ca        1 KRW     -0.130300
     20 C19        -4.0850   -0.3040    0.5210 ca        1 KRW     -0.076000
     21 C20        -4.8430    0.7660   -0.0140 ca        1 KRW     -0.155300
     22 C25        -6.0920    0.5530   -0.6680 ca        1 KRW     -0.073000
     23 C24        -6.7830    1.6280   -1.1640 ca        1 KRW     -0.250300
     24 C23        -6.2190    2.9340   -1.0050 ca        1 KRW      0.418200
     25 N22        -5.0660    3.1820   -0.4090 nb        1 KRW     -0.659000
     26 C21        -4.3570    2.1060    0.0950 ca        1 KRW      0.403600
     27 C18        -3.0990    2.3210    0.7450 ca        1 KRW     -0.167300
     28 C17        -2.3880    1.2620    1.2480 ca        1 KRW     -0.105000
     29 H28         8.2330    3.4310   -1.0860 ho        1 KRW      0.413000
     30 H271        6.5760    3.0340    0.4010 h1        1 KRW      0.044200
     31 H272        6.0140    2.6560   -1.3000 h1        1 KRW      0.044200
     32 H261        6.8860    0.2480   -0.9730 h1        1 KRW      0.079700
     33 H262        7.2750    0.6740    0.7630 h1        1 KRW      0.079700
     34 H11         4.7900   -0.9030   -1.3080 h4        1 KRW      0.183000
     35 H14         2.5980    0.7730    2.1030 h4        1 KRW      0.060100
     36 H2          3.0420   -2.2230   -1.7560 h4        1 KRW      0.034100
     37 HC1        -2.7820   -1.8430    2.3520 h1        1 KRW      0.084200
     38 HC2        -1.2860   -0.7830    2.4210 h1        1 KRW      0.084200
     39 H19        -4.4750   -1.3310    0.4240 ha        1 KRW      0.148000
     40 H17        -1.4170    1.4320    1.7400 ha        1 KRW      0.143000
     41 H25        -6.4760   -0.4740   -0.7620 ha        1 KRW      0.143000
     42 H24        -7.7470    1.5160   -1.6760 ha        1 KRW      0.147000
     43 H23        -6.7630    3.8140   -1.3990 h4        1 KRW      0.024100
     44 H18        -2.7120    3.3490    0.8300 ha        1 KRW      0.154000
@<TRIPOS>BOND
     1    1    2 1   
     2    1   29 1   
     3    2    3 1   
     4    2   30 1   
     5    2   31 1   
     6    3    4 1   
     7    3   32 1   
     8    3   33 1   
     9    4    5 1   
    10    4    6 1   
    11    5    8 2   
    12    5   34 1   
    13    6    7 2   
    14    7    8 1   
    15    7   35 1   
    16    8    9 1   
    17    9   10 ar  
    18    9   17 ar  
    19   10   11 ar  
    20   11   12 1   
    21   11   15 ar  
    22   12   13 1   
    23   12   18 1   
    24   13   14 2   
    25   14   15 1   
    26   15   16 ar  
    27   16   17 ar  
    28   17   36 1   
    29   18   19 1   
    30   18   37 1   
    31   18   38 1   
    32   19   20 ar  
    33   19   28 ar  
    34   20   21 ar  
    35   20   39 1   
    36   21   22 ar  
    37   21   26 ar  
    38   22   23 ar  
    39   22   41 1   
    40   23   24 ar  
    41   23   42 1   
    42   24   25 ar  
    43   24   43 1   
    44   25   26 ar  
    45   26   27 ar  
    46   27   28 ar  
    47   27   44 1   
    48   28   40 1   
@<TRIPOS>SUBSTRUCTURE
     1 KRW         1 TEMP              0 ****  ****    0 ROOT
