@<TRIPOS>MOLECULE
KRW
   44    37     1     0     0
SMALL
bcc


@<TRIPOS>ATOM
      1 O28         2.4650   -6.5890   -4.4450 oh        1 KRW     -0.331000
      2 C27         1.6200   -5.5900   -3.9030 c3        1 KRW     -0.036000
      3 C26         1.3140   -5.9180   -2.4000 c3        1 KRW     -0.011000
      4 N12         0.3270   -4.9990   -1.9060 n3        1 KRW     -0.125000
      5 C11         0.2800   -4.4700   -0.6570 c1        1 KRW     -0.048000
      6 N13        -0.7760   -4.5520   -2.5990 n2        1 KRW     -0.075000
      7 C14        -1.4940   -3.7540   -1.7770 c1        1 KRW     -0.135000
      8 C10        -0.8450   -3.6980   -0.5670 c1        1 KRW     -0.179000
      9 C1         -1.2480   -2.8160    0.6370 c1        1 KRW      0.077000
     10 N4         -1.0880   -1.5010    0.4400 n1        1 KRW     -0.117000
     11 C5         -1.3890   -0.6150    1.4450 c1        1 KRW     -0.018000
     12 N9         -1.1620    0.7260    1.5660 n1        1 KRW     -0.175000
     13 N8         -1.4820    1.0940    2.8380 n2        1 KRW      0.049000
     14 N7         -1.9090   -0.0190    3.5060 n2        1 KRW     -0.029000
     15 C6         -1.8510   -1.0760    2.6450 c1        1 KRW     -0.135000
     16 N3         -2.0140   -2.4180    2.8450 n1        1 KRW     -0.010000
     17 C2         -1.7190   -3.2850    1.8610 c2        1 KRW     -0.134000
     18 C          -0.4380    1.5810    0.6420 c2        1 KRW      0.045000
     19 C16        -0.5810    2.9940    1.0620 c2        1 KRW     -0.123000
     20 C19         0.5670    3.6070    1.5520 c2        1 KRW     -0.076000
     21 C20         0.7780    4.9910    1.3360 c1        1 KRW     -0.090000
     22 C25         1.8940    5.6190    1.8830 c1        1 KRW     -0.129000
     23 C24         2.0630    6.9650    1.7290 c1        1 KRW     -0.129000
     24 C23         1.1190    7.7080    1.0260 c1        1 KRW     -0.047000
     25 N22         0.0160    7.0870    0.4860 n1        1 KRW     -0.133000
     26 C21        -0.1560    5.7290    0.6400 c1        1 KRW      0.010000
     27 C18        -1.3250    5.1010    0.1420 c1        1 KRW     -0.102000
     28 C17        -1.5290    3.7410    0.3560 c1        1 KRW     -0.106000
     29 H28         2.4650   -6.5280   -5.3340 ho        1 KRW      0.212000
     30 H271        2.0640   -4.7190   -3.9630 h1        1 KRW      0.083000
     31 H272        0.7780   -5.5630   -4.4100 h1        1 KRW      0.083000
     32 H261        2.1450   -5.8300   -1.8670 h1        1 KRW      0.119500
     33 H262        0.9750   -6.8300   -2.3270 h1        1 KRW      0.119500
     34 H11         0.9280   -4.6150    0.0470 DU        1 KRW      0.189500
     35 H14        -2.3330   -3.2950   -2.0040 DU        1 KRW      0.189500
     36 H2         -1.7450   -4.2500    2.0360 h4        1 KRW      0.177000
     37 HC1        -0.8040    1.4700   -0.2630 ha        1 KRW      0.122500
     38 HC2         0.5080    1.3350    0.6430 ha        1 KRW      0.122500
     39 H19         1.2570    3.0720    1.9780 ha        1 KRW      0.149000
     40 H17        -2.3420    3.3090    0.0210 ha        1 KRW      0.140000
     41 H25         2.5540    5.0970    2.3750 ha        1 KRW      0.145000
     42 H24         2.8580    7.4120    2.1180 ha        1 KRW      0.145000
     43 H23         1.2400    8.6720    0.9150 ha        1 KRW      0.161000
     44 H18        -1.9870    5.6210   -0.3500 ha        1 KRW      0.153000
@<TRIPOS>BOND
     1    1    2 1   
     2    1   29 1   
     3    2    3 1   
     4    2   30 1   
     5    2   31 1   
     6    3    4 1   
     7    3   32 1   
     8    3   33 1   
     9    4    5 1   
    10    4    6 1   
    11    5    8 1   
    12    6    7 1   
    13    7    8 1   
    14    9   10 1   
    15    9   17 1   
    16   11   15 1   
    17   12   13 1   
    18   13   14 1   
    19   14   15 1   
    20   16   17 1   
    21   17   36 1   
    22   18   19 1   
    23   18   37 1   
    24   18   38 1   
    25   19   20 1   
    26   19   28 1   
    27   20   21 1   
    28   20   39 1   
    29   21   26 1   
    30   22   23 1   
    31   22   41 1   
    32   23   42 1   
    33   24   25 1   
    34   24   43 1   
    35   26   27 1   
    36   27   44 1   
    37   28   40 1   
@<TRIPOS>SUBSTRUCTURE
     1 KRW         1 TEMP              0 ****  ****    0 ROOT
