@<TRIPOS>MOLECULE
KRX
   51    53     1     0     0
SMALL
bcc


@<TRIPOS>ATOM
      1 C1         -0.0200   -0.4290   -0.0210 c3        1 KRX      0.108700
      2 O2          1.4040   -0.4110    0.0530 os        1 KRX     -0.320900
      3 C3          1.9480   -0.1760    1.2970 ca        1 KRX      0.125100
      4 C4          1.2080    0.0230    2.4680 ca        1 KRX     -0.163000
      5 C5          1.8820    0.2510    3.6680 ca        1 KRX     -0.094000
      6 C6          3.2720    0.2720    3.7120 ca        1 KRX     -0.135000
      7 C7          4.0130    0.0670    2.5350 cp        1 KRX     -0.173500
      8 C8          3.3570   -0.1480    1.3210 ca        1 KRX     -0.099000
      9 C9          5.4800    0.0820    2.5940 cp        1 KRX      0.574800
     10 C10         6.1400   -0.4150    3.7500 ca        1 KRX     -0.250300
     11 C11         7.5250   -0.3980    3.8090 ca        1 KRX      0.004000
     12 C12         8.2560    0.1100    2.7110 ca        1 KRX     -0.362900
     13 C13         7.5180    0.5820    1.5970 ca        1 KRX      0.461200
     14 N14         6.1860    0.5710    1.5300 nb        1 KRX     -0.651000
     15 C15         9.7040    0.1190    2.8140 c         1 KRX      0.583700
     16 O16        10.3900   -0.1720    3.7860 o         1 KRX     -0.437100
     17 N17        10.4590    0.5390    1.5630 ny        1 KRX     -0.678800
     18 C18        11.9500    0.3150    1.6250 c3        1 KRX      0.124500
     19 C19        12.6630    1.1640    0.5670 c3        1 KRX     -0.104400
     20 C20        14.1710    0.9020    0.6350 c3        1 KRX      0.189800
     21 N21        14.4830   -0.5070    0.4980 n3        1 KRX     -0.772600
     22 C22        13.8200   -1.3450    1.4780 c3        1 KRX      0.189800
     23 C23        12.2990   -1.1660    1.4450 c3        1 KRX     -0.104400
     24 C24        15.8710   -0.8010    0.2650 c3        1 KRX      0.154800
     25 C25        16.1840   -0.8920   -1.2790 c3        1 KRX      0.619900
     26 F26        15.9400    0.2670   -1.9680 f         1 KRX     -0.231300
     27 F27        17.5050   -1.1740   -1.5090 f         1 KRX     -0.231300
     28 F28        15.4870   -1.8640   -1.9420 f         1 KRX     -0.231300
     29 H11C       -0.2160   -0.6240   -1.1070 h1        1 KRX      0.054367
     30 H12C       -0.4350   -1.2520    0.6100 h1        1 KRX      0.054367
     31 H13C       -0.4420    0.5580    0.2860 h1        1 KRX      0.054367
     32 H4          0.1080    0.0050    2.4530 ha        1 KRX      0.155000
     33 H8          3.9080   -0.3000    0.3800 ha        1 KRX      0.167000
     34 H5          1.3030    0.4180    4.5910 ha        1 KRX      0.151000
     35 H6          3.7830    0.4690    4.6660 ha        1 KRX      0.138000
     36 H10         5.5500   -0.8210    4.5870 ha        1 KRX      0.182000
     37 H11         8.0600   -0.7770    4.6970 ha        1 KRX      0.175000
     38 H13         8.0020    1.0080    0.6990 h4        1 KRX      0.013100
     39 H17        10.0800    0.0170    0.7660 hn        1 KRX      0.455800
     40 H18        12.2840    0.6470    2.6560 hx        1 KRX      0.121700
     41 H191       12.4920    2.2570    0.7520 hc        1 KRX      0.075200
     42 H192       12.2880    0.9120   -0.4600 hc        1 KRX      0.075200
     43 H231       11.8990   -1.5500    0.4700 hc        1 KRX      0.075200
     44 H232       11.8570   -1.7710    2.2790 hc        1 KRX      0.075200
     45 H201       14.5680    1.3270    1.6040 h1        1 KRX      0.063700
     46 H202       14.6630    1.4530   -0.2190 h1        1 KRX      0.063700
     47 H221       14.1840   -1.1330    2.5260 h1        1 KRX      0.063700
     48 H222       14.0470   -2.4230    1.2400 h1        1 KRX      0.063700
     49 H241       16.5620   -0.0130    0.6770 h1        1 KRX      0.085700
     50 H242       16.1570   -1.7990    0.7000 h1        1 KRX      0.085700
     51 H172       10.2840    1.5380    1.4080 hn        1 KRX      0.455800
@<TRIPOS>BOND
     1    1    2 1   
     2    1   29 1   
     3    1   30 1   
     4    1   31 1   
     5    2    3 1   
     6    3    4 ar  
     7    3    8 ar  
     8    4    5 ar  
     9    4   32 1   
    10    5    6 ar  
    11    5   34 1   
    12    6    7 ar  
    13    6   35 1   
    14    7    8 ar  
    15    7    9 1   
    16    8   33 1   
    17    9   10 ar  
    18    9   14 ar  
    19   10   11 ar  
    20   10   36 1   
    21   11   12 ar  
    22   11   37 1   
    23   12   13 ar  
    24   12   15 1   
    25   13   14 ar  
    26   13   38 1   
    27   15   16 2   
    28   15   17 1   
    29   17   18 1   
    30   17   39 1   
    31   17   51 1   
    32   18   19 1   
    33   18   23 1   
    34   18   40 1   
    35   19   20 1   
    36   19   41 1   
    37   19   42 1   
    38   20   21 1   
    39   20   45 1   
    40   20   46 1   
    41   21   22 1   
    42   21   24 1   
    43   22   23 1   
    44   22   47 1   
    45   22   48 1   
    46   23   43 1   
    47   23   44 1   
    48   24   25 1   
    49   24   49 1   
    50   24   50 1   
    51   25   26 1   
    52   25   27 1   
    53   25   28 1   
@<TRIPOS>SUBSTRUCTURE
     1 KRX         1 TEMP              0 ****  ****    0 ROOT
