@<TRIPOS>MOLECULE
KRX
   51    53     1     0     0
SMALL
bcc


@<TRIPOS>ATOM
      1 C1         -0.0270   -0.4050   -0.0210 c3        1 KRX      0.108700
      2 O2          1.3970   -0.3950    0.0530 os        1 KRX     -0.320900
      3 C3          1.9440   -0.1640    1.2960 ca        1 KRX      0.125100
      4 C4          1.2050    0.0380    2.4680 ca        1 KRX     -0.163000
      5 C5          1.8810    0.2620    3.6680 ca        1 KRX     -0.094000
      6 C6          3.2700    0.2770    3.7110 ca        1 KRX     -0.135000
      7 C7          4.0100    0.0690    2.5340 cp        1 KRX     -0.173500
      8 C8          3.3520   -0.1420    1.3190 ca        1 KRX     -0.098000
      9 C9          5.4770    0.0760    2.5910 cp        1 KRX      0.574800
     10 C10         6.1350   -0.4240    3.7470 ca        1 KRX     -0.250300
     11 C11         7.5210   -0.4140    3.8050 ca        1 KRX      0.004000
     12 C12         8.2530    0.0920    2.7070 ca        1 KRX     -0.362900
     13 C13         7.5170    0.5670    1.5940 ca        1 KRX      0.461200
     14 N14         6.1840    0.5630    1.5270 nb        1 KRX     -0.651000
     15 C15         9.7020    0.0940    2.8090 c         1 KRX      0.583700
     16 O16        10.3870   -0.2070    3.7790 o         1 KRX     -0.437100
     17 N17        10.4580    0.5210    1.5610 n4        1 KRX     -0.678800
     18 C18        11.9500    0.3020    1.6250 c3        1 KRX      0.124500
     19 C19        12.6620    1.1590    0.5730 c3        1 KRX     -0.104400
     20 C20        14.1700    0.9030    0.6440 c3        1 KRX      0.189800
     21 N21        14.4880   -0.5050    0.5010 n3        1 KRX     -0.772600
     22 C22        13.8260   -1.3500    1.4750 c3        1 KRX      0.189800
     23 C23        12.3050   -1.1760    1.4390 c3        1 KRX     -0.104400
     24 C24        15.8790   -0.7920    0.2690 c3        1 KRX      0.154800
     25 C25        16.1950   -0.8740   -1.2740 c3        1 KRX      0.619900
     26 F26        15.9480    0.2880   -1.9580 f         1 KRX     -0.231300
     27 F27        17.5180   -1.1480   -1.5020 f         1 KRX     -0.231300
     28 F28        15.5040   -1.8450   -1.9440 f         1 KRX     -0.231300
     29 H11C       -0.4460   -1.2260    0.6100 h1        1 KRX      0.054367
     30 H12C       -0.4440    0.5840    0.2870 h1        1 KRX      0.054367
     31 H13C       -0.2240   -0.5990   -1.1060 h1        1 KRX      0.054367
     32 H4          0.1050    0.0260    2.4540 ha        1 KRX      0.155000
     33 H8          3.9010   -0.2960    0.3780 ha        1 KRX      0.167000
     34 H5          1.3040    0.4310    4.5910 ha        1 KRX      0.151000
     35 H6          3.7830    0.4700    4.6640 ha        1 KRX      0.138000
     36 H10         5.5440   -0.8290    4.5830 ha        1 KRX      0.182000
     37 H11         8.0540   -0.7960    4.6920 ha        1 KRX      0.175000
     38 H13         8.0020    0.9910    0.6950 h4        1 KRX      0.013100
     39 H17        10.0820   -0.0010    0.7620 hn        1 KRX      0.455800
     40 H18        12.2790    0.6300    2.6590 hx        1 KRX      0.121700
     41 H191       12.2900    0.9110   -0.4560 hc        1 KRX      0.075200
     42 H192       12.4860    2.2500    0.7630 hc        1 KRX      0.075200
     43 H231       11.9080   -1.5570    0.4610 hc        1 KRX      0.075200
     44 H232       11.8630   -1.7880    2.2700 hc        1 KRX      0.075200
     45 H201       14.5630    1.3250    1.6160 h1        1 KRX      0.063700
     46 H202       14.6620    1.4600   -0.2060 h1        1 KRX      0.063700
     47 H221       14.1870   -1.1410    2.5250 h1        1 KRX      0.063700
     48 H222       14.0580   -2.4260    1.2320 h1        1 KRX      0.063700
     49 H241       16.5650   -0.0030    0.6870 h1        1 KRX      0.085700
     50 H242       16.1670   -1.7910    0.7000 h1        1 KRX      0.085700
     51 H172       10.2800    1.5190    1.4080 hn        1 KRX      0.455800
@<TRIPOS>BOND
     1    1    2 1   
     2    1   29 1   
     3    1   30 1   
     4    1   31 1   
     5    2    3 1   
     6    3    4 ar  
     7    3    8 ar  
     8    4    5 ar  
     9    4   32 1   
    10    5    6 ar  
    11    5   34 1   
    12    6    7 ar  
    13    6   35 1   
    14    7    8 ar  
    15    7    9 1   
    16    8   33 1   
    17    9   10 ar  
    18    9   14 ar  
    19   10   11 ar  
    20   10   36 1   
    21   11   12 ar  
    22   11   37 1   
    23   12   13 ar  
    24   12   15 1   
    25   13   14 ar  
    26   13   38 1   
    27   15   16 2   
    28   15   17 1   
    29   17   18 1   
    30   17   39 1   
    31   17   51 1   
    32   18   19 1   
    33   18   23 1   
    34   18   40 1   
    35   19   20 1   
    36   19   41 1   
    37   19   42 1   
    38   20   21 1   
    39   20   45 1   
    40   20   46 1   
    41   21   22 1   
    42   21   24 1   
    43   22   23 1   
    44   22   47 1   
    45   22   48 1   
    46   23   43 1   
    47   23   44 1   
    48   24   25 1   
    49   24   49 1   
    50   24   50 1   
    51   25   26 1   
    52   25   27 1   
    53   25   28 1   
@<TRIPOS>SUBSTRUCTURE
     1 KRX         1 TEMP              0 ****  ****    0 ROOT
