@<TRIPOS>MOLECULE
KS1
   41    45     1     0     0
SMALL
bcc


@<TRIPOS>ATOM
      1 CAI        -0.0150   -0.0670   -0.0510 c3        1 KS1     -0.092900
      2 CAG         1.4870    0.1720   -0.0350 c3        1 KS1     -0.079400
      3 CAH         1.9980   -0.1740    1.3590 c3        1 KS1     -0.079400
      4 CAJ         0.8060   -0.6320    2.1880 c3        1 KS1     -0.092900
      5 CAW        -0.4440   -0.1380    1.4300 c3        1 KS1      0.074000
      6 NAX        -1.6460   -0.9260    1.6740 na        1 KS1      0.007200
      7 NAN        -1.7530   -2.2410    1.4030 nc        1 KS1     -0.504100
      8 C4         -2.8620   -0.4080    2.1600 ca        1 KS1      0.473800
      9 N3         -3.1950    0.8610    2.5560 nb        1 KS1     -0.740000
     10 C2         -4.4690    0.9530    2.9970 ca        1 KS1      0.693900
     11 N1         -5.4300   -0.0040    3.1050 nb        1 KS1     -0.799000
     12 C6         -5.1020   -1.2760    2.6960 ca        1 KS1      0.755200
     13 NAA        -6.0430   -2.2800    2.7280 nv        1 KS1     -0.953500
     14 C5         -3.7870   -1.5300    2.1970 ca        1 KS1     -0.494500
     15 CAR        -3.0140   -2.6520    1.6980 cd        1 KS1      0.428500
     16 CAP        -3.4750   -4.0200    1.5290 ca        1 KS1     -0.253200
     17 CAF        -4.5920   -4.3130    0.7490 ca        1 KS1     -0.038000
     18 CAS        -4.9760   -5.6490    0.6340 ca        1 KS1     -0.207100
     19 CAD        -6.0310   -6.3590   -0.0440 cc        1 KS1     -0.176200
     20 CAB        -5.8600   -7.7120    0.2340 cd        1 KS1     -0.102100
     21 NAO        -4.7500   -7.9070    1.0610 na        1 KS1     -0.286100
     22 CAT        -4.1760   -6.6570    1.3230 ca        1 KS1      0.424800
     23 NAM        -3.0680   -6.3760    2.0780 nb        1 KS1     -0.670000
     24 CAE        -2.7530   -5.0820    2.1530 ca        1 KS1      0.441200
     25 HAI        -0.2470   -1.0200   -0.5900 hc        1 KS1      0.059200
     26 HAIA       -0.5570    0.7600   -0.5720 hc        1 KS1      0.059200
     27 HAG         1.9900   -0.4580   -0.8100 hc        1 KS1      0.045200
     28 HAGA        1.7150    1.2410   -0.2760 hc        1 KS1      0.045200
     29 HAH         2.7710   -0.9810    1.3100 hc        1 KS1      0.045200
     30 HAHA        2.4790    0.7200    1.8290 hc        1 KS1      0.045200
     31 HAJ         0.8120   -1.7460    2.2870 hc        1 KS1      0.059200
     32 HAJA        0.8320   -0.1980    3.2170 hc        1 KS1      0.059200
     33 HAW        -0.6840    0.9090    1.7830 h1        1 KS1      0.089700
     34 H2         -4.7850    1.9660    3.3300 h5        1 KS1      0.052100
     35 HNAA       -6.8990   -2.1290    3.2050 hn        1 KS1      0.438300
     36 HNAB       -5.7170   -3.2120    2.6330 hn        1 KS1      0.438300
     37 HAF        -5.1520   -3.5200    0.2310 ha        1 KS1      0.154000
     38 HAD        -6.8080   -5.9130   -0.6580 ha        1 KS1      0.162000
     39 HAB        -6.4530   -8.5680   -0.0970 h4        1 KS1      0.171000
     40 HNAO       -4.4040   -8.7730    1.3820 hn        1 KS1      0.311700
     41 HAE        -1.8520   -4.8490    2.7530 h4        1 KS1      0.035100
@<TRIPOS>BOND
     1    1    2 1   
     2    1    5 1   
     3    1   25 1   
     4    1   26 1   
     5    2    3 1   
     6    2   27 1   
     7    2   28 1   
     8    3    4 1   
     9    3   29 1   
    10    3   30 1   
    11    4    5 1   
    12    4   31 1   
    13    4   32 1   
    14    5    6 1   
    15    5   33 1   
    16    6    7 1   
    17    6    8 1   
    18    7   15 2   
    19    8    9 ar  
    20    8   14 ar  
    21    9   10 ar  
    22   10   11 ar  
    23   10   34 1   
    24   11   12 ar  
    25   12   13 1   
    26   12   14 ar  
    27   13   35 1   
    28   13   36 1   
    29   14   15 1   
    30   15   16 1   
    31   16   17 ar  
    32   16   24 ar  
    33   17   18 ar  
    34   17   37 1   
    35   18   19 1   
    36   18   22 ar  
    37   19   20 2   
    38   19   38 1   
    39   20   21 1   
    40   20   39 1   
    41   21   22 1   
    42   21   40 1   
    43   22   23 ar  
    44   23   24 ar  
    45   24   41 1   
@<TRIPOS>SUBSTRUCTURE
     1 KS1         1 TEMP              0 ****  ****    0 ROOT
