@<TRIPOS>MOLECULE
KS1
   41    34     1     0     0
SMALL
bcc


@<TRIPOS>ATOM
      1 CAI         2.2990    2.2110   -2.0570 c3        1 KS1     -0.171500
      2 CAG         3.5910    2.5990   -2.0070 c3        1 KS1     -0.158000
      3 CAH         4.0380    2.3580   -0.4990 c3        1 KS1     -0.158000
      4 CAJ         2.6960    2.0760    0.3050 c3        1 KS1     -0.171500
      5 CAW         1.7000    2.4140   -0.5430 c3        1 KS1      0.054000
      6 NAX         0.5740    1.5600   -0.3420 n3        1 KS1     -0.129000
      7 NAN         0.4870    0.1960   -0.4130 n2        1 KS1     -0.037000
      8 C4         -0.6470    2.0440    0.0560 c1        1 KS1      0.083000
      9 N3         -1.0980    3.3110    0.2790 n1        1 KS1     -0.216000
     10 C2         -2.3860    3.5170    0.6770 c1        1 KS1      0.032000
     11 N1         -3.2240    2.4560    0.8510 n1        1 KS1     -0.274000
     12 C6         -2.7830    1.2070    0.6320 c1        1 KS1      0.238000
     13 NAA        -4.0440    0.6530    0.9720 n2        1 KS1     -0.354000
     14 C5         -1.4740    0.9960    0.2280 c1        1 KS1     -0.282000
     15 CAR        -0.7650   -0.1600   -0.0650 c1        1 KS1     -0.027000
     16 CAP        -0.9080   -1.5380   -0.0160 c1        1 KS1     -0.107000
     17 CAF        -0.6760   -2.2740    1.1110 c1        1 KS1     -0.016000
     18 CAS        -0.8860   -3.6430    1.0990 c1        1 KS1     -0.126000
     19 CAD        -0.7360   -4.6100    2.0710 c1        1 KS1     -0.186000
     20 CAB        -1.0870   -5.8260    1.5190 c1        1 KS1     -0.076000
     21 NAO        -1.4500   -5.6110    0.2180 n2        1 KS1     -0.200000
     22 CAT        -1.3260   -4.2580   -0.0440 c1        1 KS1      0.030000
     23 NAM        -1.5600   -3.5120   -1.1840 n1        1 KS1     -0.145000
     24 CAE        -1.3540   -2.1640   -1.1730 c1        1 KS1     -0.046000
     25 HAI         1.8040    2.7690   -2.6920 hc        1 KS1      0.098750
     26 HAIA        2.2400    1.2690   -2.3190 hc        1 KS1      0.098750
     27 HAG         3.6700    3.5480   -2.2380 hc        1 KS1      0.084500
     28 HAGA        4.1340    2.0540   -2.6150 hc        1 KS1      0.084500
     29 HAH         4.6350    1.5840   -0.4430 hc        1 KS1      0.084500
     30 HAHA        4.4830    3.1540   -0.1470 hc        1 KS1      0.084500
     31 HAJ         2.6340    1.1270    0.5420 hc        1 KS1      0.098750
     32 HAJA        2.6600    2.6320    1.1110 hc        1 KS1      0.098750
     33 HAW         1.4430    3.3490   -0.4060 h1        1 KS1      0.129000
     34 H2         -2.7080    4.4240    0.8360 ha        1 KS1      0.189000
     35 HNAA       -4.1370    0.1660    1.7400 hn        1 KS1      0.236000
     36 HNAB       -4.7670    0.7980    0.4330 hn        1 KS1      0.236000
     37 HAF        -0.3290   -1.8400    1.9140 ha        1 KS1      0.153000
     38 HAD        -0.4350   -4.4610    2.9870 DU        1 KS1      0.197667
     39 HAB        -1.0720   -6.6880    1.9750 DU        1 KS1      0.197667
     40 HNAO       -1.7260   -6.2490   -0.3730 DU        1 KS1      0.197667
     41 HAE        -1.5130   -1.6390   -1.9810 ha        1 KS1      0.172000
@<TRIPOS>BOND
     1    1    2 1   
     2    1    5 1   
     3    1   25 1   
     4    1   26 1   
     5    2    3 1   
     6    2   27 1   
     7    2   28 1   
     8    3    4 1   
     9    3   29 1   
    10    3   30 1   
    11    4    5 1   
    12    4   31 1   
    13    4   32 1   
    14    5    6 1   
    15    5   33 1   
    16    6    7 1   
    17    6    8 1   
    18    7   15 1   
    19    8   14 1   
    20    9   10 1   
    21   10   34 1   
    22   11   12 1   
    23   12   14 1   
    24   13   35 1   
    25   13   36 1   
    26   15   16 1   
    27   16   24 1   
    28   17   18 1   
    29   17   37 1   
    30   19   20 1   
    31   20   21 1   
    32   21   22 1   
    33   22   23 1   
    34   24   41 1   
@<TRIPOS>SUBSTRUCTURE
     1 KS1         1 TEMP              0 ****  ****    0 ROOT
