@<TRIPOS>MOLECULE
KS1
   42    46     1     0     0
SMALL
bcc


@<TRIPOS>ATOM
      1 CAI        -0.0010   -0.0700   -0.0860 c3        1 KS1     -0.091900
      2 CAG         1.5030    0.1630   -0.0600 c3        1 KS1     -0.082400
      3 CAH         2.0020   -0.1660    1.3420 c3        1 KS1     -0.082400
      4 CAJ         0.8040   -0.6040    2.1720 c3        1 KS1     -0.091900
      5 CAW        -0.4340   -0.1150    1.3930 c3        1 KS1      0.060000
      6 NAX        -1.6480   -0.9100    1.6390 na        1 KS1      0.045200
      7 NAN        -1.7580   -2.2200    1.3720 nc        1 KS1     -0.419100
      8 C4         -2.8460   -0.3980    2.1630 ca        1 KS1      0.459800
      9 N3         -3.2000    0.8560    2.5750 nb        1 KS1     -0.623000
     10 C2         -4.4610    0.9500    3.0420 ca        1 KS1      0.681900
     11 N1         -5.4110   -0.0380    3.1570 nb        1 KS1     -0.697000
     12 C6         -5.0440   -1.2710    2.7450 ca        1 KS1      0.556200
     13 NAA        -6.0170   -2.3780    2.8630 n4        1 KS1     -0.832300
     14 C5         -3.7720   -1.5430    2.2200 ca        1 KS1     -0.432500
     15 CAR        -3.0040   -2.6540    1.6960 cd        1 KS1      0.411500
     16 CAP        -3.4910   -4.0130    1.5520 ca        1 KS1     -0.308200
     17 CAF        -4.5010   -4.3170    0.6350 ca        1 KS1     -0.071000
     18 CAS        -4.9310   -5.6380    0.5520 ca        1 KS1     -0.209100
     19 CAD        -5.9060   -6.3550   -0.2270 cc        1 KS1     -0.186200
     20 CAB        -5.8220   -7.6950    0.1440 cd        1 KS1     -0.068100
     21 NAO        -4.8520   -7.8730    1.1350 na        1 KS1     -0.269100
     22 CAT        -4.2700   -6.6320    1.4040 ca        1 KS1      0.435800
     23 NAM        -3.2630   -6.3390    2.2830 nb        1 KS1     -0.641000
     24 CAE        -2.9010   -5.0560    2.3270 ca        1 KS1      0.441200
     25 HAI        -0.2320   -1.0290   -0.6140 hc        1 KS1      0.064950
     26 HAIA       -0.5340    0.7530   -0.6220 hc        1 KS1      0.064950
     27 HAG         1.7370    1.2270   -0.3160 hc        1 KS1      0.059700
     28 HAGA        2.0070   -0.4810   -0.8240 hc        1 KS1      0.059700
     29 HAH         2.4870    0.7320    1.8020 hc        1 KS1      0.059700
     30 HAHA        2.7700   -0.9790    1.3110 hc        1 KS1      0.059700
     31 HAJ         0.8060   -1.7170    2.2900 hc        1 KS1      0.064950
     32 HAJA        0.8240   -0.1510    3.1930 hc        1 KS1      0.064950
     33 HAW        -0.6880    0.9330    1.7320 h1        1 KS1      0.096700
     34 H2         -4.7910    1.9580    3.3870 h5        1 KS1      0.099100
     35 HNAA       -6.9190   -2.1060    2.4530 hn        1 KS1      0.477800
     36 HNAB       -5.6370   -3.2030    2.3660 hn        1 KS1      0.477800
     37 HAF        -4.9150   -3.5500   -0.0360 ha        1 KS1      0.146000
     38 HAD        -6.5650   -5.9310   -0.9800 ha        1 KS1      0.173000
     39 HAB        -6.3910   -8.5540   -0.2260 h4        1 KS1      0.191000
     40 HNAO       -4.5670   -8.7350    1.5280 hn        1 KS1      0.328700
     41 HAE        -2.0700   -4.8230    3.0210 h4        1 KS1      0.045100
     42 HAA3       -6.1580   -2.6060    3.8550 hn        1 KS1      0.477800
@<TRIPOS>BOND
     1    1    2 1   
     2    1    5 1   
     3    1   25 1   
     4    1   26 1   
     5    2    3 1   
     6    2   27 1   
     7    2   28 1   
     8    3    4 1   
     9    3   29 1   
    10    3   30 1   
    11    4    5 1   
    12    4   31 1   
    13    4   32 1   
    14    5    6 1   
    15    5   33 1   
    16    6    7 1   
    17    6    8 1   
    18    7   15 2   
    19    8    9 ar  
    20    8   14 ar  
    21    9   10 ar  
    22   10   11 ar  
    23   10   34 1   
    24   11   12 ar  
    25   12   13 1   
    26   12   14 ar  
    27   13   35 1   
    28   13   36 1   
    29   13   42 1   
    30   14   15 1   
    31   15   16 1   
    32   16   17 ar  
    33   16   24 ar  
    34   17   18 ar  
    35   17   37 1   
    36   18   19 1   
    37   18   22 ar  
    38   19   20 2   
    39   19   38 1   
    40   20   21 1   
    41   20   39 1   
    42   21   22 1   
    43   21   40 1   
    44   22   23 ar  
    45   23   24 ar  
    46   24   41 1   
@<TRIPOS>SUBSTRUCTURE
     1 KS1         1 TEMP              0 ****  ****    0 ROOT
