@<TRIPOS>MOLECULE
KS1
   41    45     1     0     0
SMALL
bcc


@<TRIPOS>ATOM
      1 CAI        -0.0120   -0.0720   -0.0550 c3        1 KS1     -0.092900
      2 CAG         1.4910    0.1680   -0.0350 c3        1 KS1     -0.079400
      3 CAH         1.9980   -0.1750    1.3600 c3        1 KS1     -0.079400
      4 CAJ         0.8040   -0.6290    2.1880 c3        1 KS1     -0.092900
      5 CAW        -0.4440   -0.1380    1.4250 c3        1 KS1      0.074000
      6 NAX        -1.6470   -0.9250    1.6690 na        1 KS1      0.007200
      7 NAN        -1.7540   -2.2410    1.3990 nc        1 KS1     -0.504100
      8 C4         -2.8620   -0.4070    2.1570 ca        1 KS1      0.473800
      9 N3         -3.1950    0.8620    2.5520 nb        1 KS1     -0.740000
     10 C2         -4.4670    0.9550    2.9950 ca        1 KS1      0.693900
     11 N1         -5.4290   -0.0030    3.1050 nb        1 KS1     -0.799000
     12 C6         -5.1010   -1.2740    2.6970 ca        1 KS1      0.755200
     13 NAA        -6.0420   -2.2780    2.7300 nh        1 KS1     -0.953500
     14 C5         -3.7870   -1.5290    2.1960 ca        1 KS1     -0.494500
     15 CAR        -3.0150   -2.6510    1.6970 cd        1 KS1      0.428500
     16 CAP        -3.4760   -4.0190    1.5290 ca        1 KS1     -0.253200
     17 CAF        -4.5950   -4.3130    0.7510 ca        1 KS1     -0.038000
     18 CAS        -4.9790   -5.6490    0.6370 ca        1 KS1     -0.207100
     19 CAD        -6.0350   -6.3590   -0.0380 cc        1 KS1     -0.176200
     20 CAB        -5.8630   -7.7120    0.2390 cd        1 KS1     -0.102100
     21 NAO        -4.7510   -7.9070    1.0650 na        1 KS1     -0.286100
     22 CAT        -4.1770   -6.6560    1.3250 ca        1 KS1      0.424800
     23 NAM        -3.0680   -6.3750    2.0770 nb        1 KS1     -0.670000
     24 CAE        -2.7520   -5.0810    2.1520 ca        1 KS1      0.441200
     25 HAI        -0.5520    0.7530   -0.5800 hc        1 KS1      0.059450
     26 HAIA       -0.2420   -1.0270   -0.5910 hc        1 KS1      0.059450
     27 HAG         1.7190    1.2360   -0.2790 hc        1 KS1      0.045200
     28 HAGA        1.9960   -0.4650   -0.8080 hc        1 KS1      0.045200
     29 HAH         2.7700   -0.9830    1.3160 hc        1 KS1      0.045200
     30 HAHA        2.4790    0.7200    1.8290 hc        1 KS1      0.045200
     31 HAJ         0.8100   -1.7440    2.2910 hc        1 KS1      0.059450
     32 HAJA        0.8270   -0.1920    3.2160 hc        1 KS1      0.059450
     33 HAW        -0.6850    0.9100    1.7740 h1        1 KS1      0.089700
     34 H2         -4.7840    1.9680    3.3280 h5        1 KS1      0.052100
     35 HNAA       -5.7160   -3.2110    2.6360 hn        1 KS1      0.438300
     36 HNAB       -6.8970   -2.1270    3.2090 hn        1 KS1      0.438300
     37 HAF        -5.1550   -3.5200    0.2330 ha        1 KS1      0.154000
     38 HAD        -6.8130   -5.9130   -0.6510 ha        1 KS1      0.162000
     39 HAB        -6.4570   -8.5680   -0.0890 h4        1 KS1      0.171000
     40 HNAO       -4.4040   -8.7720    1.3850 hn        1 KS1      0.311700
     41 HAE        -1.8510   -4.8480    2.7490 h4        1 KS1      0.035100
@<TRIPOS>BOND
     1    1    2 1   
     2    1    5 1   
     3    1   25 1   
     4    1   26 1   
     5    2    3 1   
     6    2   27 1   
     7    2   28 1   
     8    3    4 1   
     9    3   29 1   
    10    3   30 1   
    11    4    5 1   
    12    4   31 1   
    13    4   32 1   
    14    5    6 1   
    15    5   33 1   
    16    6    7 1   
    17    6    8 1   
    18    7   15 2   
    19    8    9 ar  
    20    8   14 ar  
    21    9   10 ar  
    22   10   11 ar  
    23   10   34 1   
    24   11   12 ar  
    25   12   13 1   
    26   12   14 ar  
    27   13   35 1   
    28   13   36 1   
    29   14   15 1   
    30   15   16 1   
    31   16   17 ar  
    32   16   24 ar  
    33   17   18 ar  
    34   17   37 1   
    35   18   19 1   
    36   18   22 ar  
    37   19   20 2   
    38   19   38 1   
    39   20   21 1   
    40   20   39 1   
    41   21   22 1   
    42   21   40 1   
    43   22   23 ar  
    44   23   24 ar  
    45   24   41 1   
@<TRIPOS>SUBSTRUCTURE
     1 KS1         1 TEMP              0 ****  ****    0 ROOT
