@<TRIPOS>MOLECULE
KS1
   41    45     1     0     0
SMALL
bcc


@<TRIPOS>ATOM
      1 CAI        -3.7430   -1.4780    1.4320 c3        1 KS1     -0.092900
      2 CAG        -4.8100   -2.5160    1.1190 c3        1 KS1     -0.079400
      3 CAH        -4.9060   -2.6410   -0.3970 c3        1 KS1     -0.079400
      4 CAJ        -3.8920   -1.6840   -1.0050 c3        1 KS1     -0.092900
      5 CAW        -3.5230   -0.6950    0.1200 c3        1 KS1      0.074000
      6 NAX        -2.2000   -0.0990   -0.0130 na        1 KS1      0.007200
      7 NAN        -1.0530   -0.8050   -0.0410 nc        1 KS1     -0.504100
      8 C4         -1.9430    1.2860   -0.0630 ca        1 KS1      0.473800
      9 N3         -2.8040    2.3520   -0.0590 nb        1 KS1     -0.740000
     10 C2         -2.1660    3.5390   -0.1530 ca        1 KS1      0.693900
     11 N1         -0.8360    3.8130   -0.2560 nb        1 KS1     -0.799000
     12 C6          0.0300    2.7450   -0.2470 ca        1 KS1      0.755200
     13 NAA         1.3900    2.9530   -0.2930 nh        1 KS1     -0.953500
     14 C5         -0.4970    1.4200   -0.1450 ca        1 KS1     -0.494500
     15 CAR        -0.0050    0.0560   -0.1210 cd        1 KS1      0.428500
     16 CAP         1.3840   -0.3700   -0.1760 ca        1 KS1     -0.253200
     17 CAF         2.3160    0.0890    0.7530 ca        1 KS1     -0.038000
     18 CAS         3.6300   -0.3620    0.6370 ca        1 KS1     -0.207100
     19 CAD         4.8590   -0.1400    1.3570 cc        1 KS1     -0.176200
     20 CAB         5.8420   -0.9050    0.7360 cd        1 KS1     -0.102100
     21 NAO         5.3080   -1.6030   -0.3510 na        1 KS1     -0.286100
     22 CAT         3.9430   -1.2980   -0.4390 ca        1 KS1      0.424800
     23 NAM         3.0290   -1.7650   -1.3430 nb        1 KS1     -0.670000
     24 CAE         1.7900   -1.2950   -1.1840 ca        1 KS1      0.441200
     25 HAI        -4.0700   -0.7860    2.2460 hc        1 KS1      0.059200
     26 HAIA       -2.8030   -1.9820    1.7700 hc        1 KS1      0.059200
     27 HAG        -4.5450   -3.4990    1.5830 hc        1 KS1      0.045200
     28 HAGA       -5.7970   -2.2030    1.5460 hc        1 KS1      0.045200
     29 HAH        -4.6970   -3.6900   -0.7230 hc        1 KS1      0.045200
     30 HAHA       -5.9400   -2.3850   -0.7420 hc        1 KS1      0.045200
     31 HAJ        -2.9960   -2.2510   -1.3630 hc        1 KS1      0.059200
     32 HAJA       -4.3190   -1.1350   -1.8790 hc        1 KS1      0.059200
     33 HAW        -4.2550    0.1660    0.0910 h1        1 KS1      0.089700
     34 H2         -2.8240    4.4350   -0.1550 h5        1 KS1      0.052100
     35 HNAA        1.7360    3.8580   -0.5060 hn        1 KS1      0.438300
     36 HNAB        1.9640    2.1700   -0.5000 hn        1 KS1      0.438300
     37 HAF         2.0260    0.7790    1.5600 ha        1 KS1      0.154000
     38 HAD         4.9840    0.5030    2.2230 ha        1 KS1      0.162000
     39 HAB         6.9010   -1.0070    0.9850 h4        1 KS1      0.171000
     40 HNAO        5.7920   -2.2310   -0.9390 hn        1 KS1      0.311700
     41 HAE         1.0440   -1.6770   -1.9060 h4        1 KS1      0.035100
@<TRIPOS>BOND
     1    1    2 1   
     2    1    5 1   
     3    1   25 1   
     4    1   26 1   
     5    2    3 1   
     6    2   27 1   
     7    2   28 1   
     8    3    4 1   
     9    3   29 1   
    10    3   30 1   
    11    4    5 1   
    12    4   31 1   
    13    4   32 1   
    14    5    6 1   
    15    5   33 1   
    16    6    7 1   
    17    6    8 1   
    18    7   15 2   
    19    8    9 ar  
    20    8   14 ar  
    21    9   10 ar  
    22   10   11 ar  
    23   10   34 1   
    24   11   12 ar  
    25   12   13 1   
    26   12   14 ar  
    27   13   35 1   
    28   13   36 1   
    29   14   15 1   
    30   15   16 1   
    31   16   17 ar  
    32   16   24 ar  
    33   17   18 ar  
    34   17   37 1   
    35   18   19 1   
    36   18   22 ar  
    37   19   20 2   
    38   19   38 1   
    39   20   21 1   
    40   20   39 1   
    41   21   22 1   
    42   21   40 1   
    43   22   23 ar  
    44   23   24 ar  
    45   24   41 1   
@<TRIPOS>SUBSTRUCTURE
     1 KS1         1 TEMP              0 ****  ****    0 ROOT
