@<TRIPOS>MOLECULE
KS4
   44    47     1     0     0
SMALL
bcc


@<TRIPOS>ATOM
      1 CAI         0.0020    0.2320   -0.0980 cy        1 KS4     -0.092900
      2 CAH         1.4680   -0.2280    0.0010 cy        1 KS4     -0.088400
      3 CAJ         1.5640    0.3060    1.4430 cy        1 KS4     -0.092900
      4 CAW         0.1000    0.8390    1.3370 cy        1 KS4      0.026000
      5 NAX        -0.8550    0.3600    2.3280 na        1 KS4      0.053200
      6 NAM        -1.0600   -0.9360    2.6110 nc        1 KS4     -0.427100
      7 C4         -1.7000    1.1860    3.0870 ca        1 KS4      0.459800
      8 N3         -1.8370    2.5440    3.1370 nb        1 KS4     -0.625000
      9 C2         -2.7550    2.9750    4.0250 ca        1 KS4      0.682900
     10 N1         -3.5480    2.2330    4.8670 nb        1 KS4     -0.699000
     11 C6         -3.4030    0.8910    4.8020 ca        1 KS4      0.560200
     12 NAC        -4.2340    0.0500    5.6900 n4        1 KS4     -0.831300
     13 C5         -2.4980    0.2730    3.9250 ca        1 KS4     -0.429500
     14 CAT        -2.0300   -1.0500    3.5570 cd        1 KS4      0.411500
     15 CAP        -2.5180   -2.2980    4.1200 ca        1 KS4     -0.152900
     16 CAG        -3.9010   -2.5350    4.1580 ca        1 KS4     -0.191000
     17 CAD        -1.6320   -3.2560    4.6200 ca        1 KS4     -0.074000
     18 CAE        -2.1190   -4.4290    5.1980 ca        1 KS4     -0.172000
     19 CAR        -3.4970   -4.6520    5.2950 ca        1 KS4      0.109100
     20 OAN        -4.0620   -5.7590    5.8800 os        1 KS4     -0.320900
     21 CAA        -3.1680   -6.7990    6.2810 c3        1 KS4      0.106700
     22 CAS        -4.4000   -3.6900    4.7680 ca        1 KS4      0.104100
     23 OAO        -5.7710   -3.7410    4.8830 os        1 KS4     -0.346900
     24 CAB        -6.3790   -5.0330    4.7780 c3        1 KS4      0.121700
     25 HAI        -0.1900    1.0070   -0.8710 hc        1 KS4      0.073700
     26 HAIA       -0.7250   -0.5990   -0.2140 hc        1 KS4      0.073700
     27 HAH         2.1500    0.2820   -0.7130 hc        1 KS4      0.069700
     28 HAHA        1.6010   -1.3280   -0.0810 hc        1 KS4      0.069700
     29 HAJ         2.3000    1.1250    1.5870 hc        1 KS4      0.073700
     30 HAJA        1.7280   -0.4840    2.2060 hc        1 KS4      0.073700
     31 HAW         0.0440    1.9590    1.3410 h1        1 KS4      0.106700
     32 H2         -2.8990    4.0790    4.0970 h5        1 KS4      0.098100
     33 HNAC       -5.1710   -0.0520    5.2790 hn        1 KS4      0.479800
     34 HNAA       -3.7970   -0.8840    5.7650 hn        1 KS4      0.479800
     35 HAG        -4.6050   -1.8590    3.6510 ha        1 KS4      0.145000
     36 HAD        -0.5450   -3.0920    4.5570 ha        1 KS4      0.161000
     37 HAE        -1.4050   -5.1760    5.5790 ha        1 KS4      0.163000
     38 HAA        -2.5760   -7.1680    5.4090 h1        1 KS4      0.060033
     39 HAAA       -2.4970   -6.4400    7.0980 h1        1 KS4      0.060033
     40 HAAB       -3.8610   -7.5950    6.6580 h1        1 KS4      0.060033
     41 HAB        -5.9010   -5.6390    3.9740 h1        1 KS4      0.060367
     42 HABA       -7.4440   -4.7960    4.5270 h1        1 KS4      0.060367
     43 HABB       -6.3050   -5.5560    5.7630 h1        1 KS4      0.060367
     44 HAC3       -4.3190    0.4780    6.6200 hn        1 KS4      0.479800
@<TRIPOS>BOND
     1    1    2 1   
     2    1    4 1   
     3    1   25 1   
     4    1   26 1   
     5    2    3 1   
     6    2   27 1   
     7    2   28 1   
     8    3    4 1   
     9    3   29 1   
    10    3   30 1   
    11    4    5 1   
    12    4   31 1   
    13    5    6 1   
    14    5    7 1   
    15    6   14 2   
    16    7    8 ar  
    17    7   13 ar  
    18    8    9 ar  
    19    9   10 ar  
    20    9   32 1   
    21   10   11 ar  
    22   11   12 1   
    23   11   13 ar  
    24   12   33 1   
    25   12   34 1   
    26   12   44 1   
    27   13   14 1   
    28   14   15 1   
    29   15   16 ar  
    30   15   17 ar  
    31   16   22 ar  
    32   16   35 1   
    33   17   18 ar  
    34   17   36 1   
    35   18   19 ar  
    36   18   37 1   
    37   19   20 1   
    38   19   22 ar  
    39   20   21 1   
    40   21   38 1   
    41   21   39 1   
    42   21   40 1   
    43   22   23 1   
    44   23   24 1   
    45   24   41 1   
    46   24   42 1   
    47   24   43 1   
@<TRIPOS>SUBSTRUCTURE
     1 KS4         1 TEMP              0 ****  ****    0 ROOT
