@<TRIPOS>MOLECULE
KS4
   43    46     1     0     0
SMALL
bcc


@<TRIPOS>ATOM
      1 CAI        -0.1290   -0.0400   -0.0730 cy        1 KS4     -0.097400
      2 CAH         1.3600   -0.4180    0.0290 cy        1 KS4     -0.092400
      3 CAJ         1.4460    0.2020    1.4360 cy        1 KS4     -0.097400
      4 CAW        -0.0470    0.6520    1.3270 cy        1 KS4      0.051000
      5 NAX        -0.9560    0.1950    2.3520 na        1 KS4      0.011200
      6 NAM        -1.0910   -1.0950    2.7220 nc        1 KS4     -0.501100
      7 C4         -1.8590    1.0210    3.0530 ca        1 KS4      0.474800
      8 N3         -2.0560    2.3750    2.9930 nb        1 KS4     -0.740000
      9 C2         -3.0040    2.8020    3.8560 ca        1 KS4      0.693900
     10 N1         -3.7560    2.1020    4.7480 nb        1 KS4     -0.799000
     11 C6         -3.5680    0.7410    4.8000 ca        1 KS4      0.755200
     12 NAC        -4.3350   -0.0350    5.6390 nv        1 KS4     -0.954500
     13 C5         -2.5990    0.1380    3.9390 ca        1 KS4     -0.495500
     14 CAT        -2.0600   -1.1820    3.6690 cd        1 KS4      0.424500
     15 CAP        -2.4650   -2.4320    4.3000 ca        1 KS4     -0.108900
     16 CAG        -3.8070   -2.8400    4.2340 ca        1 KS4     -0.173000
     17 CAD        -1.5230   -3.2280    4.9520 ca        1 KS4     -0.097000
     18 CAE        -1.9090   -4.4240    5.5620 ca        1 KS4     -0.186000
     19 CAR        -3.2400   -4.8370    5.5110 ca        1 KS4      0.112100
     20 OAN        -3.7330   -5.9910    6.0810 os        1 KS4     -0.301900
     21 CAA        -2.7750   -6.8310    6.7160 c3        1 KS4      0.109700
     22 CAS        -4.2000   -4.0340    4.8340 ca        1 KS4      0.096100
     23 OAO        -5.4930   -4.5170    4.8500 os        1 KS4     -0.304900
     24 CAB        -6.4130   -3.8540    3.9890 c3        1 KS4      0.108700
     25 HAI        -0.3710    0.6750   -0.8870 hc        1 KS4      0.063450
     26 HAIA       -0.8120   -0.9130   -0.1250 hc        1 KS4      0.063450
     27 HAH         1.5480   -1.5120    0.0080 hc        1 KS4      0.054200
     28 HAHA        2.0050    0.0830   -0.7240 hc        1 KS4      0.054200
     29 HAJ         2.1430    1.0610    1.5220 hc        1 KS4      0.063450
     30 HAJA        1.6570   -0.5340    2.2400 hc        1 KS4      0.063450
     31 HAW        -0.1510    1.7670    1.2570 h1        1 KS4      0.097700
     32 H2         -3.1990    3.8970    3.8450 h5        1 KS4      0.052100
     33 HNAC       -4.0380   -0.9700    5.7930 hn        1 KS4      0.439800
     34 HNAA       -4.8940    0.4020    6.3300 hn        1 KS4      0.439800
     35 HAG        -4.5350   -2.2180    3.6910 ha        1 KS4      0.154000
     36 HAD        -0.4680   -2.9170    4.9860 ha        1 KS4      0.148000
     37 HAE        -1.1530   -5.0360    6.0740 ha        1 KS4      0.144000
     38 HAA        -3.3890   -7.6970    7.0720 h1        1 KS4      0.045700
     39 HAAA       -2.2990   -6.3050    7.5780 h1        1 KS4      0.045700
     40 HAAB       -2.0000   -7.1700    5.9870 h1        1 KS4      0.045700
     41 HAB        -6.6000   -2.8110    4.3450 h1        1 KS4      0.046033
     42 HABA       -7.3420   -4.4730    4.0800 h1        1 KS4      0.046033
     43 HABB       -6.0430   -3.8470    2.9360 h1        1 KS4      0.046033
@<TRIPOS>BOND
     1    1    2 1   
     2    1    4 1   
     3    1   25 1   
     4    1   26 1   
     5    2    3 1   
     6    2   27 1   
     7    2   28 1   
     8    3    4 1   
     9    3   29 1   
    10    3   30 1   
    11    4    5 1   
    12    4   31 1   
    13    5    6 1   
    14    5    7 1   
    15    6   14 2   
    16    7    8 ar  
    17    7   13 ar  
    18    8    9 ar  
    19    9   10 ar  
    20    9   32 1   
    21   10   11 ar  
    22   11   12 1   
    23   11   13 ar  
    24   12   33 1   
    25   12   34 1   
    26   13   14 1   
    27   14   15 1   
    28   15   16 ar  
    29   15   17 ar  
    30   16   22 ar  
    31   16   35 1   
    32   17   18 ar  
    33   17   36 1   
    34   18   19 ar  
    35   18   37 1   
    36   19   20 1   
    37   19   22 ar  
    38   20   21 1   
    39   21   38 1   
    40   21   39 1   
    41   21   40 1   
    42   22   23 1   
    43   23   24 1   
    44   24   41 1   
    45   24   42 1   
    46   24   43 1   
@<TRIPOS>SUBSTRUCTURE
     1 KS4         1 TEMP              0 ****  ****    0 ROOT
