@<TRIPOS>MOLECULE
KS4
   43    46     1     0     0
SMALL
bcc


@<TRIPOS>ATOM
      1 CAI        -0.1430   -0.0460   -0.0850 cy        1 KS4     -0.097400
      2 CAH         1.3470   -0.4240    0.0110 cy        1 KS4     -0.092400
      3 CAJ         1.4370    0.1960    1.4180 cy        1 KS4     -0.097400
      4 CAW        -0.0560    0.6470    1.3140 cy        1 KS4      0.051000
      5 NAX        -0.9610    0.1910    2.3420 na        1 KS4      0.011200
      6 NAM        -1.0970   -1.0990    2.7120 nc        1 KS4     -0.501100
      7 C4         -1.8550    1.0180    3.0510 ca        1 KS4      0.474800
      8 N3         -2.0490    2.3730    2.9950 nb        1 KS4     -0.740000
      9 C2         -2.9890    2.8030    3.8660 ca        1 KS4      0.693900
     10 N1         -3.7370    2.1040    4.7620 nb        1 KS4     -0.799000
     11 C6         -3.5530    0.7410    4.8100 ca        1 KS4      0.755200
     12 NAC        -4.3160   -0.0340    5.6530 nh        1 KS4     -0.954500
     13 C5         -2.5920    0.1370    3.9420 ca        1 KS4     -0.495500
     14 CAT        -2.0600   -1.1850    3.6660 cd        1 KS4      0.424500
     15 CAP        -2.4630   -2.4340    4.2970 ca        1 KS4     -0.108900
     16 CAG        -3.8080   -2.8370    4.2410 ca        1 KS4     -0.173000
     17 CAD        -1.5200   -3.2350    4.9410 ca        1 KS4     -0.097000
     18 CAE        -1.9050   -4.4300    5.5520 ca        1 KS4     -0.186000
     19 CAR        -3.2380   -4.8380    5.5100 ca        1 KS4      0.112100
     20 OAN        -3.7310   -5.9920    6.0820 os        1 KS4     -0.301900
     21 CAA        -2.7710   -6.8370    6.7070 c3        1 KS4      0.109700
     22 CAS        -4.2000   -4.0310    4.8420 ca        1 KS4      0.096100
     23 OAO        -5.4950   -4.5090    4.8670 os        1 KS4     -0.304900
     24 CAB        -6.4190   -3.8410    4.0150 c3        1 KS4      0.108700
     25 HAI        -0.8270   -0.9190   -0.1350 hc        1 KS4      0.063450
     26 HAIA       -0.3870    0.6690   -0.8990 hc        1 KS4      0.063450
     27 HAH         1.9890    0.0760   -0.7450 hc        1 KS4      0.054200
     28 HAHA        1.5340   -1.5190   -0.0090 hc        1 KS4      0.054200
     29 HAJ         1.6520   -0.5390    2.2210 hc        1 KS4      0.063450
     30 HAJA        2.1360    1.0550    1.5000 hc        1 KS4      0.063450
     31 HAW        -0.1590    1.7620    1.2440 h1        1 KS4      0.097700
     32 H2         -3.1800    3.8980    3.8580 h5        1 KS4      0.052100
     33 HNAC       -4.8690    0.4050    6.3500 hn        1 KS4      0.439800
     34 HNAA       -4.0210   -0.9690    5.8050 hn        1 KS4      0.439800
     35 HAG        -4.5380   -2.2120    3.7050 ha        1 KS4      0.154000
     36 HAD        -0.4630   -2.9280    4.9680 ha        1 KS4      0.148000
     37 HAE        -1.1470   -5.0450    6.0580 ha        1 KS4      0.144000
     38 HAA        -2.0020   -7.1770    5.9720 h1        1 KS4      0.045700
     39 HAAA       -2.2860   -6.3140    7.5670 h1        1 KS4      0.045700
     40 HAAB       -3.3850   -7.7010    7.0660 h1        1 KS4      0.045700
     41 HAB        -7.3490   -4.4570    4.1120 h1        1 KS4      0.046033
     42 HABA       -6.0580   -3.8340    2.9580 h1        1 KS4      0.046033
     43 HABB       -6.5990   -2.7990    4.3740 h1        1 KS4      0.046033
@<TRIPOS>BOND
     1    1    2 1   
     2    1    4 1   
     3    1   25 1   
     4    1   26 1   
     5    2    3 1   
     6    2   27 1   
     7    2   28 1   
     8    3    4 1   
     9    3   29 1   
    10    3   30 1   
    11    4    5 1   
    12    4   31 1   
    13    5    6 1   
    14    5    7 1   
    15    6   14 2   
    16    7    8 ar  
    17    7   13 ar  
    18    8    9 ar  
    19    9   10 ar  
    20    9   32 1   
    21   10   11 ar  
    22   11   12 1   
    23   11   13 ar  
    24   12   33 1   
    25   12   34 1   
    26   13   14 1   
    27   14   15 1   
    28   15   16 ar  
    29   15   17 ar  
    30   16   22 ar  
    31   16   35 1   
    32   17   18 ar  
    33   17   36 1   
    34   18   19 ar  
    35   18   37 1   
    36   19   20 1   
    37   19   22 ar  
    38   20   21 1   
    39   21   38 1   
    40   21   39 1   
    41   21   40 1   
    42   22   23 1   
    43   23   24 1   
    44   24   41 1   
    45   24   42 1   
    46   24   43 1   
@<TRIPOS>SUBSTRUCTURE
     1 KS4         1 TEMP              0 ****  ****    0 ROOT
