@<TRIPOS>MOLECULE
KS4
   43    39     1     0     0
SMALL
bcc


@<TRIPOS>ATOM
      1 CAI         1.6650    3.2430   -3.1070 cy        1 KS4     -0.176000
      2 CAH         3.0840    3.4830   -2.6870 cy        1 KS4     -0.171000
      3 CAJ         2.6300    3.6980   -1.2750 cy        1 KS4     -0.176000
      4 CAW         1.2110    3.4570   -1.6950 cy        1 KS4      0.031000
      5 NAX         0.6770    2.3310   -1.1340 n3        1 KS4     -0.122000
      6 NAM         0.9540    1.0010   -0.9580 n2        1 KS4     -0.030000
      7 C4         -0.5570    2.5860   -0.5850 c1        1 KS4      0.083000
      8 N3         -1.2810    3.7350   -0.4600 n1        1 KS4     -0.213000
      9 C2         -2.4860    3.7160    0.1770 c1        1 KS4      0.031000
     10 N1         -2.9690    2.5490    0.6910 n1        1 KS4     -0.273000
     11 C6         -2.2580    1.4150    0.5690 c1        1 KS4      0.234000
     12 NAC        -3.1010    0.7100    1.4670 n3        1 KS4     -0.352000
     13 C5         -1.0330    1.4320   -0.0780 c1        1 KS4     -0.280000
     14 CAT        -0.0880    0.4400   -0.3110 c1        1 KS4     -0.032000
     15 CAP        -0.0180   -0.9380   -0.0730 c1        1 KS4     -0.043000
     16 CAG         0.5090   -1.4100    1.1210 c1        1 KS4     -0.085000
     17 CAD        -0.5040   -1.8290   -1.0170 c1        1 KS4     -0.100000
     18 CAE        -0.4650   -3.1950   -0.7680 c1        1 KS4     -0.198000
     19 CAR         0.0620   -3.6680    0.4270 c1        1 KS4      0.062000
     20 OAN         0.2190   -5.0580    0.6250 o         1 KS4     -0.205000
     21 CAA        -0.9970   -5.7470    0.8450 c3        1 KS4     -0.078000
     22 CAS         0.5490   -2.7760    1.3710 c2        1 KS4      0.025000
     23 OAO         1.1940   -3.2600    2.5270 os        1 KS4     -0.210000
     24 CAB         0.4030   -3.1870    3.6980 c3        1 KS4     -0.075000
     25 HAI         1.5120    2.3280   -3.4200 hc        1 KS4      0.103250
     26 HAIA        1.3310    3.9280   -3.7190 hc        1 KS4      0.103250
     27 HAH         3.6490    2.6880   -2.7870 hc        1 KS4      0.094000
     28 HAHA        3.4660    4.2880   -3.0880 hc        1 KS4      0.094000
     29 HAJ         2.9640    3.0130   -0.6610 hc        1 KS4      0.103250
     30 HAJA        2.7810    4.6110   -0.9640 hc        1 KS4      0.103250
     31 HAW         0.6480    4.2490   -1.5950 h1        1 KS4      0.137000
     32 H2         -3.0040    4.5400    0.2660 ha        1 KS4      0.189000
     33 HNAC       -2.7980   -0.0480    1.8790 hn        1 KS4      0.233000
     34 HNAA       -3.9490    1.0090    1.6280 hn        1 KS4      0.233000
     35 HAG         0.8520   -0.7820    1.7860 ha        1 KS4      0.162000
     36 HAD        -0.8750   -1.4960   -1.8580 ha        1 KS4      0.149000
     37 HAE        -0.8080   -3.8240   -1.4340 ha        1 KS4      0.143000
     38 HAA        -1.6000   -5.5960    0.0860 h1        1 KS4      0.086333
     39 HAAA       -0.8170   -6.7090    0.9350 h1        1 KS4      0.086333
     40 HAAB       -1.4160   -5.4150    1.6670 h1        1 KS4      0.086333
     41 HAB         0.0320   -4.0740    3.8980 h1        1 KS4      0.083333
     42 HABA        0.9600   -2.8880    4.4520 h1        1 KS4      0.083333
     43 HABB       -0.3280   -2.5510    3.5590 h1        1 KS4      0.083333
@<TRIPOS>BOND
     1    1    2 1   
     2    1    4 1   
     3    1   25 1   
     4    1   26 1   
     5    2    3 1   
     6    2   27 1   
     7    2   28 1   
     8    3    4 1   
     9    3   29 1   
    10    3   30 1   
    11    4    5 1   
    12    4   31 1   
    13    5    6 1   
    14    5    7 1   
    15    6   14 1   
    16    7    8 1   
    17    9   10 1   
    18    9   32 1   
    19   11   12 1   
    20   11   13 1   
    21   12   33 1   
    22   12   34 1   
    23   14   15 1   
    24   15   17 1   
    25   16   22 1   
    26   16   35 1   
    27   17   36 1   
    28   18   19 1   
    29   18   37 1   
    30   19   22 1   
    31   20   21 1   
    32   21   38 1   
    33   21   39 1   
    34   21   40 1   
    35   22   23 1   
    36   23   24 1   
    37   24   41 1   
    38   24   42 1   
    39   24   43 1   
@<TRIPOS>SUBSTRUCTURE
     1 KS4         1 TEMP              0 ****  ****    0 ROOT
