@<TRIPOS>MOLECULE
KS4
   43    46     1     0     0
SMALL
bcc


@<TRIPOS>ATOM
      1 CAI        -4.0950   -1.8480    1.6530 cy        1 KS4     -0.097400
      2 CAH        -4.4120   -3.1650    0.9210 cy        1 KS4     -0.092400
      3 CAJ        -4.2180   -2.4810   -0.4450 cy        1 KS4     -0.097400
      4 CAW        -3.9590   -1.1180    0.2770 cy        1 KS4      0.051000
      5 NAX        -2.7120   -0.4460   -0.0020 na        1 KS4      0.011200
      6 NAM        -1.5010   -1.0320    0.0870 nc        1 KS4     -0.501100
      7 C4         -2.5920    0.9170   -0.3410 ca        1 KS4      0.474800
      8 N3         -3.5530    1.8740   -0.5370 nb        1 KS4     -0.740000
      9 C2         -3.0340    3.0710   -0.8870 ca        1 KS4      0.693900
     10 N1         -1.7380    3.4440   -1.0710 nb        1 KS4     -0.799000
     11 C6         -0.7710    2.4880   -0.8620 ca        1 KS4      0.755200
     12 NAC         0.5620    2.8110   -0.9760 nh        1 KS4     -0.954500
     13 C5         -1.1660    1.1690   -0.4810 ca        1 KS4     -0.495500
     14 CAT        -0.5430   -0.1090   -0.1910 cd        1 KS4      0.424500
     15 CAP         0.8840   -0.4010   -0.1930 ca        1 KS4     -0.108900
     16 CAG         1.7440    0.3380    0.6360 ca        1 KS4     -0.173000
     17 CAD         1.3940   -1.4170   -1.0020 ca        1 KS4     -0.097000
     18 CAE         2.7630   -1.6940   -1.0110 ca        1 KS4     -0.186000
     19 CAR         3.6290   -0.9640   -0.1980 ca        1 KS4      0.112100
     20 OAN         4.9940   -1.1470   -0.1300 os        1 KS4     -0.301900
     21 CAA         5.5210   -2.2060   -0.9220 c3        1 KS4      0.109700
     22 CAS         3.1100    0.0630    0.6390 ca        1 KS4      0.096100
     23 OAO         4.0460    0.7400    1.3950 os        1 KS4     -0.304900
     24 CAB         3.5240    1.6040    2.4000 c3        1 KS4      0.108700
     25 HAI        -4.9300   -1.4470    2.2650 hc        1 KS4      0.063450
     26 HAIA       -3.1670   -1.8820    2.2600 hc        1 KS4      0.063450
     27 HAH        -3.6810   -3.9770    1.1230 hc        1 KS4      0.054200
     28 HAHA       -5.4420   -3.5420    1.0950 hc        1 KS4      0.054200
     29 HAJ        -3.3600   -2.8750   -1.0280 hc        1 KS4      0.063450
     30 HAJA       -5.1260   -2.4570   -1.0830 hc        1 KS4      0.063450
     31 HAW        -4.7860   -0.3810    0.1020 h1        1 KS4      0.097700
     32 H2         -3.7770    3.8810   -1.0590 h5        1 KS4      0.052100
     33 HNAC        0.8200    3.6790   -1.3810 hn        1 KS4      0.439800
     34 HNAA        1.2110    2.0610   -1.0150 hn        1 KS4      0.439800
     35 HAG         1.3270    1.1170    1.2910 ha        1 KS4      0.154000
     36 HAD         0.7160   -2.0080   -1.6370 ha        1 KS4      0.148000
     37 HAE         3.1460   -2.4970   -1.6580 ha        1 KS4      0.144000
     38 HAA         5.3430   -2.0120   -2.0080 h1        1 KS4      0.045700
     39 HAAA        6.6160   -2.1790   -0.6900 h1        1 KS4      0.045700
     40 HAAB        5.0770   -3.1860   -0.6200 h1        1 KS4      0.045700
     41 HAB         2.9980    2.4730    1.9340 h1        1 KS4      0.046033
     42 HABA        2.8370    1.0510    3.0850 h1        1 KS4      0.046033
     43 HABB        4.4400    1.9450    2.9460 h1        1 KS4      0.046033
@<TRIPOS>BOND
     1    1    2 1   
     2    1    4 1   
     3    1   25 1   
     4    1   26 1   
     5    2    3 1   
     6    2   27 1   
     7    2   28 1   
     8    3    4 1   
     9    3   29 1   
    10    3   30 1   
    11    4    5 1   
    12    4   31 1   
    13    5    6 1   
    14    5    7 1   
    15    6   14 2   
    16    7    8 ar  
    17    7   13 ar  
    18    8    9 ar  
    19    9   10 ar  
    20    9   32 1   
    21   10   11 ar  
    22   11   12 1   
    23   11   13 ar  
    24   12   33 1   
    25   12   34 1   
    26   13   14 1   
    27   14   15 1   
    28   15   16 ar  
    29   15   17 ar  
    30   16   22 ar  
    31   16   35 1   
    32   17   18 ar  
    33   17   36 1   
    34   18   19 ar  
    35   18   37 1   
    36   19   20 1   
    37   19   22 ar  
    38   20   21 1   
    39   21   38 1   
    40   21   39 1   
    41   21   40 1   
    42   22   23 1   
    43   23   24 1   
    44   24   41 1   
    45   24   42 1   
    46   24   43 1   
@<TRIPOS>SUBSTRUCTURE
     1 KS4         1 TEMP              0 ****  ****    0 ROOT
