@<TRIPOS>MOLECULE
KS5
   39    42     1     0     0
SMALL
bcc


@<TRIPOS>ATOM
      1 CAA         0.0100   -0.0910    0.2620 c3        1 KS5     -0.109600
      2 CAV         1.5240   -0.1040    0.0600 c3        1 KS5      0.078000
      3 CAB         2.2160   -0.0250    1.4200 c3        1 KS5     -0.109600
      4 NAW         1.9700   -1.2580   -0.7300 na        1 KS5      0.002200
      5 NAN         1.7350   -2.5350   -0.3790 nc        1 KS5     -0.498100
      6 C4          2.7860   -1.1860   -1.8750 ca        1 KS5      0.471800
      7 N3          3.2630   -0.1010   -2.5630 nb        1 KS5     -0.739000
      8 C2          3.9900   -0.4480   -3.6470 ca        1 KS5      0.693900
      9 N1          4.2970   -1.6810   -4.1380 nb        1 KS5     -0.798000
     10 C6          3.8290   -2.7700   -3.4420 ca        1 KS5      0.754200
     11 NAC         4.1500   -4.0460   -3.8500 nh        1 KS5     -0.952500
     12 C5          3.0470   -2.5630   -2.2640 ca        1 KS5     -0.492500
     13 CAQ         2.3540   -3.3570   -1.2670 cd        1 KS5      0.412500
     14 CAP         2.3000   -4.8120   -1.1960 ca        1 KS5     -0.096900
     15 CAJ         3.4580   -5.5590   -1.1280 ca        1 KS5     -0.105000
     16 CAR         3.3960   -6.9730   -1.0630 ca        1 KS5     -0.155300
     17 CAH         4.5730   -7.7740   -0.9920 ca        1 KS5     -0.078000
     18 CAD         4.4550   -9.1390   -0.9300 ca        1 KS5     -0.249300
     19 CAE         3.1420   -9.7110   -0.9400 ca        1 KS5      0.415200
     20 NAL         2.0240   -9.0110   -1.0020 nb        1 KS5     -0.656000
     21 CAS         2.1280   -7.6320   -1.0610 ca        1 KS5      0.397600
     22 CAI         0.9460   -6.8270   -1.1180 ca        1 KS5     -0.168300
     23 CAG         1.0360   -5.4600   -1.1790 ca        1 KS5     -0.101000
     24 HAA        -0.3190   -0.9550    0.8890 hc        1 KS5      0.050533
     25 HAAA       -0.5260   -0.1330   -0.7150 hc        1 KS5      0.050533
     26 HAAB       -0.2680    0.8570    0.7830 hc        1 KS5      0.050533
     27 HAV         1.8130    0.8080   -0.5450 h1        1 KS5      0.087700
     28 HAB         1.8860    0.9110    1.9310 hc        1 KS5      0.050533
     29 HABA        3.3260    0.0040    1.3050 hc        1 KS5      0.050533
     30 HABB        1.9440   -0.8980    2.0600 hc        1 KS5      0.050533
     31 H2          4.3980    0.4000   -4.2390 h5        1 KS5      0.052100
     32 HNAC        4.5620   -4.1800   -4.7430 hn        1 KS5      0.438300
     33 HNAA        3.6260   -4.7930   -3.4600 hn        1 KS5      0.438300
     34 HAJ         4.4450   -5.0690   -1.1120 ha        1 KS5      0.149000
     35 HAH         5.5560   -7.2800   -0.9860 ha        1 KS5      0.141000
     36 HAD         5.3300   -9.7980   -0.8720 ha        1 KS5      0.146000
     37 HAE         3.0270  -10.8100   -0.8920 h4        1 KS5      0.024100
     38 HAI        -0.0380   -7.3240   -1.1060 ha        1 KS5      0.155000
     39 HAG         0.1240   -4.8430   -1.2120 ha        1 KS5      0.150000
@<TRIPOS>BOND
     1    1    2 1   
     2    1   24 1   
     3    1   25 1   
     4    1   26 1   
     5    2    3 1   
     6    2    4 1   
     7    2   27 1   
     8    3   28 1   
     9    3   29 1   
    10    3   30 1   
    11    4    5 1   
    12    4    6 1   
    13    5   13 2   
    14    6    7 ar  
    15    6   12 ar  
    16    7    8 ar  
    17    8    9 ar  
    18    8   31 1   
    19    9   10 ar  
    20   10   11 1   
    21   10   12 ar  
    22   11   32 1   
    23   11   33 1   
    24   12   13 1   
    25   13   14 1   
    26   14   15 ar  
    27   14   23 ar  
    28   15   16 ar  
    29   15   34 1   
    30   16   17 ar  
    31   16   21 ar  
    32   17   18 ar  
    33   17   35 1   
    34   18   19 ar  
    35   18   36 1   
    36   19   20 ar  
    37   19   37 1   
    38   20   21 ar  
    39   21   22 ar  
    40   22   23 ar  
    41   22   38 1   
    42   23   39 1   
@<TRIPOS>SUBSTRUCTURE
     1 KS5         1 TEMP              0 ****  ****    0 ROOT
