@<TRIPOS>MOLECULE
KS5
   40    43     1     0     0
SMALL
bcc


@<TRIPOS>ATOM
      1 CAA         0.0720   -0.0440    0.2620 c3        1 KS5     -0.116600
      2 CAV         1.5910   -0.0850    0.1280 c3        1 KS5      0.073000
      3 CAB         2.2340   -0.0640    1.5120 c3        1 KS5     -0.116600
      4 NAW         2.0420   -1.2480   -0.6720 na        1 KS5      0.037200
      5 NAN         1.8120   -2.5220   -0.3270 nc        1 KS5     -0.413100
      6 C4          2.7750   -1.1680   -1.8660 ca        1 KS5      0.459800
      7 N3          3.2320   -0.1030   -2.5900 nb        1 KS5     -0.622000
      8 C2          3.8990   -0.4410   -3.7120 ca        1 KS5      0.681900
      9 N1          4.1660   -1.6950   -4.2080 nb        1 KS5     -0.696000
     10 C6          3.7070   -2.7360   -3.4810 ca        1 KS5      0.556200
     11 NAC         3.9470   -4.1100   -3.9740 n4        1 KS5     -0.833300
     12 C5          3.0020   -2.5640   -2.2810 ca        1 KS5     -0.432500
     13 CAQ         2.3630   -3.3540   -1.2490 cd        1 KS5      0.395500
     14 CAP         2.3170   -4.8100   -1.2200 ca        1 KS5     -0.141900
     15 CAJ         3.4660   -5.5430   -0.9910 ca        1 KS5     -0.132000
     16 CAR         3.4210   -6.9570   -0.9830 ca        1 KS5     -0.165300
     17 CAH         4.5800   -7.7490   -0.7260 ca        1 KS5     -0.093000
     18 CAD         4.4710   -9.1150   -0.7200 ca        1 KS5     -0.223300
     19 CAE         3.1880   -9.7030   -0.9810 ca        1 KS5      0.436200
     20 NAL         2.0900   -9.0100   -1.2180 nb        1 KS5     -0.645000
     21 CAS         2.1800   -7.6300   -1.2110 ca        1 KS5      0.404600
     22 CAI         1.0040   -6.8400   -1.4210 ca        1 KS5     -0.141300
     23 CAG         1.0760   -5.4690   -1.4210 ca        1 KS5     -0.118000
     24 HAA        -0.4260   -0.0450   -0.7370 hc        1 KS5      0.064367
     25 HAAA       -0.3060   -0.9110    0.8560 hc        1 KS5      0.064367
     26 HAAB       -0.2030    0.8990    0.7950 hc        1 KS5      0.064367
     27 HAV         1.9340    0.8240   -0.4520 h1        1 KS5      0.094700
     28 HAB         1.9180    0.8780    2.0260 hc        1 KS5      0.064367
     29 HABA        3.3480   -0.0730    1.4440 hc        1 KS5      0.064367
     30 HABB        1.9010   -0.9340    2.1270 hc        1 KS5      0.064367
     31 H2          4.2900    0.4010   -4.3310 h5        1 KS5      0.099100
     32 HNAC        4.9260   -4.2200   -4.2670 hn        1 KS5      0.477800
     33 HNAA        3.7290   -4.7750   -3.2100 hn        1 KS5      0.477800
     34 HAJ         4.4190   -5.0420   -0.7560 ha        1 KS5      0.142000
     35 HAH         5.5380   -7.2480   -0.5200 ha        1 KS5      0.146000
     36 HAD         5.3310   -9.7690   -0.5160 ha        1 KS5      0.164000
     37 HAE         3.0820  -10.8060   -0.9850 h4        1 KS5      0.046100
     38 HAI         0.0370   -7.3510   -1.5680 ha        1 KS5      0.175000
     39 HAG         0.1650   -4.8640   -1.5570 ha        1 KS5      0.158000
     40 HAC3        3.3360   -4.2950   -4.7780 hn        1 KS5      0.477800
@<TRIPOS>BOND
     1    1    2 1   
     2    1   24 1   
     3    1   25 1   
     4    1   26 1   
     5    2    3 1   
     6    2    4 1   
     7    2   27 1   
     8    3   28 1   
     9    3   29 1   
    10    3   30 1   
    11    4    5 1   
    12    4    6 1   
    13    5   13 2   
    14    6    7 ar  
    15    6   12 ar  
    16    7    8 ar  
    17    8    9 ar  
    18    8   31 1   
    19    9   10 ar  
    20   10   11 1   
    21   10   12 ar  
    22   11   32 1   
    23   11   33 1   
    24   11   40 1   
    25   12   13 1   
    26   13   14 1   
    27   14   15 ar  
    28   14   23 ar  
    29   15   16 ar  
    30   15   34 1   
    31   16   17 ar  
    32   16   21 ar  
    33   17   18 ar  
    34   17   35 1   
    35   18   19 ar  
    36   18   36 1   
    37   19   20 ar  
    38   19   37 1   
    39   20   21 ar  
    40   21   22 ar  
    41   22   23 ar  
    42   22   38 1   
    43   23   39 1   
@<TRIPOS>SUBSTRUCTURE
     1 KS5         1 TEMP              0 ****  ****    0 ROOT
