@<TRIPOS>MOLECULE
KS5
   39    42     1     0     0
SMALL
bcc


@<TRIPOS>ATOM
      1 CAA         0.0060   -0.0930    0.2580 c3        1 KS5     -0.109600
      2 CAV         1.5200   -0.1040    0.0570 c3        1 KS5      0.078000
      3 CAB         2.2110   -0.0240    1.4180 c3        1 KS5     -0.109600
      4 NAW         1.9680   -1.2580   -0.7310 na        1 KS5      0.002200
      5 NAN         1.7320   -2.5350   -0.3820 nc        1 KS5     -0.498100
      6 C4          2.7880   -1.1860   -1.8730 ca        1 KS5      0.471800
      7 N3          3.2680   -0.1010   -2.5590 nb        1 KS5     -0.739000
      8 C2          3.9990   -0.4490   -3.6410 ca        1 KS5      0.693900
      9 N1          4.3080   -1.6810   -4.1300 nb        1 KS5     -0.798000
     10 C6          3.8370   -2.7710   -3.4360 ca        1 KS5      0.754200
     11 NAC         4.1600   -4.0460   -3.8440 nv        1 KS5     -0.952500
     12 C5          3.0510   -2.5640   -2.2610 ca        1 KS5     -0.492500
     13 CAQ         2.3530   -3.3570   -1.2680 cd        1 KS5      0.412500
     14 CAP         2.2990   -4.8120   -1.1960 ca        1 KS5     -0.096900
     15 CAJ         3.4570   -5.5590   -1.1240 ca        1 KS5     -0.105000
     16 CAR         3.3950   -6.9730   -1.0590 ca        1 KS5     -0.155300
     17 CAH         4.5710   -7.7750   -0.9830 ca        1 KS5     -0.078000
     18 CAD         4.4520   -9.1390   -0.9210 ca        1 KS5     -0.249300
     19 CAE         3.1390   -9.7110   -0.9360 ca        1 KS5      0.415200
     20 NAL         2.0220   -9.0110   -1.0030 nb        1 KS5     -0.656000
     21 CAS         2.1270   -7.6320   -1.0620 ca        1 KS5      0.397600
     22 CAI         0.9440   -6.8280   -1.1240 ca        1 KS5     -0.168300
     23 CAG         1.0350   -5.4600   -1.1850 ca        1 KS5     -0.101000
     24 HAA        -0.2730    0.8550    0.7780 hc        1 KS5      0.050533
     25 HAAA       -0.5300   -0.1350   -0.7200 hc        1 KS5      0.050533
     26 HAAB       -0.3230   -0.9560    0.8840 hc        1 KS5      0.050533
     27 HAV         1.8090    0.8080   -0.5480 h1        1 KS5      0.087700
     28 HAB         3.3200    0.0060    1.3040 hc        1 KS5      0.050533
     29 HABA        1.9390   -0.8980    2.0580 hc        1 KS5      0.050533
     30 HABB        1.8790    0.9120    1.9290 hc        1 KS5      0.050533
     31 H2          4.4100    0.3990   -4.2310 h5        1 KS5      0.052100
     32 HNAC        4.5750   -4.1800   -4.7350 hn        1 KS5      0.438300
     33 HNAA        3.6340   -4.7930   -3.4550 hn        1 KS5      0.438300
     34 HAJ         4.4440   -5.0690   -1.1030 ha        1 KS5      0.149000
     35 HAH         5.5540   -7.2800   -0.9720 ha        1 KS5      0.141000
     36 HAD         5.3270   -9.7990   -0.8590 ha        1 KS5      0.146000
     37 HAE         3.0240  -10.8100   -0.8890 h4        1 KS5      0.024100
     38 HAI        -0.0390   -7.3240   -1.1170 ha        1 KS5      0.155000
     39 HAG         0.1230   -4.8430   -1.2220 ha        1 KS5      0.150000
@<TRIPOS>BOND
     1    1    2 1   
     2    1   24 1   
     3    1   25 1   
     4    1   26 1   
     5    2    3 1   
     6    2    4 1   
     7    2   27 1   
     8    3   28 1   
     9    3   29 1   
    10    3   30 1   
    11    4    5 1   
    12    4    6 1   
    13    5   13 2   
    14    6    7 ar  
    15    6   12 ar  
    16    7    8 ar  
    17    8    9 ar  
    18    8   31 1   
    19    9   10 ar  
    20   10   11 1   
    21   10   12 ar  
    22   11   32 1   
    23   11   33 1   
    24   12   13 1   
    25   13   14 1   
    26   14   15 ar  
    27   14   23 ar  
    28   15   16 ar  
    29   15   34 1   
    30   16   17 ar  
    31   16   21 ar  
    32   17   18 ar  
    33   17   35 1   
    34   18   19 ar  
    35   18   36 1   
    36   19   20 ar  
    37   19   37 1   
    38   20   21 ar  
    39   21   22 ar  
    40   22   23 ar  
    41   22   38 1   
    42   23   39 1   
@<TRIPOS>SUBSTRUCTURE
     1 KS5         1 TEMP              0 ****  ****    0 ROOT
