@<TRIPOS>MOLECULE
KS5
   39    42     1     0     0
SMALL
bcc


@<TRIPOS>ATOM
      1 CAA         4.1220    2.7950   -0.6250 c3        1 KS5     -0.109600
      2 CAV         3.9640    1.6410    0.3640 c3        1 KS5      0.078000
      3 CAB         3.9730    2.1920    1.7890 c3        1 KS5     -0.109600
      4 NAW         2.7750    0.8290    0.0850 na        1 KS5      0.002200
      5 NAN         1.5250    1.3260    0.0470 nc        1 KS5     -0.498100
      6 C4          2.7690   -0.5720   -0.0590 ca        1 KS5      0.471800
      7 N3          3.8040   -1.4700   -0.0780 nb        1 KS5     -0.739000
      8 C2          3.3890   -2.7400   -0.2800 ca        1 KS5      0.693900
      9 N1          2.1340   -3.2320   -0.4690 nb        1 KS5     -0.798000
     10 C6          1.0940   -2.3340   -0.4380 ca        1 KS5      0.754200
     11 NAC        -0.2060   -2.7720   -0.5650 nh        1 KS5     -0.952500
     12 C5          1.3730   -0.9490   -0.2250 ca        1 KS5     -0.492500
     13 CAQ         0.6490    0.3050   -0.1420 cd        1 KS5      0.412500
     14 CAP        -0.7930    0.4850   -0.2430 ca        1 KS5     -0.096900
     15 CAJ        -1.6510   -0.1800    0.6090 ca        1 KS5     -0.105000
     16 CAR        -3.0520   -0.0020    0.5000 ca        1 KS5     -0.155300
     17 CAH        -3.9650   -0.6730    1.3650 ca        1 KS5     -0.078000
     18 CAD        -5.3110   -0.4630    1.2160 ca        1 KS5     -0.249300
     19 CAE        -5.7520    0.4310    0.1870 ca        1 KS5      0.415200
     20 NAL        -4.9460    1.0770   -0.6350 nb        1 KS5     -0.656000
     21 CAS        -3.5840    0.8770   -0.4930 ca        1 KS5      0.397600
     22 CAI        -2.6670    1.5630   -1.3530 ca        1 KS5     -0.168300
     23 CAG        -1.3160    1.3720   -1.2240 ca        1 KS5     -0.101000
     24 HAA         5.0920    3.3080   -0.4150 hc        1 KS5      0.050533
     25 HAAA        4.1350    2.4230   -1.6770 hc        1 KS5      0.050533
     26 HAAB        3.2930    3.5340   -0.5150 hc        1 KS5      0.050533
     27 HAV         4.8460    0.9410    0.2430 h1        1 KS5      0.087700
     28 HAB         3.8960    1.3690    2.5390 hc        1 KS5      0.050533
     29 HABA        4.9360    2.7340    1.9530 hc        1 KS5      0.050533
     30 HABB        3.1290    2.9050    1.9490 hc        1 KS5      0.050533
     31 H2          4.1950   -3.5060   -0.3040 h5        1 KS5      0.052100
     32 HNAC       -0.3780   -3.7030   -0.8590 hn        1 KS5      0.438300
     33 HNAA       -0.8990   -2.0870   -0.7520 hn        1 KS5      0.438300
     34 HAJ        -1.2590   -0.8490    1.3920 ha        1 KS5      0.149000
     35 HAH        -3.5690   -1.3480    2.1390 ha        1 KS5      0.141000
     36 HAD        -6.0530   -0.9550    1.8570 ha        1 KS5      0.146000
     37 HAE        -6.8350    0.6120    0.0510 h4        1 KS5      0.024100
     38 HAI        -3.0660    2.2510   -2.1160 ha        1 KS5      0.155000
     39 HAG        -0.6120    1.9090   -1.8790 ha        1 KS5      0.150000
@<TRIPOS>BOND
     1    1    2 1   
     2    1   24 1   
     3    1   25 1   
     4    1   26 1   
     5    2    3 1   
     6    2    4 1   
     7    2   27 1   
     8    3   28 1   
     9    3   29 1   
    10    3   30 1   
    11    4    5 1   
    12    4    6 1   
    13    5   13 2   
    14    6    7 ar  
    15    6   12 ar  
    16    7    8 ar  
    17    8    9 ar  
    18    8   31 1   
    19    9   10 ar  
    20   10   11 1   
    21   10   12 ar  
    22   11   32 1   
    23   11   33 1   
    24   12   13 1   
    25   13   14 1   
    26   14   15 ar  
    27   14   23 ar  
    28   15   16 ar  
    29   15   34 1   
    30   16   17 ar  
    31   16   21 ar  
    32   17   18 ar  
    33   17   35 1   
    34   18   19 ar  
    35   18   36 1   
    36   19   20 ar  
    37   19   37 1   
    38   20   21 ar  
    39   21   22 ar  
    40   22   23 ar  
    41   22   38 1   
    42   23   39 1   
@<TRIPOS>SUBSTRUCTURE
     1 KS5         1 TEMP              0 ****  ****    0 ROOT
