@<TRIPOS>MOLECULE
KSA
   56    63     1     0     0
SMALL
bcc


@<TRIPOS>ATOM
      1 O3          0.0240    0.5330   -0.3970 o         1 KSA     -0.537000
      2 C22         1.1340    0.0440   -0.1720 c         1 KSA      0.605100
      3 O5          1.8580   -0.4500   -1.2150 os        1 KSA     -0.427900
      4 C26         1.2520   -0.3710   -2.5100 c3        1 KSA      0.123700
      5 C1          1.7840   -0.0830    1.1980 c3        1 KSA      0.093800
      6 O4          0.7520   -0.2500    2.1440 oh        1 KSA     -0.549800
      7 C2          2.7350    1.1810    1.4590 c3        1 KSA      0.253500
      8 O1          4.0620    0.6540    1.2310 os        1 KSA     -0.400600
      9 C25         2.5640    2.2560    0.3780 c3        1 KSA     -0.117100
     10 N1          2.6230    1.6720    2.8230 na        1 KSA     -0.095300
     11 C3          3.4540    1.2260    3.8740 ca        1 KSA      0.015800
     12 C4          4.3000    0.1210    3.9410 ca        1 KSA     -0.033200
     13 N2          4.5430   -0.8720    2.9710 na        1 KSA     -0.100300
     14 C24         4.1220   -0.7350    1.5990 c3        1 KSA      0.255800
     15 C27         2.7080   -1.3040    1.3220 c3        1 KSA     -0.107400
     16 C17         5.5740   -1.6980    3.4630 ca        1 KSA      0.014800
     17 C18         6.2100   -2.7910    2.8690 ca        1 KSA     -0.172000
     18 C19         7.1660   -3.4760    3.6180 ca        1 KSA     -0.090000
     19 C20         7.4860   -3.0950    4.9240 ca        1 KSA     -0.167000
     20 C21         6.8620   -2.0060    5.5330 ca        1 KSA     -0.054000
     21 C16         5.9090   -1.2960    4.8150 cp        1 KSA     -0.086000
     22 C5          5.0970   -0.1310    5.1260 cp        1 KSA      0.035000
     23 C6          4.9580    0.7180    6.2060 ca        1 KSA     -0.138600
     24 C15         5.6190    0.7230    7.5470 c         1 KSA      0.719100
     25 O2          6.4940   -0.0350    7.9880 o         1 KSA     -0.624500
     26 C7          4.0720    1.8300    6.1520 ca        1 KSA     -0.059300
     27 C23         4.1300    2.5590    7.4760 c3        1 KSA      0.130300
     28 N3          5.0460    1.7710    8.2890 ns        1 KSA     -0.576900
     29 C8          3.3330    2.1020    5.0220 cp        1 KSA     -0.042000
     30 C9          2.3860    3.1310    4.6360 cp        1 KSA     -0.071000
     31 C10         1.9760    2.8470    3.2740 ca        1 KSA      0.013800
     32 C11         1.0180    3.6590    2.6600 ca        1 KSA     -0.164000
     33 C14         1.8570    4.2180    5.3170 ca        1 KSA     -0.077000
     34 C13         0.9220    5.0290    4.6760 ca        1 KSA     -0.156000
     35 C12         0.5100    4.7450    3.3720 ca        1 KSA     -0.098000
     36 H261        2.0090   -0.8480   -3.1800 h1        1 KSA      0.056700
     37 H262        1.0780    0.6980   -2.7800 h1        1 KSA      0.056700
     38 H263        0.2870   -0.9320   -2.5130 h1        1 KSA      0.056700
     39 HO4         0.1760    0.5270    2.0960 ho        1 KSA      0.429000
     40 H251        3.0210    1.8720   -0.5690 hc        1 KSA      0.072033
     41 H252        3.0860    3.1990    0.6680 hc        1 KSA      0.072033
     42 H253        1.4840    2.4670    0.1970 hc        1 KSA      0.072033
     43 H24         4.9000   -1.1910    0.9190 h2        1 KSA      0.103700
     44 H271        2.7310   -1.8860    0.3680 hc        1 KSA      0.099200
     45 H272        2.3440   -1.9730    2.1430 hc        1 KSA      0.099200
     46 H18         5.9680   -3.1070    1.8460 ha        1 KSA      0.133000
     47 H19         7.6800   -4.3380    3.1650 ha        1 KSA      0.132000
     48 H20         8.2440   -3.6640    5.4830 ha        1 KSA      0.137000
     49 H21         7.1120   -1.7050    6.5650 ha        1 KSA      0.176000
     50 H231        4.4970    3.6140    7.3390 h1        1 KSA      0.060700
     51 H232        3.1180    2.5890    7.9640 h1        1 KSA      0.060700
     52 HN3         5.4950    2.1660    9.0730 hn        1 KSA      0.324500
     53 H11         0.6500    3.4600    1.6450 ha        1 KSA      0.140000
     54 H14         2.1730    4.4270    6.3500 ha        1 KSA      0.136000
     55 H13         0.4980    5.8950    5.2050 ha        1 KSA      0.136000
     56 H12        -0.2400    5.3910    2.8900 ha        1 KSA      0.135000
@<TRIPOS>BOND
     1    1    2 2   
     2    2    3 1   
     3    2    5 1   
     4    3    4 1   
     5    4   36 1   
     6    4   37 1   
     7    4   38 1   
     8    5    6 1   
     9    5    7 1   
    10    5   15 1   
    11    6   39 1   
    12    7    8 1   
    13    7    9 1   
    14    7   10 1   
    15    8   14 1   
    16    9   40 1   
    17    9   41 1   
    18    9   42 1   
    19   10   11 1   
    20   10   31 1   
    21   11   12 ar  
    22   11   29 ar  
    23   12   13 1   
    24   12   22 ar  
    25   13   14 1   
    26   13   16 1   
    27   14   15 1   
    28   14   43 1   
    29   15   44 1   
    30   15   45 1   
    31   16   17 ar  
    32   16   21 ar  
    33   17   18 ar  
    34   17   46 1   
    35   18   19 ar  
    36   18   47 1   
    37   19   20 ar  
    38   19   48 1   
    39   20   21 ar  
    40   20   49 1   
    41   21   22 1   
    42   22   23 ar  
    43   23   24 1   
    44   23   26 ar  
    45   24   25 2   
    46   24   28 1   
    47   26   27 1   
    48   26   29 ar  
    49   27   28 1   
    50   27   50 1   
    51   27   51 1   
    52   28   52 1   
    53   29   30 1   
    54   30   31 ar  
    55   30   33 ar  
    56   31   32 ar  
    57   32   35 ar  
    58   32   53 1   
    59   33   34 ar  
    60   33   54 1   
    61   34   35 ar  
    62   34   55 1   
    63   35   56 1   
@<TRIPOS>SUBSTRUCTURE
     1 KSA         1 TEMP              0 ****  ****    0 ROOT
