@<TRIPOS>MOLECULE
KSA
   56    63     1     0     0
SMALL
bcc


@<TRIPOS>ATOM
      1 O3          0.0290    0.5380   -0.4020 o         1 KSA     -0.537000
      2 C22         1.1380    0.0490   -0.1760 c         1 KSA      0.605100
      3 O5          1.8630   -0.4450   -1.2180 os        1 KSA     -0.427900
      4 C26         1.2590   -0.3650   -2.5140 c3        1 KSA      0.123700
      5 C1          1.7860   -0.0800    1.1960 c3        1 KSA      0.093800
      6 O4          0.7530   -0.2480    2.1390 oh        1 KSA     -0.549800
      7 C2          2.7370    1.1830    1.4590 c3        1 KSA      0.253500
      8 O1          4.0650    0.6560    1.2320 os        1 KSA     -0.400600
      9 C25         2.5680    2.2600    0.3780 c3        1 KSA     -0.117100
     10 N1          2.6230    1.6730    2.8230 na        1 KSA     -0.095300
     11 C3          3.4530    1.2250    3.8750 ca        1 KSA      0.015800
     12 C4          4.2980    0.1200    3.9420 ca        1 KSA     -0.033200
     13 N2          4.5430   -0.8720    2.9710 na        1 KSA     -0.100300
     14 C24         4.1230   -0.7340    1.5990 c3        1 KSA      0.255800
     15 C27         2.7090   -1.3010    1.3190 c3        1 KSA     -0.107400
     16 C17         5.5720   -1.6990    3.4640 ca        1 KSA      0.014800
     17 C18         6.2090   -2.7920    2.8690 ca        1 KSA     -0.172000
     18 C19         7.1640   -3.4780    3.6180 ca        1 KSA     -0.090000
     19 C20         7.4820   -3.0990    4.9260 ca        1 KSA     -0.167000
     20 C21         6.8570   -2.0100    5.5350 ca        1 KSA     -0.054000
     21 C16         5.9060   -1.2990    4.8160 cp        1 KSA     -0.086000
     22 C5          5.0940   -0.1340    5.1280 cp        1 KSA      0.035000
     23 C6          4.9540    0.7140    6.2080 ca        1 KSA     -0.138600
     24 C15         5.6120    0.7170    7.5500 c         1 KSA      0.719100
     25 O2          6.4870   -0.0420    7.9920 o         1 KSA     -0.624500
     26 C7          4.0690    1.8260    6.1540 ca        1 KSA     -0.059300
     27 C23         4.1250    2.5540    7.4790 c3        1 KSA      0.130300
     28 N3          5.0390    1.7650    8.2920 n         1 KSA     -0.576900
     29 C8          3.3310    2.1000    5.0230 cp        1 KSA     -0.042000
     30 C9          2.3840    3.1300    4.6370 cp        1 KSA     -0.071000
     31 C10         1.9770    2.8480    3.2750 ca        1 KSA      0.013800
     32 C11         1.0200    3.6610    2.6600 ca        1 KSA     -0.164000
     33 C14         1.8560    4.2160    5.3190 ca        1 KSA     -0.077000
     34 C13         0.9210    5.0280    4.6780 ca        1 KSA     -0.156000
     35 C12         0.5110    4.7460    3.3730 ca        1 KSA     -0.098000
     36 H261        1.0860    0.7050   -2.7840 h1        1 KSA      0.056367
     37 H262        2.0170   -0.8410   -3.1840 h1        1 KSA      0.056367
     38 H263        0.2940   -0.9250   -2.5190 h1        1 KSA      0.056367
     39 HO4         0.1770    0.5300    2.0910 ho        1 KSA      0.429000
     40 H251        3.0900    3.2020    0.6700 hc        1 KSA      0.072033
     41 H252        3.0260    1.8760   -0.5680 hc        1 KSA      0.072033
     42 H253        1.4880    2.4710    0.1960 hc        1 KSA      0.072033
     43 H24         4.9020   -1.1890    0.9190 h2        1 KSA      0.103700
     44 H271        2.3440   -1.9720    2.1380 hc        1 KSA      0.099200
     45 H272        2.7340   -1.8830    0.3650 hc        1 KSA      0.099200
     46 H18         5.9680   -3.1070    1.8450 ha        1 KSA      0.133000
     47 H19         7.6780   -4.3390    3.1650 ha        1 KSA      0.132000
     48 H20         8.2390   -3.6680    5.4850 ha        1 KSA      0.137000
     49 H21         7.1070   -1.7100    6.5670 ha        1 KSA      0.176000
     50 H231        3.1110    2.5830    7.9660 h1        1 KSA      0.060700
     51 H232        4.4920    3.6090    7.3430 h1        1 KSA      0.060700
     52 HN3         5.4870    2.1590    9.0780 hn        1 KSA      0.324500
     53 H11         0.6530    3.4620    1.6450 ha        1 KSA      0.140000
     54 H14         2.1700    4.4240    6.3530 ha        1 KSA      0.136000
     55 H13         0.4970    5.8940    5.2070 ha        1 KSA      0.136000
     56 H12        -0.2380    5.3930    2.8900 ha        1 KSA      0.135000
@<TRIPOS>BOND
     1    1    2 2   
     2    2    3 1   
     3    2    5 1   
     4    3    4 1   
     5    4   36 1   
     6    4   37 1   
     7    4   38 1   
     8    5    6 1   
     9    5    7 1   
    10    5   15 1   
    11    6   39 1   
    12    7    8 1   
    13    7    9 1   
    14    7   10 1   
    15    8   14 1   
    16    9   40 1   
    17    9   41 1   
    18    9   42 1   
    19   10   11 1   
    20   10   31 1   
    21   11   12 ar  
    22   11   29 ar  
    23   12   13 1   
    24   12   22 ar  
    25   13   14 1   
    26   13   16 1   
    27   14   15 1   
    28   14   43 1   
    29   15   44 1   
    30   15   45 1   
    31   16   17 ar  
    32   16   21 ar  
    33   17   18 ar  
    34   17   46 1   
    35   18   19 ar  
    36   18   47 1   
    37   19   20 ar  
    38   19   48 1   
    39   20   21 ar  
    40   20   49 1   
    41   21   22 1   
    42   22   23 ar  
    43   23   24 1   
    44   23   26 ar  
    45   24   25 2   
    46   24   28 1   
    47   26   27 1   
    48   26   29 ar  
    49   27   28 1   
    50   27   50 1   
    51   27   51 1   
    52   28   52 1   
    53   29   30 1   
    54   30   31 ar  
    55   30   33 ar  
    56   31   32 ar  
    57   32   35 ar  
    58   32   53 1   
    59   33   34 ar  
    60   33   54 1   
    61   34   35 ar  
    62   34   55 1   
    63   35   56 1   
@<TRIPOS>SUBSTRUCTURE
     1 KSA         1 TEMP              0 ****  ****    0 ROOT
