@<TRIPOS>MOLECULE
KSA
   56    63     1     0     0
SMALL
bcc


@<TRIPOS>ATOM
      1 O3          0.0250    0.5340   -0.3990 o         1 KSA     -0.538000
      2 C22         1.1350    0.0450   -0.1730 c         1 KSA      0.605100
      3 O5          1.8590   -0.4500   -1.2160 os        1 KSA     -0.427900
      4 C26         1.2540   -0.3710   -2.5110 c3        1 KSA      0.123700
      5 C1          1.7830   -0.0830    1.1980 c3        1 KSA      0.093800
      6 O4          0.7520   -0.2490    2.1430 oh        1 KSA     -0.549800
      7 C2          2.7350    1.1810    1.4590 c3        1 KSA      0.253500
      8 O1          4.0620    0.6540    1.2320 os        1 KSA     -0.400600
      9 C25         2.5650    2.2560    0.3780 c3        1 KSA     -0.117100
     10 N1          2.6230    1.6720    2.8230 na        1 KSA     -0.095300
     11 C3          3.4540    1.2260    3.8740 ca        1 KSA      0.015800
     12 C4          4.2990    0.1210    3.9420 ca        1 KSA     -0.033200
     13 N2          4.5420   -0.8730    2.9720 na        1 KSA     -0.100300
     14 C24         4.1210   -0.7360    1.6000 c3        1 KSA      0.255800
     15 C27         2.7070   -1.3040    1.3220 c3        1 KSA     -0.107400
     16 C17         5.5730   -1.6990    3.4640 ca        1 KSA      0.014800
     17 C18         6.2080   -2.7920    2.8690 ca        1 KSA     -0.172000
     18 C19         7.1650   -3.4770    3.6190 ca        1 KSA     -0.090000
     19 C20         7.4850   -3.0960    4.9250 ca        1 KSA     -0.167000
     20 C21         6.8600   -2.0070    5.5340 ca        1 KSA     -0.054000
     21 C16         5.9080   -1.2970    4.8160 cp        1 KSA     -0.086000
     22 C5          5.0970   -0.1320    5.1270 cp        1 KSA      0.035000
     23 C6          4.9580    0.7170    6.2070 ca        1 KSA     -0.138600
     24 C15         5.6180    0.7220    7.5480 c         1 KSA      0.719100
     25 O2          6.4930   -0.0360    7.9890 o         1 KSA     -0.624500
     26 C7          4.0720    1.8300    6.1520 ca        1 KSA     -0.059300
     27 C23         4.1300    2.5590    7.4760 c3        1 KSA      0.130300
     28 N3          5.0450    1.7710    8.2890 n         1 KSA     -0.576900
     29 C8          3.3330    2.1020    5.0220 cp        1 KSA     -0.042000
     30 C9          2.3860    3.1320    4.6360 cp        1 KSA     -0.071000
     31 C10         1.9760    2.8480    3.2740 ca        1 KSA      0.013800
     32 C11         1.0190    3.6600    2.6600 ca        1 KSA     -0.164000
     33 C14         1.8580    4.2180    5.3170 ca        1 KSA     -0.077000
     34 C13         0.9220    5.0290    4.6760 ca        1 KSA     -0.156000
     35 C12         0.5110    4.7460    3.3720 ca        1 KSA     -0.098000
     36 H261        2.0110   -0.8480   -3.1800 h1        1 KSA      0.056367
     37 H262        1.0800    0.6980   -2.7810 h1        1 KSA      0.056367
     38 H263        0.2890   -0.9310   -2.5140 h1        1 KSA      0.056367
     39 HO4         0.1760    0.5290    2.0940 ho        1 KSA      0.429000
     40 H251        1.4850    2.4680    0.1970 hc        1 KSA      0.072033
     41 H252        3.0870    3.1990    0.6680 hc        1 KSA      0.072033
     42 H253        3.0220    1.8720   -0.5690 hc        1 KSA      0.072033
     43 H24         4.8990   -1.1920    0.9200 h2        1 KSA      0.103700
     44 H271        2.3420   -1.9730    2.1430 hc        1 KSA      0.099200
     45 H272        2.7300   -1.8860    0.3690 hc        1 KSA      0.099200
     46 H18         5.9660   -3.1080    1.8470 ha        1 KSA      0.133000
     47 H19         7.6780   -4.3390    3.1660 ha        1 KSA      0.132000
     48 H20         8.2430   -3.6650    5.4840 ha        1 KSA      0.137000
     49 H21         7.1110   -1.7060    6.5660 ha        1 KSA      0.176000
     50 H231        3.1170    2.5890    7.9640 h1        1 KSA      0.060700
     51 H232        4.4970    3.6140    7.3390 h1        1 KSA      0.060700
     52 HN3         5.4950    2.1660    9.0740 hn        1 KSA      0.324500
     53 H11         0.6510    3.4600    1.6450 ha        1 KSA      0.140000
     54 H14         2.1740    4.4280    6.3500 ha        1 KSA      0.136000
     55 H13         0.4990    5.8960    5.2040 ha        1 KSA      0.136000
     56 H12        -0.2390    5.3920    2.8900 ha        1 KSA      0.135000
@<TRIPOS>BOND
     1    1    2 2   
     2    2    3 1   
     3    2    5 1   
     4    3    4 1   
     5    4   36 1   
     6    4   37 1   
     7    4   38 1   
     8    5    6 1   
     9    5    7 1   
    10    5   15 1   
    11    6   39 1   
    12    7    8 1   
    13    7    9 1   
    14    7   10 1   
    15    8   14 1   
    16    9   40 1   
    17    9   41 1   
    18    9   42 1   
    19   10   11 1   
    20   10   31 1   
    21   11   12 ar  
    22   11   29 ar  
    23   12   13 1   
    24   12   22 ar  
    25   13   14 1   
    26   13   16 1   
    27   14   15 1   
    28   14   43 1   
    29   15   44 1   
    30   15   45 1   
    31   16   17 ar  
    32   16   21 ar  
    33   17   18 ar  
    34   17   46 1   
    35   18   19 ar  
    36   18   47 1   
    37   19   20 ar  
    38   19   48 1   
    39   20   21 ar  
    40   20   49 1   
    41   21   22 1   
    42   22   23 ar  
    43   23   24 1   
    44   23   26 ar  
    45   24   25 2   
    46   24   28 1   
    47   26   27 1   
    48   26   29 ar  
    49   27   28 1   
    50   27   50 1   
    51   27   51 1   
    52   28   52 1   
    53   29   30 1   
    54   30   31 ar  
    55   30   33 ar  
    56   31   32 ar  
    57   32   35 ar  
    58   32   53 1   
    59   33   34 ar  
    60   33   54 1   
    61   34   35 ar  
    62   34   55 1   
    63   35   56 1   
@<TRIPOS>SUBSTRUCTURE
     1 KSA         1 TEMP              0 ****  ****    0 ROOT
