@<TRIPOS>MOLECULE
KSC
   50    53     1     0     0
SMALL
bcc


@<TRIPOS>ATOM
      1 C1          0.1150   -0.0200   -0.1040 cc        1 KSC      0.727500
      2 N2          1.4920   -0.0680   -0.0150 nd        1 KSC     -0.645100
      3 N3          1.7920    0.0570    1.3120 na        1 KSC      0.020200
      4 C4          0.6390    0.1970    2.1500 cd        1 KSC      0.516500
      5 C5         -0.4850    0.1550    1.2430 cc        1 KSC     -0.505800
      6 C6          3.0640    0.0710    1.8980 cc        1 KSC      0.348300
      7 C7          3.0920    0.2230    3.3280 cd        1 KSC     -0.379300
      8 C8          1.9090    0.3470    4.0660 cc        1 KSC      0.539600
      9 N9          0.6690    0.3360    3.4870 nd        1 KSC     -0.795000
     10 C10         1.9980    0.4980    5.5510 c3        1 KSC     -0.167400
     11 N11         4.1870   -0.0560    1.1400 nh        1 KSC     -0.724600
     12 C12         5.5110   -0.0510    1.7300 c3        1 KSC      0.238800
     13 C13         6.5840   -0.2980    0.7040 cx        1 KSC     -0.175700
     14 C14         7.9140    0.3870    0.8920 cx        1 KSC     -0.112900
     15 C15         7.0070    0.8150   -0.2200 cx        1 KSC     -0.112900
     16 N16        -0.6380   -0.1570   -1.2310 nh        1 KSC     -0.659600
     17 C17        -0.1000   -0.2190   -2.5410 ca        1 KSC      0.064600
     18 C18         0.9270   -1.1290   -2.8690 ca        1 KSC     -0.094000
     19 C19         1.4070   -1.2030   -4.1680 ca        1 KSC     -0.168000
     20 C20         0.8610   -0.3710   -5.1650 ca        1 KSC      0.142100
     21 C21        -0.1660    0.5280   -4.8530 ca        1 KSC     -0.168000
     22 C22        -0.6400    0.6070   -3.5470 ca        1 KSC     -0.094000
     23 C23        -1.8510    0.2570    1.5160 c         1 KSC      0.613300
     24 O24        -2.8300    0.2590    0.7640 o         1 KSC     -0.526100
     25 N25        -2.2270    0.3930    2.9880 n4        1 KSC     -0.744400
     26 O26         1.4140   -0.5260   -6.4150 os        1 KSC     -0.317900
     27 C27         0.8610    0.2730   -7.4580 c3        1 KSC      0.108700
     28 H7          4.0640    0.2420    3.8400 ha        1 KSC      0.181000
     29 H10         1.4990    1.4440    5.8790 hc        1 KSC      0.074700
     30 H10A        3.0670    0.5260    5.8760 hc        1 KSC      0.074700
     31 H10B        1.4920   -0.3630    6.0580 hc        1 KSC      0.074700
     32 HN11        4.1270   -0.1390    0.1450 hn        1 KSC      0.483800
     33 H12         5.5640   -0.8590    2.5190 h1        1 KSC      0.063200
     34 H12A        5.6790    0.9450    2.2360 h1        1 KSC      0.063200
     35 H13         6.5790   -1.3350    0.3120 hc        1 KSC      0.099700
     36 H14         8.8330   -0.1790    0.6550 hc        1 KSC      0.084700
     37 H14A        8.0570    1.0580    1.7580 hc        1 KSC      0.084700
     38 H15         6.4980    1.7930   -0.1500 hc        1 KSC      0.084700
     39 H15A        7.2750    0.5640   -1.2630 hc        1 KSC      0.084700
     40 HN16       -1.6150    0.0420   -1.1510 hn        1 KSC      0.471800
     41 H18         1.3540   -1.7940   -2.1030 ha        1 KSC      0.144500
     42 H19         2.2070   -1.9090   -4.4340 ha        1 KSC      0.156500
     43 H21        -0.6040    1.1770   -5.6250 ha        1 KSC      0.156500
     44 H22        -1.4480    1.3190   -3.3170 ha        1 KSC      0.144500
     45 HN25       -1.8760   -0.4140    3.5100 hn        1 KSC      0.461467
     46 HN2A       -3.2470    0.4430    3.0760 hn        1 KSC      0.461467
     47 H27         1.4500   -0.0390   -8.3590 h1        1 KSC      0.052700
     48 H27A       -0.2230    0.0440   -7.5970 h1        1 KSC      0.052700
     49 H27B        1.0120    1.3580   -7.2430 h1        1 KSC      0.052700
     50 H253       -1.8060    1.2400    3.3770 hn        1 KSC      0.461467
@<TRIPOS>BOND
     1    1    2 2   
     2    1    5 1   
     3    1   16 1   
     4    2    3 1   
     5    3    4 1   
     6    3    6 1   
     7    4    5 2   
     8    4    9 1   
     9    5   23 1   
    10    6    7 2   
    11    6   11 1   
    12    7    8 1   
    13    7   28 1   
    14    8    9 2   
    15    8   10 1   
    16   10   29 1   
    17   10   30 1   
    18   10   31 1   
    19   11   12 1   
    20   11   32 1   
    21   12   13 1   
    22   12   33 1   
    23   12   34 1   
    24   13   14 1   
    25   13   15 1   
    26   13   35 1   
    27   14   15 1   
    28   14   36 1   
    29   14   37 1   
    30   15   38 1   
    31   15   39 1   
    32   16   17 1   
    33   16   40 1   
    34   17   18 ar  
    35   17   22 ar  
    36   18   19 ar  
    37   18   41 1   
    38   19   20 ar  
    39   19   42 1   
    40   20   21 ar  
    41   20   26 1   
    42   21   22 ar  
    43   21   43 1   
    44   22   44 1   
    45   23   24 2   
    46   23   25 1   
    47   25   45 1   
    48   25   46 1   
    49   25   50 1   
    50   26   27 1   
    51   27   47 1   
    52   27   48 1   
    53   27   49 1   
@<TRIPOS>SUBSTRUCTURE
     1 KSC         1 TEMP              0 ****  ****    0 ROOT
