@<TRIPOS>MOLECULE
KSC
   52    55     1     0     0
SMALL
bcc


@<TRIPOS>ATOM
      1 C1          0.4660   -0.9170   -0.1900 cc        1 KSC      0.549500
      2 N2          1.8120   -0.9950    0.0640 nd        1 KSC     -0.509100
      3 N3          2.0180   -0.2950    1.1980 na        1 KSC      0.029200
      4 C4          0.8120    0.2750    1.7350 cd        1 KSC      0.499500
      5 C5         -0.2210   -0.1290    0.8300 cc        1 KSC     -0.392800
      6 C6          3.2300   -0.0770    1.8940 cc        1 KSC      0.124300
      7 C7          3.1780    0.6820    3.0490 cd        1 KSC     -0.200300
      8 C8          1.9120    1.2310    3.5270 cc        1 KSC      0.584600
      9 N9          0.7630    1.0230    2.8750 nd        1 KSC     -0.689000
     10 C10         1.9620    2.0330    4.7790 c3        1 KSC     -0.203400
     11 N11         4.4660   -0.6650    1.3560 n4        1 KSC     -0.662400
     12 C12         5.7020   -0.4430    2.2170 c3        1 KSC      0.167800
     13 C13         6.8700   -1.1360    1.5970 cx        1 KSC     -0.258700
     14 C14         8.2320   -0.4760    1.7390 cx        1 KSC     -0.078900
     15 C15         7.5760   -0.5310    0.4020 cx        1 KSC     -0.078900
     16 N16        -0.1840   -1.5450   -1.3400 n4        1 KSC     -0.539400
     17 C17         0.0100   -0.8120   -2.5950 ca        1 KSC     -0.179400
     18 C18         1.2140   -0.9740   -3.3200 ca        1 KSC     -0.046500
     19 C19         1.3530   -0.3670   -4.5490 ca        1 KSC     -0.172500
     20 C20         0.2910    0.4150   -5.0830 ca        1 KSC      0.241100
     21 C21        -0.9010    0.5810   -4.3450 ca        1 KSC     -0.172500
     22 C22        -1.0410   -0.0240   -3.1080 ca        1 KSC     -0.046500
     23 C23        -1.6270    0.1480    0.8670 c         1 KSC      0.611300
     24 O24        -2.4570   -0.2350    0.0450 o         1 KSC     -0.438100
     25 N25        -2.1580    0.9720    2.0020 n4        1 KSC     -0.731400
     26 O26         0.5350    0.9530   -6.2980 os        1 KSC     -0.273900
     27 C27        -0.5190    1.6920   -6.9360 c3        1 KSC      0.097700
     28 H7          4.0800    0.9010    3.6540 ha        1 KSC      0.227000
     29 H10         2.6620    2.9020    4.6390 hc        1 KSC      0.121367
     30 H10A        0.9610    2.4330    5.0840 hc        1 KSC      0.121367
     31 H10B        2.3570    1.3950    5.6150 hc        1 KSC      0.121367
     32 HN11        4.6570   -0.2670    0.4190 hn        1 KSC      0.486300
     33 H12         5.8720    0.6700    2.2860 hx        1 KSC      0.115700
     34 H12A        5.4870   -0.8710    3.2390 hx        1 KSC      0.115700
     35 H13         6.8330   -2.2430    1.6860 hc        1 KSC      0.125700
     36 H14         9.0980   -1.1350    1.9540 hc        1 KSC      0.108950
     37 H14A        8.3140    0.4910    2.2700 hc        1 KSC      0.108950
     38 H15         7.1860    0.4040   -0.0410 hc        1 KSC      0.108950
     39 H15A        7.9790   -1.2160   -0.3700 hc        1 KSC      0.108950
     40 HN16        0.1920   -2.5030   -1.4640 hn        1 KSC      0.494300
     41 H18         2.0350   -1.5960   -2.9280 ha        1 KSC      0.153000
     42 H19         2.2740   -0.4900   -5.1480 ha        1 KSC      0.194500
     43 H21        -1.7310    1.1790   -4.7580 ha        1 KSC      0.194500
     44 H22        -1.9870    0.1020   -2.5520 ha        1 KSC      0.153000
     45 HN25       -3.1820    1.0830    1.8950 hn        1 KSC      0.494133
     46 HN2A       -1.7210    1.9030    2.0070 hn        1 KSC      0.494133
     47 H27        -1.4110    1.0390   -7.0900 h1        1 KSC      0.081700
     48 H27A       -0.7690    2.5990   -6.3350 h1        1 KSC      0.081700
     49 H27B       -0.0520    1.9750   -7.9180 h1        1 KSC      0.081700
     50 H112        4.3400   -1.6870    1.2430 hn        1 KSC      0.486300
     51 H162       -1.2010   -1.6050   -1.1420 hn        1 KSC      0.494300
     52 H253       -1.9660    0.5120    2.9020 hn        1 KSC      0.494133
@<TRIPOS>BOND
     1    1    2 2   
     2    1    5 1   
     3    1   16 1   
     4    2    3 1   
     5    3    4 1   
     6    3    6 1   
     7    4    5 2   
     8    4    9 1   
     9    5   23 1   
    10    6    7 2   
    11    6   11 1   
    12    7    8 1   
    13    7   28 1   
    14    8    9 2   
    15    8   10 1   
    16   10   29 1   
    17   10   30 1   
    18   10   31 1   
    19   11   12 1   
    20   11   32 1   
    21   11   50 1   
    22   12   13 1   
    23   12   33 1   
    24   12   34 1   
    25   13   14 1   
    26   13   15 1   
    27   13   35 1   
    28   14   15 1   
    29   14   36 1   
    30   14   37 1   
    31   15   38 1   
    32   15   39 1   
    33   16   17 1   
    34   16   40 1   
    35   16   51 1   
    36   17   18 ar  
    37   17   22 ar  
    38   18   19 ar  
    39   18   41 1   
    40   19   20 ar  
    41   19   42 1   
    42   20   21 ar  
    43   20   26 1   
    44   21   22 ar  
    45   21   43 1   
    46   22   44 1   
    47   23   24 2   
    48   23   25 1   
    49   25   45 1   
    50   25   46 1   
    51   25   52 1   
    52   26   27 1   
    53   27   47 1   
    54   27   48 1   
    55   27   49 1   
@<TRIPOS>SUBSTRUCTURE
     1 KSC         1 TEMP              0 ****  ****    0 ROOT
