@<TRIPOS>MOLECULE
KSC
   49    52     1     0     0
SMALL
bcc


@<TRIPOS>ATOM
      1 C1          0.4640    1.3620   -0.1610 cc        1 KSC      0.670500
      2 N2         -0.1410    0.1180   -0.1440 nd        1 KSC     -0.656100
      3 N3         -1.4640    0.3530    0.0220 na        1 KSC      0.010200
      4 C4         -1.7780    1.7600    0.1360 cd        1 KSC      0.478500
      5 C5         -0.5300    2.4280    0.0240 cc        1 KSC     -0.411800
      6 C6         -2.4920   -0.5940    0.1380 cc        1 KSC      0.322300
      7 C7         -3.7990   -0.0860    0.3220 cd        1 KSC     -0.419300
      8 C8         -4.0260    1.3160    0.4010 cc        1 KSC      0.512600
      9 N9         -3.0500    2.2310    0.3120 nd        1 KSC     -0.723000
     10 C10        -5.4420    1.7570    0.5970 c3        1 KSC     -0.158400
     11 N11        -2.2080   -1.9450    0.1170 nh        1 KSC     -0.755600
     12 C12        -3.2640   -2.9040   -0.1040 c3        1 KSC      0.241800
     13 C13        -2.7400   -4.2470   -0.5460 cx        1 KSC     -0.159700
     14 C14        -3.4700   -5.4820   -0.0860 cx        1 KSC     -0.120400
     15 C15        -2.1110   -5.1710    0.4630 cx        1 KSC     -0.120400
     16 N16         1.8020    1.6130   -0.3930 nh        1 KSC     -0.666600
     17 C17         2.8020    0.6250   -0.2630 ca        1 KSC      0.105600
     18 C18         2.7160   -0.6110   -0.9420 ca        1 KSC     -0.114500
     19 C19         3.7440   -1.5380   -0.8510 ca        1 KSC     -0.165000
     20 C20         4.8880   -1.2430   -0.0880 ca        1 KSC      0.106100
     21 C21         4.9970   -0.0200    0.5790 ca        1 KSC     -0.165000
     22 C22         3.9590    0.9040    0.4960 ca        1 KSC     -0.114500
     23 C23        -0.2310    3.8490    0.1140 c         1 KSC      0.727300
     24 O24         0.9500    4.2760    0.1980 o         1 KSC     -0.677100
     25 N25        -1.2570    4.7600    0.1040 n         1 KSC     -0.663000
     26 O26         5.8490   -2.2380   -0.0690 os        1 KSC     -0.328900
     27 C27         7.0220   -1.9590    0.6850 c3        1 KSC      0.113700
     28 H7         -4.6470   -0.7720    0.4240 ha        1 KSC      0.158000
     29 H10        -5.8310    1.3200    1.5500 hc        1 KSC      0.061033
     30 H10A       -5.5410    2.8690    0.6470 hc        1 KSC      0.061033
     31 H10B       -6.0640    1.3800   -0.2530 hc        1 KSC      0.061033
     32 HN11       -1.2760   -2.2470   -0.0660 hn        1 KSC      0.461800
     33 H12        -3.8410   -3.0160    0.8610 h1        1 KSC      0.050700
     34 H12A       -3.9830   -2.5220   -0.8890 h1        1 KSC      0.050700
     35 H13        -2.3270   -4.2340   -1.5750 hc        1 KSC      0.090700
     36 H14        -4.3520   -5.3720    0.5690 hc        1 KSC      0.077950
     37 H14A       -3.5880   -6.3190   -0.7970 hc        1 KSC      0.077950
     38 H15        -1.2490   -5.7880    0.1520 hc        1 KSC      0.077950
     39 H15A       -2.0200   -4.8330    1.5110 hc        1 KSC      0.077950
     40 HN16        2.0840    2.5530   -0.1670 hn        1 KSC      0.474800
     41 H18         1.8360   -0.8510   -1.5580 ha        1 KSC      0.146500
     42 H19         3.6800   -2.5020   -1.3750 ha        1 KSC      0.142500
     43 H21         5.8880    0.2250    1.1740 ha        1 KSC      0.142500
     44 H22         4.0580    1.8630    1.0280 ha        1 KSC      0.146500
     45 HN25       -2.2040    4.4890    0.0660 hn        1 KSC      0.319000
     46 HN2A       -1.0360    5.7200    0.1940 hn        1 KSC      0.319000
     47 H27         6.7710   -1.8030    1.7620 h1        1 KSC      0.043367
     48 H27A        7.6420   -2.8820    0.5540 h1        1 KSC      0.043367
     49 H27B        7.5530   -1.0660    0.2740 h1        1 KSC      0.043367
@<TRIPOS>BOND
     1    1    2 2   
     2    1    5 1   
     3    1   16 1   
     4    2    3 1   
     5    3    4 1   
     6    3    6 1   
     7    4    5 2   
     8    4    9 1   
     9    5   23 1   
    10    6    7 2   
    11    6   11 1   
    12    7    8 1   
    13    7   28 1   
    14    8    9 2   
    15    8   10 1   
    16   10   29 1   
    17   10   30 1   
    18   10   31 1   
    19   11   12 1   
    20   11   32 1   
    21   12   13 1   
    22   12   33 1   
    23   12   34 1   
    24   13   14 1   
    25   13   15 1   
    26   13   35 1   
    27   14   15 1   
    28   14   36 1   
    29   14   37 1   
    30   15   38 1   
    31   15   39 1   
    32   16   17 1   
    33   16   40 1   
    34   17   18 ar  
    35   17   22 ar  
    36   18   19 ar  
    37   18   41 1   
    38   19   20 ar  
    39   19   42 1   
    40   20   21 ar  
    41   20   26 1   
    42   21   22 ar  
    43   21   43 1   
    44   22   44 1   
    45   23   24 2   
    46   23   25 1   
    47   25   45 1   
    48   25   46 1   
    49   26   27 1   
    50   27   47 1   
    51   27   48 1   
    52   27   49 1   
@<TRIPOS>SUBSTRUCTURE
     1 KSC         1 TEMP              0 ****  ****    0 ROOT
