@<TRIPOS>MOLECULE
KSC
   50    53     1     0     0
SMALL
bcc


@<TRIPOS>ATOM
      1 C1          0.1150   -0.0200   -0.1050 cc        1 KSC      0.727500
      2 N2          1.4910   -0.0730   -0.0150 nd        1 KSC     -0.645100
      3 N3          1.7920    0.0450    1.3120 na        1 KSC      0.020200
      4 C4          0.6390    0.1860    2.1500 cd        1 KSC      0.516500
      5 C5         -0.4850    0.1520    1.2420 cc        1 KSC     -0.505800
      6 C6          3.0640    0.0520    1.8980 cc        1 KSC      0.348300
      7 C7          3.0920    0.1980    3.3280 cd        1 KSC     -0.379300
      8 C8          1.9090    0.3240    4.0670 cc        1 KSC      0.539600
      9 N9          0.6700    0.3200    3.4880 nd        1 KSC     -0.795000
     10 C10         1.9990    0.4690    5.5520 c3        1 KSC     -0.167400
     11 N11         4.1860   -0.0760    1.1400 nu        1 KSC     -0.724600
     12 C12         5.5100   -0.0790    1.7300 c3        1 KSC      0.238800
     13 C13         6.5820   -0.3250    0.7030 cx        1 KSC     -0.175700
     14 C14         7.9140    0.3550    0.8930 cx        1 KSC     -0.112900
     15 C15         7.0090    0.7900   -0.2170 cx        1 KSC     -0.112900
     16 N16        -0.6380   -0.1500   -1.2320 nu        1 KSC     -0.659600
     17 C17        -0.1010   -0.2080   -2.5420 ca        1 KSC      0.064600
     18 C18         0.9230   -1.1220   -2.8740 ca        1 KSC     -0.094000
     19 C19         1.4030   -1.1920   -4.1720 ca        1 KSC     -0.168000
     20 C20         0.8600   -0.3550   -5.1670 ca        1 KSC      0.142100
     21 C21        -0.1630    0.5470   -4.8510 ca        1 KSC     -0.168000
     22 C22        -0.6370    0.6230   -3.5460 ca        1 KSC     -0.094000
     23 C23        -1.8510    0.2580    1.5160 c         1 KSC      0.613300
     24 O24        -2.8300    0.2670    0.7640 o         1 KSC     -0.526100
     25 N25        -2.2270    0.3890    2.9890 nz        1 KSC     -0.744400
     26 O26         1.4130   -0.5080   -6.4180 os        1 KSC     -0.317900
     27 C27         0.8630    0.2970   -7.4580 c3        1 KSC      0.108700
     28 H7          4.0640    0.2110    3.8410 ha        1 KSC      0.181000
     29 H10         1.4760   -0.3820    6.0570 hc        1 KSC      0.074700
     30 H10A        3.0670    0.4760    5.8800 hc        1 KSC      0.074700
     31 H10B        1.5180    1.4250    5.8810 hc        1 KSC      0.074700
     32 HN11        4.1260   -0.1550    0.1440 hn        1 KSC      0.483800
     33 H12         5.6820    0.9150    2.2400 h1        1 KSC      0.063200
     34 H12A        5.5600   -0.8900    2.5150 h1        1 KSC      0.063200
     35 H13         6.5740   -1.3600    0.3060 hc        1 KSC      0.099700
     36 H14         8.0600    1.0210    1.7620 hc        1 KSC      0.084700
     37 H14A        8.8320   -0.2140    0.6540 hc        1 KSC      0.084700
     38 H15         6.5040    1.7700   -0.1430 hc        1 KSC      0.084700
     39 H15A        7.2760    0.5430   -1.2600 hc        1 KSC      0.084700
     40 HN16       -1.6150    0.0530   -1.1520 hn        1 KSC      0.471800
     41 H18         1.3470   -1.7910   -2.1100 ha        1 KSC      0.144500
     42 H19         2.2000   -1.9010   -4.4420 ha        1 KSC      0.156500
     43 H21        -0.5990    1.2010   -5.6220 ha        1 KSC      0.156500
     44 H22        -1.4430    1.3370   -3.3130 ha        1 KSC      0.144500
     45 HN25       -1.8780   -0.4210    3.5080 hn        1 KSC      0.461467
     46 HN2A       -1.8020    1.2330    3.3810 hn        1 KSC      0.461467
     47 H27         1.4520   -0.0130   -8.3590 h1        1 KSC      0.052700
     48 H27A        1.0180    1.3810   -7.2390 h1        1 KSC      0.052700
     49 H27B       -0.2220    0.0730   -7.5980 h1        1 KSC      0.052700
     50 H253       -3.2460    0.4430    3.0760 hn        1 KSC      0.461467
@<TRIPOS>BOND
     1    1    2 2   
     2    1    5 1   
     3    1   16 1   
     4    2    3 1   
     5    3    4 1   
     6    3    6 1   
     7    4    5 2   
     8    4    9 1   
     9    5   23 1   
    10    6    7 2   
    11    6   11 1   
    12    7    8 1   
    13    7   28 1   
    14    8    9 2   
    15    8   10 1   
    16   10   29 1   
    17   10   30 1   
    18   10   31 1   
    19   11   12 1   
    20   11   32 1   
    21   12   13 1   
    22   12   33 1   
    23   12   34 1   
    24   13   14 1   
    25   13   15 1   
    26   13   35 1   
    27   14   15 1   
    28   14   36 1   
    29   14   37 1   
    30   15   38 1   
    31   15   39 1   
    32   16   17 1   
    33   16   40 1   
    34   17   18 ar  
    35   17   22 ar  
    36   18   19 ar  
    37   18   41 1   
    38   19   20 ar  
    39   19   42 1   
    40   20   21 ar  
    41   20   26 1   
    42   21   22 ar  
    43   21   43 1   
    44   22   44 1   
    45   23   24 2   
    46   23   25 1   
    47   25   45 1   
    48   25   46 1   
    49   25   50 1   
    50   26   27 1   
    51   27   47 1   
    52   27   48 1   
    53   27   49 1   
@<TRIPOS>SUBSTRUCTURE
     1 KSC         1 TEMP              0 ****  ****    0 ROOT
