@<TRIPOS>MOLECULE
KSE
   61    63     1     0     0
SMALL
bcc


@<TRIPOS>ATOM
      1 C1          0.7840    1.3690   -0.2000 cc        1 KSE      0.569500
      2 N2          2.1260    1.1690    0.0270 nd        1 KSE     -0.526100
      3 N3          2.2030    0.3020    1.0550 na        1 KSE      0.024200
      4 C4          0.9080   -0.1090    1.5440 cd        1 KSE      0.499500
      5 C5         -0.0310    0.5920    0.7300 cc        1 KSE     -0.360800
      6 C6          3.3520   -0.2250    1.6880 cc        1 KSE      0.103300
      7 C7          3.1700   -1.1100    2.7330 cd        1 KSE     -0.190300
      8 C8          1.8190   -1.4830    3.1660 cc        1 KSE      0.583600
      9 N9          0.7310   -0.9850    2.5770 nd        1 KSE     -0.660000
     10 C11         1.7240   -2.4450    4.2970 c3        1 KSE     -0.206400
     11 N15         4.6790    0.2060    1.1800 n4        1 KSE     -0.641400
     12 C16         5.8440   -0.3090    1.9680 c3        1 KSE      0.078800
     13 C17         7.2190    0.2190    1.4130 c3        1 KSE      0.146200
     14 N20         8.3360   -0.3480    2.2740 n4        1 KSE     -0.847600
     15 C21         7.4120   -0.2530   -0.0300 c3        1 KSE     -0.171600
     16 C25         7.2580    1.7470    1.4880 c3        1 KSE     -0.171600
     17 N32         0.2550    2.2400   -1.2460 n4        1 KSE     -0.568400
     18 C33         0.1530    1.5720   -2.5640 ca        1 KSE     -0.004400
     19 C34        -1.1100    1.1720   -3.0050 ca        1 KSE     -0.212500
     20 C35        -1.2200    0.6550   -4.3200 ca        1 KSE      0.228100
     21 C36        -0.0930    0.5360   -5.1440 ca        1 KSE     -0.230000
     22 C37         1.1610    0.9280   -4.6540 ca        1 KSE      0.228100
     23 C38         1.3060    1.4490   -3.3470 ca        1 KSE     -0.212500
     24 C42        -1.4740    0.5990    0.7810 c         1 KSE      0.603300
     25 O43        -2.1970    1.3120    0.0910 o         1 KSE     -0.407100
     26 N44        -2.1680   -0.3170    1.7380 n4        1 KSE     -0.730400
     27 O48        -2.4850    0.2910   -4.6650 os        1 KSE     -0.309900
     28 O49         2.3320    0.8360   -5.3480 os        1 KSE     -0.309900
     29 C50         2.2450    0.4900   -6.7400 c3        1 KSE      0.101700
     30 C54        -2.7140   -0.1070   -6.0270 c3        1 KSE      0.101700
     31 H7          4.0080   -1.5730    3.2840 ha        1 KSE      0.212000
     32 H11         0.6640   -2.6960    4.5690 hc        1 KSE      0.127033
     33 H11A        2.2210   -2.0100    5.2060 hc        1 KSE      0.127033
     34 H11B        2.2480   -3.4010    4.0260 hc        1 KSE      0.127033
     35 HN15        4.7720   -0.1150    0.1960 hn        1 KSE      0.496300
     36 H16         5.7130    0.0280    3.0390 hx        1 KSE      0.133200
     37 H16A        5.8250   -1.4390    1.9150 hx        1 KSE      0.133200
     38 HN20        8.3480   -1.3750    2.2360 hn        1 KSE      0.489800
     39 HN2A        9.2390   -0.0010    1.9030 hn        1 KSE      0.489800
     40 H21         8.4530   -0.0350   -0.3970 hc        1 KSE      0.107867
     41 H21A        7.2300   -1.3510   -0.1370 hc        1 KSE      0.107867
     42 H21B        6.7280    0.3070   -0.7170 hc        1 KSE      0.107867
     43 H25         6.6020    2.1920    0.6990 hc        1 KSE      0.107867
     44 H25A        6.9440    2.1230    2.4930 hc        1 KSE      0.107867
     45 H25B        8.2910    2.1420    1.2770 hc        1 KSE      0.107867
     46 HN32       -0.6960    2.5550   -0.9620 hn        1 KSE      0.503800
     47 H34        -2.0300    1.2790   -2.4070 ha        1 KSE      0.168500
     48 H36        -0.1950    0.1490   -6.1730 ha        1 KSE      0.198000
     49 H38         2.3010    1.7730   -3.0150 ha        1 KSE      0.168500
     50 HN44       -1.9220   -0.0840    2.7100 hn        1 KSE      0.499467
     51 HN4A       -1.9140   -1.2980    1.5550 hn        1 KSE      0.499467
     52 H50         3.3110    0.5770   -7.0790 h1        1 KSE      0.081033
     53 H50A        1.8730   -0.5560   -6.8510 h1        1 KSE      0.081033
     54 H50B        1.5950    1.2180   -7.2830 h1        1 KSE      0.081033
     55 H54        -2.4260    0.7150   -6.7260 h1        1 KSE      0.081033
     56 H54A       -2.1610   -1.0500   -6.2480 h1        1 KSE      0.081033
     57 H54B       -3.8240   -0.2770   -6.0440 h1        1 KSE      0.081033
     58 H152        4.7150    1.2450    1.1820 hn        1 KSE      0.496300
     59 H203        8.2480   -0.0350    3.2480 hn        1 KSE      0.489800
     60 H322        0.8650    3.0720   -1.3570 hn        1 KSE      0.503800
     61 H443       -3.1960   -0.2140    1.6250 hn        1 KSE      0.499467
@<TRIPOS>BOND
     1    1    2 2   
     2    1    5 1   
     3    1   17 1   
     4    2    3 1   
     5    3    4 1   
     6    3    6 1   
     7    4    5 2   
     8    4    9 1   
     9    5   24 1   
    10    6    7 2   
    11    6   11 1   
    12    7    8 1   
    13    7   31 1   
    14    8    9 2   
    15    8   10 1   
    16   10   32 1   
    17   10   33 1   
    18   10   34 1   
    19   11   12 1   
    20   11   35 1   
    21   11   58 1   
    22   12   13 1   
    23   12   36 1   
    24   12   37 1   
    25   13   14 1   
    26   13   15 1   
    27   13   16 1   
    28   14   38 1   
    29   14   39 1   
    30   14   59 1   
    31   15   40 1   
    32   15   41 1   
    33   15   42 1   
    34   16   43 1   
    35   16   44 1   
    36   16   45 1   
    37   17   18 1   
    38   17   46 1   
    39   17   60 1   
    40   18   19 ar  
    41   18   23 ar  
    42   19   20 ar  
    43   19   47 1   
    44   20   21 ar  
    45   20   27 1   
    46   21   22 ar  
    47   21   48 1   
    48   22   23 ar  
    49   22   28 1   
    50   23   49 1   
    51   24   25 2   
    52   24   26 1   
    53   26   50 1   
    54   26   51 1   
    55   26   61 1   
    56   27   30 1   
    57   28   29 1   
    58   29   52 1   
    59   29   53 1   
    60   29   54 1   
    61   30   55 1   
    62   30   56 1   
    63   30   57 1   
@<TRIPOS>SUBSTRUCTURE
     1 KSE         1 TEMP              0 ****  ****    0 ROOT
