@<TRIPOS>MOLECULE
KSE
   57    59     1     0     0
SMALL
bcc


@<TRIPOS>ATOM
      1 C1         -0.2880    1.5650   -0.3320 cc        1 KSE      0.678500
      2 N2          0.3420    0.3440   -0.1710 nd        1 KSE     -0.651100
      3 N3          1.6630    0.6180   -0.0840 na        1 KSE      0.013200
      4 C4          1.9550    2.0300   -0.1720 cd        1 KSE      0.475500
      5 C5          0.6920    2.6600   -0.3300 cc        1 KSE     -0.407800
      6 C6          2.7130   -0.2930    0.1100 cc        1 KSE      0.310300
      7 C7          4.0140    0.2490    0.1600 cd        1 KSE     -0.411300
      8 C8          4.2190    1.6560    0.0530 cc        1 KSE      0.510600
      9 N9          3.2240    2.5370   -0.1080 nd        1 KSE     -0.718000
     10 C11         5.6340    2.1350    0.1310 c3        1 KSE     -0.158400
     11 N15         2.4440   -1.6420    0.3030 nh        1 KSE     -0.743600
     12 C16         3.5090   -2.6000    0.1510 c3        1 KSE      0.155800
     13 C17         3.0260   -4.0870    0.2650 c3        1 KSE      0.178200
     14 N20         2.3260   -4.3780    1.5100 n3        1 KSE     -0.901800
     15 C21         2.1480   -4.4100   -0.9520 c3        1 KSE     -0.093600
     16 C25         4.3070   -4.9340    0.1590 c3        1 KSE     -0.093600
     17 N32        -1.6390    1.7700   -0.5140 nh        1 KSE     -0.678600
     18 C33        -2.6350    0.7930   -0.3480 ca        1 KSE      0.215600
     19 C34        -3.8630    1.1880    0.2310 ca        1 KSE     -0.221000
     20 C35        -4.9000    0.2550    0.3500 ca        1 KSE      0.174100
     21 C36        -4.7560   -1.0700   -0.0800 ca        1 KSE     -0.298000
     22 C37        -3.5340   -1.4380   -0.6530 ca        1 KSE      0.174100
     23 C38        -2.4760   -0.5290   -0.8040 ca        1 KSE     -0.221000
     24 C42         0.3720    4.0770   -0.4330 c         1 KSE      0.726300
     25 O43        -0.8160    4.4930   -0.3990 o         1 KSE     -0.673100
     26 N44         1.3830    4.9930   -0.5750 n         1 KSE     -0.662000
     27 O48        -6.0520    0.7550    0.9280 os        1 KSE     -0.326900
     28 O49        -3.2570   -2.7090   -1.1210 os        1 KSE     -0.326900
     29 C50        -4.3160   -3.6560   -1.0440 c3        1 KSE      0.114700
     30 C54        -7.1330   -0.1570    1.0760 c3        1 KSE      0.114700
     31 H7          4.8830   -0.4060    0.2930 ha        1 KSE      0.159000
     32 H11         6.2280    1.6560   -0.6870 hc        1 KSE      0.061367
     33 H11A        5.7150    3.2450    0.0290 hc        1 KSE      0.061367
     34 H11B        6.0680    1.8340    1.1160 hc        1 KSE      0.061367
     35 HN15        1.5270   -1.9690    0.0760 hn        1 KSE      0.449800
     36 H16         4.0270   -2.4740   -0.8430 h1        1 KSE      0.049700
     37 H16A        4.2690   -2.4090    0.9630 h1        1 KSE      0.049700
     38 HN20        2.8710   -4.0790    2.2930 hn        1 KSE      0.358800
     39 HN2A        1.4320   -3.9310    1.5300 hn        1 KSE      0.358800
     40 H21         2.6840   -4.1170   -1.8850 hc        1 KSE      0.045867
     41 H21A        1.9380   -5.5060   -0.9890 hc        1 KSE      0.045867
     42 H21B        1.1710   -3.8710   -0.9140 hc        1 KSE      0.045867
     43 H25         5.0120   -4.6970    0.9910 hc        1 KSE      0.045867
     44 H25A        4.0520   -6.0200    0.2050 hc        1 KSE      0.045867
     45 H25B        4.8110   -4.7240   -0.8130 hc        1 KSE      0.045867
     46 HN32       -1.9310    2.7300   -0.4240 hn        1 KSE      0.486800
     47 H34        -4.0280    2.2150    0.5890 ha        1 KSE      0.163000
     48 H36        -5.5730   -1.7920    0.0280 ha        1 KSE      0.143000
     49 H38        -1.5540   -0.8760   -1.2890 ha        1 KSE      0.163000
     50 HN44        2.3340    4.7340   -0.5830 hn        1 KSE      0.319500
     51 HN4A        1.1460    5.9520   -0.6170 hn        1 KSE      0.319500
     52 H50        -4.6040   -3.8380    0.0200 h1        1 KSE      0.043533
     53 H50A       -5.1990   -3.3120   -1.6360 h1        1 KSE      0.043533
     54 H50B       -3.8730   -4.5790   -1.4960 h1        1 KSE      0.043533
     55 H54        -7.4700   -0.5360    0.0810 h1        1 KSE      0.043533
     56 H54A       -6.8450   -1.0060    1.7420 h1        1 KSE      0.043533
     57 H54B       -7.9330    0.4650    1.5530 h1        1 KSE      0.043533
@<TRIPOS>BOND
     1    1    2 2   
     2    1    5 1   
     3    1   17 1   
     4    2    3 1   
     5    3    4 1   
     6    3    6 1   
     7    4    5 2   
     8    4    9 1   
     9    5   24 1   
    10    6    7 2   
    11    6   11 1   
    12    7    8 1   
    13    7   31 1   
    14    8    9 2   
    15    8   10 1   
    16   10   32 1   
    17   10   33 1   
    18   10   34 1   
    19   11   12 1   
    20   11   35 1   
    21   12   13 1   
    22   12   36 1   
    23   12   37 1   
    24   13   14 1   
    25   13   15 1   
    26   13   16 1   
    27   14   38 1   
    28   14   39 1   
    29   15   40 1   
    30   15   41 1   
    31   15   42 1   
    32   16   43 1   
    33   16   44 1   
    34   16   45 1   
    35   17   18 1   
    36   17   46 1   
    37   18   19 ar  
    38   18   23 ar  
    39   19   20 ar  
    40   19   47 1   
    41   20   21 ar  
    42   20   27 1   
    43   21   22 ar  
    44   21   48 1   
    45   22   23 ar  
    46   22   28 1   
    47   23   49 1   
    48   24   25 2   
    49   24   26 1   
    50   26   50 1   
    51   26   51 1   
    52   27   30 1   
    53   28   29 1   
    54   29   52 1   
    55   29   53 1   
    56   29   54 1   
    57   30   55 1   
    58   30   56 1   
    59   30   57 1   
@<TRIPOS>SUBSTRUCTURE
     1 KSE         1 TEMP              0 ****  ****    0 ROOT
