@<TRIPOS>MOLECULE
KSE
   59    61     1     0     0
SMALL
bcc


@<TRIPOS>ATOM
      1 C1          0.1280    0.3040   -0.1810 cc        1 KSE      0.741500
      2 N2          1.5120    0.2360   -0.0730 nd        1 KSE     -0.658100
      3 N3          1.7860    0.1830    1.2560 na        1 KSE      0.062200
      4 C4          0.6160    0.2030    2.0850 cd        1 KSE      0.496500
      5 C5         -0.4870    0.2790    1.1690 cc        1 KSE     -0.488800
      6 C6          3.0440    0.1210    1.8640 cc        1 KSE      0.285300
      7 C7          3.0630    0.0920    3.2760 cd        1 KSE     -0.361300
      8 C8          1.8540    0.1050    4.0250 cc        1 KSE      0.548600
      9 N9          0.6370    0.1600    3.4390 nd        1 KSE     -0.745000
     10 C11         1.9630    0.0750    5.5140 c3        1 KSE     -0.177400
     11 N15         4.1880    0.0160    1.0540 nu        1 KSE     -0.755600
     12 C16         5.4880    0.1860    1.6550 c3        1 KSE      0.165800
     13 C17         6.6490   -0.1650    0.6740 c3        1 KSE      0.142200
     14 N20         6.4720   -1.5780    0.1410 nz        1 KSE     -0.841600
     15 C21         6.6960    0.8190   -0.4940 c3        1 KSE     -0.141100
     16 C25         7.9580   -0.0810    1.4650 c3        1 KSE     -0.141100
     17 N32        -0.5960    0.3940   -1.3230 nu        1 KSE     -0.650600
     18 C33        -0.0600    0.3870   -2.6370 ca        1 KSE      0.167600
     19 C34        -0.7610   -0.3270   -3.6270 ca        1 KSE     -0.208500
     20 C35        -0.2890   -0.3000   -4.9520 ca        1 KSE      0.185600
     21 C36         0.8700    0.4060   -5.3010 ca        1 KSE     -0.269000
     22 C37         1.5490    1.1010   -4.2950 ca        1 KSE      0.185600
     23 C38         1.0960    1.1140   -2.9650 ca        1 KSE     -0.208500
     24 C42        -1.8710    0.3240    1.4300 c         1 KSE      0.615300
     25 O43        -2.8200    0.3600    0.6470 o         1 KSE     -0.485100
     26 N44        -2.2840    0.3310    2.8920 nz        1 KSE     -0.743400
     27 O48        -1.0480   -1.0290   -5.8350 os        1 KSE     -0.326400
     28 O49         2.7170    1.8050   -4.5030 os        1 KSE     -0.326400
     29 C50         3.0490    2.0890   -5.8620 c3        1 KSE      0.108700
     30 C54        -0.6690   -0.9720   -7.2090 c3        1 KSE      0.108700
     31 H7          4.0150    0.0710    3.8240 ha        1 KSE      0.177000
     32 H11         2.3610    1.0600    5.8700 hc        1 KSE      0.086367
     33 H11A        0.9810   -0.1110    6.0140 hc        1 KSE      0.086367
     34 H11B        2.6760   -0.7310    5.8200 hc        1 KSE      0.086367
     35 HN15        4.1020    0.4490    0.1500 hn        1 KSE      0.448800
     36 H16         5.5660   -0.4850    2.5590 h1        1 KSE      0.089700
     37 H16A        5.6700    1.2480    1.9960 h1        1 KSE      0.089700
     38 HN20        6.3440   -2.2290    0.9200 hn        1 KSE      0.465133
     39 HN2A        5.6540   -1.6230   -0.4760 hn        1 KSE      0.465133
     40 H21         6.7140    1.8610   -0.0840 hc        1 KSE      0.089033
     41 H21A        5.8130    0.7240   -1.1730 hc        1 KSE      0.089033
     42 H21B        7.6270    0.6760   -1.0980 hc        1 KSE      0.089033
     43 H25         8.8390   -0.3060    0.8140 hc        1 KSE      0.089033
     44 H25A        7.9580   -0.7770    2.3390 hc        1 KSE      0.089033
     45 H25B        8.0780    0.9650    1.8490 hc        1 KSE      0.089033
     46 HN32       -1.5940    0.3310   -1.2460 hn        1 KSE      0.485800
     47 H34        -1.6750   -0.8980   -3.4050 ha        1 KSE      0.161000
     48 H36         1.2300    0.4180   -6.3380 ha        1 KSE      0.162000
     49 H38         1.6450    1.7140   -2.2280 ha        1 KSE      0.161000
     50 HN44       -1.8750    1.1400    3.3670 hn        1 KSE      0.469133
     51 HN4A       -1.9550   -0.5220    3.3530 hn        1 KSE      0.469133
     52 H50         3.9180    2.7900   -5.7750 h1        1 KSE      0.057033
     53 H50A        3.3490    1.1510   -6.3890 h1        1 KSE      0.057033
     54 H50B        2.1960    2.5830   -6.3860 h1        1 KSE      0.057033
     55 H54        -1.4530   -1.5950   -7.7130 h1        1 KSE      0.057033
     56 H54A        0.3440   -1.4190   -7.3530 h1        1 KSE      0.057033
     57 H54B       -0.6980    0.0800   -7.5830 h1        1 KSE      0.057033
     58 H203        7.3080   -1.8450   -0.3900 hn        1 KSE      0.465133
     59 H443       -3.3080    0.3800    2.9540 hn        1 KSE      0.469133
@<TRIPOS>BOND
     1    1    2 2   
     2    1    5 1   
     3    1   17 1   
     4    2    3 1   
     5    3    4 1   
     6    3    6 1   
     7    4    5 2   
     8    4    9 1   
     9    5   24 1   
    10    6    7 2   
    11    6   11 1   
    12    7    8 1   
    13    7   31 1   
    14    8    9 2   
    15    8   10 1   
    16   10   32 1   
    17   10   33 1   
    18   10   34 1   
    19   11   12 1   
    20   11   35 1   
    21   12   13 1   
    22   12   36 1   
    23   12   37 1   
    24   13   14 1   
    25   13   15 1   
    26   13   16 1   
    27   14   38 1   
    28   14   39 1   
    29   14   58 1   
    30   15   40 1   
    31   15   41 1   
    32   15   42 1   
    33   16   43 1   
    34   16   44 1   
    35   16   45 1   
    36   17   18 1   
    37   17   46 1   
    38   18   19 ar  
    39   18   23 ar  
    40   19   20 ar  
    41   19   47 1   
    42   20   21 ar  
    43   20   27 1   
    44   21   22 ar  
    45   21   48 1   
    46   22   23 ar  
    47   22   28 1   
    48   23   49 1   
    49   24   25 2   
    50   24   26 1   
    51   26   50 1   
    52   26   51 1   
    53   26   59 1   
    54   27   30 1   
    55   28   29 1   
    56   29   52 1   
    57   29   53 1   
    58   29   54 1   
    59   30   55 1   
    60   30   56 1   
    61   30   57 1   
@<TRIPOS>SUBSTRUCTURE
     1 KSE         1 TEMP              0 ****  ****    0 ROOT
