@<TRIPOS>MOLECULE
KSE
   59    61     1     0     0
SMALL
bcc


@<TRIPOS>ATOM
      1 C1          0.1280    0.3040   -0.1810 cc        1 KSE      0.741500
      2 N2          1.5120    0.2380   -0.0730 nd        1 KSE     -0.658100
      3 N3          1.7870    0.1930    1.2560 na        1 KSE      0.062200
      4 C4          0.6170    0.2160    2.0860 cd        1 KSE      0.496500
      5 C5         -0.4870    0.2860    1.1690 cc        1 KSE     -0.488800
      6 C6          3.0450    0.1350    1.8640 cc        1 KSE      0.285300
      7 C7          3.0650    0.1140    3.2760 cd        1 KSE     -0.361300
      8 C8          1.8560    0.1310    4.0260 cc        1 KSE      0.548600
      9 N9          0.6380    0.1810    3.4400 nd        1 KSE     -0.745000
     10 C11         1.9660    0.1090    5.5150 c3        1 KSE     -0.177400
     11 N15         4.1880    0.0270    1.0540 nh        1 KSE     -0.755600
     12 C16         5.4890    0.2020    1.6540 c3        1 KSE      0.165800
     13 C17         6.6500   -0.1520    0.6740 c3        1 KSE      0.142200
     14 N20         6.4750   -1.5690    0.1490 n4        1 KSE     -0.841600
     15 C21         6.6940    0.8250   -0.5000 c3        1 KSE     -0.141100
     16 C25         7.9590   -0.0610    1.4640 c3        1 KSE     -0.141100
     17 N32        -0.5960    0.3870   -1.3230 nh        1 KSE     -0.650600
     18 C33        -0.0610    0.3720   -2.6370 ca        1 KSE      0.167600
     19 C34        -0.7610   -0.3480   -3.6230 ca        1 KSE     -0.208500
     20 C35        -0.2900   -0.3290   -4.9470 ca        1 KSE      0.185600
     21 C36         0.8680    0.3760   -5.3010 ca        1 KSE     -0.268000
     22 C37         1.5470    1.0780   -4.3000 ca        1 KSE      0.185600
     23 C38         1.0940    1.0980   -2.9700 ca        1 KSE     -0.208500
     24 C42        -1.8700    0.3310    1.4310 c         1 KSE      0.615300
     25 O43        -2.8200    0.3610    0.6480 o         1 KSE     -0.485100
     26 N44        -2.2830    0.3460    2.8930 n4        1 KSE     -0.743400
     27 O48        -1.0480   -1.0640   -5.8260 os        1 KSE     -0.326400
     28 O49         2.7140    1.7820   -4.5130 os        1 KSE     -0.326400
     29 C50         3.0450    2.0580   -5.8740 c3        1 KSE      0.108700
     30 C54        -0.6700   -1.0150   -7.2010 c3        1 KSE      0.108700
     31 H7          4.0170    0.0970    3.8240 ha        1 KSE      0.177000
     32 H11         2.6830   -0.6930    5.8250 hc        1 KSE      0.086367
     33 H11A        2.3590    1.0980    5.8650 hc        1 KSE      0.086367
     34 H11B        0.9840   -0.0780    6.0160 hc        1 KSE      0.086367
     35 HN15        4.1010    0.4540    0.1470 hn        1 KSE      0.448800
     36 H16         5.6690    1.2670    1.9880 h1        1 KSE      0.089700
     37 H16A        5.5690   -0.4640    2.5620 h1        1 KSE      0.089700
     38 HN20        7.3110   -1.8380   -0.3800 hn        1 KSE      0.465133
     39 HN2A        6.3480   -2.2160    0.9330 hn        1 KSE      0.465133
     40 H21         6.7100    1.8690   -0.0960 hc        1 KSE      0.089033
     41 H21A        7.6250    0.6790   -1.1030 hc        1 KSE      0.089033
     42 H21B        5.8110    0.7240   -1.1770 hc        1 KSE      0.089033
     43 H25         8.0770    0.9870    1.8410 hc        1 KSE      0.089033
     44 H25A        8.8400   -0.2890    0.8140 hc        1 KSE      0.089033
     45 H25B        7.9610   -0.7530    2.3420 hc        1 KSE      0.089033
     46 HN32       -1.5950    0.3230   -1.2450 hn        1 KSE      0.485800
     47 H34        -1.6750   -0.9190   -3.3970 ha        1 KSE      0.161000
     48 H36         1.2270    0.3820   -6.3390 ha        1 KSE      0.162000
     49 H38         1.6430    1.7030   -2.2360 ha        1 KSE      0.161000
     50 HN44       -1.8740    1.1580    3.3640 hn        1 KSE      0.469133
     51 HN4A       -3.3070    0.3940    2.9560 hn        1 KSE      0.469133
     52 H50         3.9130    2.7600   -5.7910 h1        1 KSE      0.057033
     53 H50A        2.1910    2.5470   -6.4000 h1        1 KSE      0.057033
     54 H50B        3.3460    1.1170   -6.3950 h1        1 KSE      0.057033
     55 H54         0.3430   -1.4620   -7.3430 h1        1 KSE      0.057033
     56 H54A       -0.7010    0.0350   -7.5810 h1        1 KSE      0.057033
     57 H54B       -1.4540   -1.6410   -7.7000 h1        1 KSE      0.057033
     58 H203        5.6570   -1.6190   -0.4660 hn        1 KSE      0.465133
     59 H443       -1.9530   -0.5040    3.3590 hn        1 KSE      0.469133
@<TRIPOS>BOND
     1    1    2 2   
     2    1    5 1   
     3    1   17 1   
     4    2    3 1   
     5    3    4 1   
     6    3    6 1   
     7    4    5 2   
     8    4    9 1   
     9    5   24 1   
    10    6    7 2   
    11    6   11 1   
    12    7    8 1   
    13    7   31 1   
    14    8    9 2   
    15    8   10 1   
    16   10   32 1   
    17   10   33 1   
    18   10   34 1   
    19   11   12 1   
    20   11   35 1   
    21   12   13 1   
    22   12   36 1   
    23   12   37 1   
    24   13   14 1   
    25   13   15 1   
    26   13   16 1   
    27   14   38 1   
    28   14   39 1   
    29   14   58 1   
    30   15   40 1   
    31   15   41 1   
    32   15   42 1   
    33   16   43 1   
    34   16   44 1   
    35   16   45 1   
    36   17   18 1   
    37   17   46 1   
    38   18   19 ar  
    39   18   23 ar  
    40   19   20 ar  
    41   19   47 1   
    42   20   21 ar  
    43   20   27 1   
    44   21   22 ar  
    45   21   48 1   
    46   22   23 ar  
    47   22   28 1   
    48   23   49 1   
    49   24   25 2   
    50   24   26 1   
    51   26   50 1   
    52   26   51 1   
    53   26   59 1   
    54   27   30 1   
    55   28   29 1   
    56   29   52 1   
    57   29   53 1   
    58   29   54 1   
    59   30   55 1   
    60   30   56 1   
    61   30   57 1   
@<TRIPOS>SUBSTRUCTURE
     1 KSE         1 TEMP              0 ****  ****    0 ROOT
