@<TRIPOS>MOLECULE
KSF
   36    39     1     0     0
SMALL
bcc


@<TRIPOS>ATOM
      1 CL23        0.0440    0.4080    0.3730 cl        1 KSF     -0.099400
      2 C18         1.7070    0.1730    0.0770 ca        1 KSF     -0.023600
      3 C17         2.5950   -0.1300    1.1400 ca        1 KSF      0.143600
      4 C22         3.9600   -0.3190    0.8320 ca        1 KSF     -0.105000
      5 C21         4.4100   -0.1990   -0.4790 ca        1 KSF     -0.115000
      6 C20         3.5230    0.0980   -1.5130 ca        1 KSF     -0.134000
      7 C19         2.1710    0.2790   -1.2350 ca        1 KSF     -0.107000
      8 N16         2.1100   -0.3170    2.4510 nh        1 KSF     -0.716300
      9 C2          2.6410    0.3510    3.5590 cc        1 KSF      0.714200
     10 N3          3.7930    1.0450    3.5200 nd        1 KSF     -0.733000
     11 C4          4.2460    1.5940    4.6910 cd        1 KSF      0.412200
     12 C5          3.6170    1.5130    5.9290 cc        1 KSF     -0.141600
     13 N6          2.4120    0.8120    5.9860 na        1 KSF     -0.023200
     14 C7          1.4980    0.5410    7.0030 cc        1 KSF      0.348700
     15 N8          0.4500   -0.1900    6.5370 nd        1 KSF     -0.548300
     16 C9          0.6740   -0.4010    5.1940 cd        1 KSF      0.000600
     17 C1          1.8930    0.2140    4.8040 cc        1 KSF     -0.257600
     18 C10         4.1890    2.1290    7.1270 ca        1 KSF     -0.038000
     19 C11         4.6750    3.4430    7.0570 ca        1 KSF     -0.115500
     20 C12         5.2510    4.0350    8.1790 ca        1 KSF     -0.128000
     21 C13         5.3450    3.3250    9.3760 ca        1 KSF     -0.119000
     22 C14         4.8640    2.0180    9.4490 ca        1 KSF     -0.128000
     23 C15         4.2870    1.4190    8.3310 ca        1 KSF     -0.115500
     24 H22         4.6790   -0.5620    1.6300 ha        1 KSF      0.160000
     25 H21         5.4790   -0.3440   -0.6970 ha        1 KSF      0.139000
     26 H20         3.8870    0.1890   -2.5470 ha        1 KSF      0.140000
     27 H19         1.4660    0.5110   -2.0480 ha        1 KSF      0.149000
     28 HN16        1.1290   -0.5020    2.5200 hn        1 KSF      0.443800
     29 H4          5.2020    2.1400    4.5930 h4        1 KSF      0.040100
     30 H7          1.6310    0.8940    8.0310 h5        1 KSF      0.083800
     31 H9         -0.0190   -0.9710    4.5750 h4        1 KSF      0.183000
     32 H11         4.5960    4.0060    6.1140 ha        1 KSF      0.140500
     33 H12         5.6290    5.0660    8.1190 ha        1 KSF      0.137000
     34 H13         5.7990    3.7960   10.2610 ha        1 KSF      0.136000
     35 H14         4.9410    1.4550   10.3910 ha        1 KSF      0.137000
     36 H15         3.9230    0.3820    8.3920 ha        1 KSF      0.140500
@<TRIPOS>BOND
     1    1    2 1   
     2    2    3 ar  
     3    2    7 ar  
     4    3    4 ar  
     5    3    8 1   
     6    4    5 ar  
     7    4   24 1   
     8    5    6 ar  
     9    5   25 1   
    10    6    7 ar  
    11    6   26 1   
    12    7   27 1   
    13    8    9 1   
    14    8   28 1   
    15    9   10 2   
    16    9   17 1   
    17   10   11 1   
    18   11   12 2   
    19   11   29 1   
    20   12   13 1   
    21   12   18 1   
    22   13   14 1   
    23   13   17 1   
    24   14   15 2   
    25   14   30 1   
    26   15   16 1   
    27   16   17 2   
    28   16   31 1   
    29   18   19 ar  
    30   18   23 ar  
    31   19   20 ar  
    32   19   32 1   
    33   20   21 ar  
    34   20   33 1   
    35   21   22 ar  
    36   21   34 1   
    37   22   23 ar  
    38   22   35 1   
    39   23   36 1   
@<TRIPOS>SUBSTRUCTURE
     1 KSF         1 TEMP              0 ****  ****    0 ROOT
