@<TRIPOS>MOLECULE
KSF
   36    39     1     0     0
SMALL
bcc


@<TRIPOS>ATOM
      1 Cl23        0.0390    0.4090    0.3780 cl        1 KSF     -0.099400
      2 C18         1.7020    0.1800    0.0780 ca        1 KSF     -0.023600
      3 C17         2.5930   -0.1230    1.1380 ca        1 KSF      0.143600
      4 C22         3.9570   -0.3070    0.8270 ca        1 KSF     -0.105000
      5 C21         4.4040   -0.1820   -0.4850 ca        1 KSF     -0.115000
      6 C20         3.5150    0.1150   -1.5160 ca        1 KSF     -0.134000
      7 C19         2.1630    0.2910   -1.2350 ca        1 KSF     -0.107000
      8 N16         2.1110   -0.3150    2.4500 nu        1 KSF     -0.716300
      9 C2          2.6420    0.3510    3.5590 cc        1 KSF      0.714200
     10 N3          3.7920    1.0480    3.5190 nd        1 KSF     -0.733000
     11 C4          4.2450    1.5960    4.6910 cd        1 KSF      0.412200
     12 C5          3.6180    1.5100    5.9290 cc        1 KSF     -0.141600
     13 N6          2.4160    0.8050    5.9870 na        1 KSF     -0.023200
     14 C7          1.5040    0.5290    7.0050 cc        1 KSF      0.348700
     15 N8          0.4570   -0.2040    6.5390 nd        1 KSF     -0.548300
     16 C9          0.6800   -0.4110    5.1940 cd        1 KSF      0.000600
     17 C1          1.8960    0.2080    4.8050 cc        1 KSF     -0.257600
     18 C10         4.1910    2.1240    7.1280 ca        1 KSF     -0.038000
     19 C11         4.6730    3.4400    7.0610 ca        1 KSF     -0.115500
     20 C12         5.2490    4.0300    8.1840 ca        1 KSF     -0.128000
     21 C13         5.3470    3.3180    9.3790 ca        1 KSF     -0.119000
     22 C14         4.8700    2.0090    9.4490 ca        1 KSF     -0.128000
     23 C15         4.2940    1.4110    8.3300 ca        1 KSF     -0.115500
     24 H22         4.6790   -0.5500    1.6230 ha        1 KSF      0.160000
     25 H21         5.4740   -0.3230   -0.7050 ha        1 KSF      0.139000
     26 H20         3.8770    0.2100   -2.5500 ha        1 KSF      0.140000
     27 H19         1.4550    0.5230   -2.0460 ha        1 KSF      0.149000
     28 HN16        1.1300   -0.5040    2.5200 hn        1 KSF      0.443800
     29 H4          5.1990    2.1450    4.5930 h4        1 KSF      0.040100
     30 H7          1.6390    0.8790    8.0340 h5        1 KSF      0.083800
     31 H9         -0.0130   -0.9810    4.5760 h4        1 KSF      0.183000
     32 H11         4.5900    4.0050    6.1200 ha        1 KSF      0.140500
     33 H12         5.6240    5.0630    8.1250 ha        1 KSF      0.137000
     34 H13         5.8010    3.7870   10.2640 ha        1 KSF      0.136000
     35 H14         4.9510    1.4440   10.3890 ha        1 KSF      0.137000
     36 H15         3.9320    0.3730    8.3890 ha        1 KSF      0.140500
@<TRIPOS>BOND
     1    1    2 1   
     2    2    3 ar  
     3    2    7 ar  
     4    3    4 ar  
     5    3    8 1   
     6    4    5 ar  
     7    4   24 1   
     8    5    6 ar  
     9    5   25 1   
    10    6    7 ar  
    11    6   26 1   
    12    7   27 1   
    13    8    9 1   
    14    8   28 1   
    15    9   10 2   
    16    9   17 1   
    17   10   11 1   
    18   11   12 2   
    19   11   29 1   
    20   12   13 1   
    21   12   18 1   
    22   13   14 1   
    23   13   17 1   
    24   14   15 2   
    25   14   30 1   
    26   15   16 1   
    27   16   17 2   
    28   16   31 1   
    29   18   19 ar  
    30   18   23 ar  
    31   19   20 ar  
    32   19   32 1   
    33   20   21 ar  
    34   20   33 1   
    35   21   22 ar  
    36   21   34 1   
    37   22   23 ar  
    38   22   35 1   
    39   23   36 1   
@<TRIPOS>SUBSTRUCTURE
     1 KSF         1 TEMP              0 ****  ****    0 ROOT
