@<TRIPOS>MOLECULE
KSF
   37    40     1     0     0
SMALL
bcc


@<TRIPOS>ATOM
      1 CL23        1.6610    2.3760   -0.2710 cl        1 KSF     -0.030400
      2 C18         2.4350    0.8970    0.0110 ca        1 KSF      0.037400
      3 C17         2.2110    0.1780    1.2050 ca        1 KSF     -0.053400
      4 C22         2.8600   -1.0500    1.4250 ca        1 KSF     -0.088000
      5 C21         3.7160   -1.5570    0.4520 ca        1 KSF     -0.105000
      6 C20         3.9370   -0.8500   -0.7320 ca        1 KSF     -0.064000
      7 C19         3.3000    0.3710   -0.9530 ca        1 KSF     -0.100000
      8 N16         1.2930    0.7040    2.2220 n4        1 KSF     -0.604100
      9 C2          1.9970    1.1450    3.4480 cc        1 KSF      0.482200
     10 N3          2.5520    2.3550    3.4850 nd        1 KSF     -0.582000
     11 C4          3.1890    2.7170    4.6410 cd        1 KSF      0.324200
     12 C5          3.2990    1.9090    5.7800 cc        1 KSF      0.036400
     13 N6          2.7140    0.6530    5.7400 na        1 KSF     -0.058200
     14 C7          2.5930   -0.4020    6.6590 cc        1 KSF      0.398700
     15 N8          1.9070   -1.4370    6.1250 nd        1 KSF     -0.500300
     16 C9          1.5570   -1.0800    4.8340 cd        1 KSF     -0.009400
     17 C1          2.0370    0.2180    4.5500 cc        1 KSF     -0.233600
     18 C10         4.0080    2.3770    6.9720 ca        1 KSF     -0.110000
     19 C11         3.7690    3.6790    7.4390 ca        1 KSF     -0.095500
     20 C12         4.4520    4.1500    8.5580 ca        1 KSF     -0.122000
     21 C13         5.3770    3.3340    9.2110 ca        1 KSF     -0.082000
     22 C14         5.6200    2.0410    8.7440 ca        1 KSF     -0.122000
     23 C15         4.9360    1.5580    7.6310 ca        1 KSF     -0.095500
     24 H22         2.7020   -1.6100    2.3640 ha        1 KSF      0.163000
     25 H21         4.2220   -2.5220    0.6230 ha        1 KSF      0.173000
     26 H20         4.6200   -1.2560   -1.4980 ha        1 KSF      0.174000
     27 H19         3.4780    0.9280   -1.8890 ha        1 KSF      0.183000
     28 HN16        0.6330   -0.0370    2.4910 hn        1 KSF      0.474300
     29 H4          3.6420    3.7270    4.6230 h4        1 KSF      0.076100
     30 H7          3.0050   -0.3500    7.6770 h5        1 KSF      0.109800
     31 H9          0.9890   -1.7600    4.1980 h4        1 KSF      0.191000
     32 H11         3.0370    4.3240    6.9290 ha        1 KSF      0.143000
     33 H12         4.2590    5.1710    8.9260 ha        1 KSF      0.156500
     34 H13         5.9170    3.7110   10.0950 ha        1 KSF      0.157000
     35 H14         6.3550    1.4000    9.2560 ha        1 KSF      0.156500
     36 H15         5.1480    0.5430    7.2600 ha        1 KSF      0.143000
     37 H162        0.7690    1.5030    1.8210 hn        1 KSF      0.474300
@<TRIPOS>BOND
     1    1    2 1   
     2    2    3 ar  
     3    2    7 ar  
     4    3    4 ar  
     5    3    8 1   
     6    4    5 ar  
     7    4   24 1   
     8    5    6 ar  
     9    5   25 1   
    10    6    7 ar  
    11    6   26 1   
    12    7   27 1   
    13    8    9 1   
    14    8   28 1   
    15    8   37 1   
    16    9   10 2   
    17    9   17 1   
    18   10   11 1   
    19   11   12 2   
    20   11   29 1   
    21   12   13 1   
    22   12   18 1   
    23   13   14 1   
    24   13   17 1   
    25   14   15 2   
    26   14   30 1   
    27   15   16 1   
    28   16   17 2   
    29   16   31 1   
    30   18   19 ar  
    31   18   23 ar  
    32   19   20 ar  
    33   19   32 1   
    34   20   21 ar  
    35   20   33 1   
    36   21   22 ar  
    37   21   34 1   
    38   22   23 ar  
    39   22   35 1   
    40   23   36 1   
@<TRIPOS>SUBSTRUCTURE
     1 KSF         1 TEMP              0 ****  ****    0 ROOT
