@<TRIPOS>MOLECULE
KSF
   36    28     1     0     0
SMALL
bcc


@<TRIPOS>ATOM
      1 CL23       -0.6450   -0.0660   -4.2230 cl        1 KSF     -0.021000
      2 C18         0.3680   -1.4280   -3.8250 c2        1 KSF     -0.102000
      3 C17         0.1300   -2.1540   -2.6680 c2        1 KSF      0.062000
      4 C22         0.8990   -3.2700   -2.3790 c1        1 KSF     -0.105000
      5 C21         1.9060   -3.6610   -3.2480 c1        1 KSF     -0.124000
      6 C20         2.1440   -2.9360   -4.4050 c1        1 KSF     -0.124000
      7 C19         1.3750   -1.8200   -4.6930 c1        1 KSF     -0.107000
      8 N16        -0.9140   -1.7650   -1.7880 n3        1 KSF     -0.237000
      9 C2         -0.6340   -0.9160   -0.6860 c2        1 KSF      0.194000
     10 N3          0.2630    0.0680   -0.8670 n1        1 KSF     -0.207000
     11 C4          0.4040    1.0290    0.0640 c1        1 KSF     -0.082000
     12 C5         -0.3770    1.0050    1.2110 c1        1 KSF     -0.045000
     13 N6         -1.2860    0.0080    1.3940 n1        1 KSF     -0.033000
     14 C7         -2.1570   -0.2670    2.4240 c1        1 KSF     -0.107000
     15 N8         -2.8300   -1.4040    2.1130 n2        1 KSF     -0.120000
     16 C9         -2.3930   -1.8310    0.9210 c1        1 KSF     -0.139000
     17 C1         -1.4250   -0.9420    0.4750 c2        1 KSF     -0.169000
     18 C10        -0.0750    2.0410    2.0800 c1        1 KSF     -0.045000
     19 C11        -0.8430    3.1950    2.0760 c1        1 KSF     -0.124000
     20 C12        -0.5200    4.2460    2.9210 c1        1 KSF     -0.124000
     21 C13         0.5700    4.1420    3.7700 c1        1 KSF     -0.124000
     22 C14         1.3380    2.9880    3.7750 c1        1 KSF     -0.124000
     23 C15         1.0150    1.9370    2.9300 c1        1 KSF     -0.082000
     24 H22         0.7310   -3.7820   -1.5640 ha        1 KSF      0.160000
     25 H21         2.4470   -4.4470   -3.0450 ha        1 KSF      0.138167
     26 H20         2.8540   -3.2120   -5.0170 ha        1 KSF      0.138167
     27 H19         1.5430   -1.3090   -5.5080 ha        1 KSF      0.149000
     28 HN16       -1.7600   -2.0760   -1.9200 hn        1 KSF      0.239000
     29 H4          1.0560    1.7440   -0.0680 ha        1 KSF      0.158500
     30 H7         -2.2700    0.2640    3.2370 DU        1 KSF      0.198000
     31 H9         -2.7020   -2.6280    0.4490 DU        1 KSF      0.198000
     32 H11        -1.6110    3.2680    1.4770 ha        1 KSF      0.138167
     33 H12        -1.0600    5.0580    2.9170 ha        1 KSF      0.138167
     34 H13         0.7980    4.8810    4.3650 ha        1 KSF      0.138167
     35 H14         2.1050    2.9150    4.3730 ha        1 KSF      0.138167
     36 H15         1.5560    1.1250    2.9330 ha        1 KSF      0.158500
@<TRIPOS>BOND
     1    1    2 1   
     2    2    3 1   
     3    2    7 1   
     4    3    4 1   
     5    3    8 1   
     6    4   24 1   
     7    5    6 1   
     8    5   25 1   
     9    6   26 1   
    10    7   27 1   
    11    8    9 1   
    12    8   28 1   
    13    9   10 1   
    14    9   17 1   
    15   11   12 1   
    16   11   29 1   
    17   13   17 1   
    18   14   15 1   
    19   15   16 1   
    20   16   17 1   
    21   18   23 1   
    22   19   20 1   
    23   19   32 1   
    24   20   33 1   
    25   21   22 1   
    26   21   34 1   
    27   22   35 1   
    28   23   36 1   
@<TRIPOS>SUBSTRUCTURE
     1 KSF         1 TEMP              0 ****  ****    0 ROOT
