@<TRIPOS>MOLECULE
KSF
   36    39     1     0     0
SMALL
bcc


@<TRIPOS>ATOM
      1 CL23       -4.2190   -1.3500    1.0810 cl        1 KSF     -0.099400
      2 C18        -4.0870    0.1840    0.3480 ca        1 KSF     -0.023600
      3 C17        -2.9380    0.5280   -0.4070 ca        1 KSF      0.143600
      4 C22        -2.8880    1.8100   -0.9940 ca        1 KSF     -0.105000
      5 C21        -3.9390    2.7050   -0.8210 ca        1 KSF     -0.115000
      6 C20        -5.0630    2.3510   -0.0770 ca        1 KSF     -0.134000
      7 C19        -5.1390    1.0880    0.5030 ca        1 KSF     -0.107000
      8 N16        -1.9150   -0.4180   -0.6300 nh        1 KSF     -0.716300
      9 C2         -0.5660   -0.1520   -0.3720 cc        1 KSF      0.714200
     10 N3         -0.0940    1.0810   -0.1140 nd        1 KSF     -0.733000
     11 C4          1.2590    1.2240    0.0510 cd        1 KSF      0.412200
     12 C5          2.2020    0.2040   -0.0130 cc        1 KSF     -0.141600
     13 N6          1.7300   -1.0850   -0.2630 na        1 KSF     -0.023200
     14 C7          2.3380   -2.3350   -0.3700 cc        1 KSF      0.348700
     15 N8          1.4200   -3.3070   -0.6160 nd        1 KSF     -0.548300
     16 C9          0.1880   -2.6910   -0.6680 cd        1 KSF      0.000600
     17 C1          0.3350   -1.2970   -0.4490 cc        1 KSF     -0.257600
     18 C10         3.6310    0.4620    0.1680 ca        1 KSF     -0.038000
     19 C11         4.0520    1.2730    1.2320 ca        1 KSF     -0.115500
     20 C12         5.4060    1.5540    1.4030 ca        1 KSF     -0.128000
     21 C13         6.3480    1.0300    0.5180 ca        1 KSF     -0.119000
     22 C14         5.9330    0.2230   -0.5420 ca        1 KSF     -0.128000
     23 C15         4.5800   -0.0620   -0.7190 ca        1 KSF     -0.115500
     24 H22        -2.0150    2.1110   -1.5940 ha        1 KSF      0.160000
     25 H21        -3.8780    3.7030   -1.2830 ha        1 KSF      0.139000
     26 H20        -5.8900    3.0650    0.0530 ha        1 KSF      0.140000
     27 H19        -6.0250    0.8020    1.0900 ha        1 KSF      0.149000
     28 HN16       -2.1760   -1.3730   -0.4800 hn        1 KSF      0.443800
     29 H4          1.5830    2.2620    0.2480 h4        1 KSF      0.040100
     30 H7          3.4180   -2.4810   -0.2560 h5        1 KSF      0.083800
     31 H9         -0.7290   -3.2480   -0.8600 h4        1 KSF      0.183000
     32 H11         3.3100    1.6830    1.9340 ha        1 KSF      0.140500
     33 H12         5.7300    2.1900    2.2400 ha        1 KSF      0.137000
     34 H13         7.4170    1.2520    0.6550 ha        1 KSF      0.136000
     35 H14         6.6740   -0.1880   -1.2440 ha        1 KSF      0.137000
     36 H15         4.2590   -0.6870   -1.5660 ha        1 KSF      0.140500
@<TRIPOS>BOND
     1    1    2 1   
     2    2    3 ar  
     3    2    7 ar  
     4    3    4 ar  
     5    3    8 1   
     6    4    5 ar  
     7    4   24 1   
     8    5    6 ar  
     9    5   25 1   
    10    6    7 ar  
    11    6   26 1   
    12    7   27 1   
    13    8    9 1   
    14    8   28 1   
    15    9   10 2   
    16    9   17 1   
    17   10   11 1   
    18   11   12 2   
    19   11   29 1   
    20   12   13 1   
    21   12   18 1   
    22   13   14 1   
    23   13   17 1   
    24   14   15 2   
    25   14   30 1   
    26   15   16 1   
    27   16   17 2   
    28   16   31 1   
    29   18   19 ar  
    30   18   23 ar  
    31   19   20 ar  
    32   19   32 1   
    33   20   21 ar  
    34   20   33 1   
    35   21   22 ar  
    36   21   34 1   
    37   22   23 ar  
    38   22   35 1   
    39   23   36 1   
@<TRIPOS>SUBSTRUCTURE
     1 KSF         1 TEMP              0 ****  ****    0 ROOT
