@<TRIPOS>MOLECULE
KSG
   52    52     1     0     0
SMALL
bcc


@<TRIPOS>ATOM
      1 C1         -0.1740   -0.2170   -0.0720 c3        1 KSG      0.318900
      2 O1         -0.5190    0.9870    0.5660 os        1 KSG     -0.420600
      3 C2         -0.6540    2.1080   -0.3240 c3        1 KSG      0.112100
      4 C3         -0.2980    3.3410    0.5300 c3        1 KSG      0.142600
      5 O2          1.0440    3.2570    0.9580 oh        1 KSG     -0.613800
      6 C4         -0.5480    4.6340   -0.2620 c3        1 KSG      0.098600
      7 O3          0.4030    4.6530   -1.3150 oh        1 KSG     -0.609800
      8 C5         -1.9850    4.6940   -0.8010 c3        1 KSG      0.073100
      9 O4         -2.1110    5.8020   -1.6790 oh        1 KSG     -0.601800
     10 C6         -2.2950    3.4550   -1.6570 c3        1 KSG      0.098600
     11 O5         -3.6470    3.4500   -2.0750 oh        1 KSG     -0.609800
     12 C7         -2.1040    2.1800   -0.8230 c3        1 KSG      0.142600
     13 O6         -2.3330    1.0210   -1.6110 oh        1 KSG     -0.613800
     14 O7          1.2200   -0.2300   -0.2830 os        1 KSG     -0.442600
     15 C8          2.0100    0.0330    0.8890 c3        1 KSG      0.104100
     16 C9          3.4480    0.0870    0.4140 c3        1 KSG     -0.108100
     17 C10         1.7610   -1.1180    1.8950 c3        1 KSG      0.112500
     18 C11         0.2590   -1.2110    2.2010 c3        1 KSG     -0.117400
     19 C12        -0.5730   -1.3430    0.9310 c3        1 KSG      0.091500
     20 N1         -0.3890   -2.6810    0.2760 n4        1 KSG     -0.838600
     21 N2          2.5450   -1.0040    3.1440 n4        1 KSG     -0.729600
     22 C13         2.3690   -2.3420    3.9850 c1        1 KSG      0.210600
     23 N3          3.1420   -3.3010    4.0200 n1        1 KSG     -0.829200
     24 C14         0.7550   -1.7940    5.7310 c1        1 KSG      0.928000
     25 O8          1.1030   -2.6400    6.4860 o         1 KSG     -0.477500
     26 O9          0.2880   -0.8960    5.0850 o         1 KSG     -0.477500
     27 H1         -0.6430   -0.3300   -1.0920 h2        1 KSG      0.129700
     28 H2          0.0610    2.0130   -1.1850 h1        1 KSG      0.092700
     29 H3         -0.9060    3.3420    1.4780 h1        1 KSG      0.084200
     30 HO2         1.6090    3.4910    0.2070 ho        1 KSG      0.436500
     31 H4         -0.3610    5.5180    0.4130 h1        1 KSG      0.073200
     32 HO3         0.1490    5.3690   -1.9160 ho        1 KSG      0.440000
     33 H5         -2.7160    4.7700    0.0490 h1        1 KSG      0.071700
     34 HO4        -2.2260    6.5910   -1.1350 ho        1 KSG      0.425000
     35 H6         -1.6140    3.4430   -2.5550 h1        1 KSG      0.073200
     36 HO5        -3.7900    4.2690   -2.5710 ho        1 KSG      0.440000
     37 H7         -2.8210    2.1750    0.0460 h1        1 KSG      0.084200
     38 HO6        -3.1410    1.1810   -2.1190 ho        1 KSG      0.436500
     39 H8          1.6900    1.0240    1.3260 h1        1 KSG      0.110700
     40 H91         3.8500   -0.9360    0.2220 hc        1 KSG      0.063033
     41 H92         4.0800    0.5960    1.1800 hc        1 KSG      0.063033
     42 H93         3.5070    0.6700   -0.5380 hc        1 KSG      0.063033
     43 H10         2.1020   -2.0800    1.4060 hx        1 KSG      0.056700
     44 H111        0.0660   -2.0510    2.9240 hc        1 KSG      0.124200
     45 H112       -0.0850   -0.2650    2.7130 hc        1 KSG      0.124200
     46 H12        -1.6700   -1.2350    1.1870 hx        1 KSG      0.134700
     47 HN11        0.5470   -2.7230   -0.1460 hn        1 KSG      0.463800
     48 HN12       -0.4760   -3.4240    0.9770 hn        1 KSG      0.463800
     49 HN2         3.4940   -0.7090    2.9130 hn        1 KSG      0.397800
     50 HN3         4.0150   -3.5070    3.6110 hn        1 KSG      0.342400
     51 H13        -1.0910   -2.8120   -0.4570 hn        1 KSG      0.463800
     52 H22         2.1230   -0.2930    3.7440 hn        1 KSG      0.397800
@<TRIPOS>BOND
     1    1    2 1   
     2    1   14 1   
     3    1   19 1   
     4    1   27 1   
     5    2    3 1   
     6    3    4 1   
     7    3   12 1   
     8    3   28 1   
     9    4    5 1   
    10    4    6 1   
    11    4   29 1   
    12    5   30 1   
    13    6    7 1   
    14    6    8 1   
    15    6   31 1   
    16    7   32 1   
    17    8    9 1   
    18    8   10 1   
    19    8   33 1   
    20    9   34 1   
    21   10   11 1   
    22   10   12 1   
    23   10   35 1   
    24   11   36 1   
    25   12   13 1   
    26   12   37 1   
    27   13   38 1   
    28   14   15 1   
    29   15   16 1   
    30   15   17 1   
    31   15   39 1   
    32   16   40 1   
    33   16   41 1   
    34   16   42 1   
    35   17   18 1   
    36   17   21 1   
    37   17   43 1   
    38   18   19 1   
    39   18   44 1   
    40   18   45 1   
    41   19   20 1   
    42   19   46 1   
    43   20   47 1   
    44   20   48 1   
    45   20   51 1   
    46   21   22 1   
    47   21   49 1   
    48   21   52 1   
    49   22   23 3   
    50   23   50 1   
    51   24   25 2   
    52   24   26 2   
@<TRIPOS>SUBSTRUCTURE
     1 KSG         1 TEMP              0 ****  ****    0 ROOT
