@<TRIPOS>MOLECULE
KSG
   50    51     1     0     0
SMALL
bcc


@<TRIPOS>ATOM
      1 C1         -4.0210    2.0030    0.5470 c3        1 KSG      0.286900
      2 O1         -4.4230    0.6980    0.1450 os        1 KSG     -0.448600
      3 C2         -3.5950    0.0910   -0.8430 c3        1 KSG      0.118100
      4 C3         -4.4960   -0.9670   -1.5100 c3        1 KSG      0.122600
      5 O2         -5.5620   -0.3450   -2.2050 oh        1 KSG     -0.607300
      6 C4         -3.7390   -1.7880   -2.5630 c3        1 KSG      0.097100
      7 O3         -3.2810   -0.9880   -3.6420 oh        1 KSG     -0.618300
      8 C5         -2.5070   -2.4490   -1.9350 c3        1 KSG      0.113100
      9 O4         -1.7550   -3.1700   -2.8930 oh        1 KSG     -0.604800
     10 C6         -1.6110   -1.3980   -1.2660 c3        1 KSG      0.097100
     11 O5         -0.5230   -2.0170   -0.5960 oh        1 KSG     -0.618300
     12 C7         -2.3810   -0.6000   -0.2000 c3        1 KSG      0.122600
     13 O6         -1.5380    0.4080    0.3340 oh        1 KSG     -0.607300
     14 O7         -4.3330    2.8730   -0.5090 os        1 KSG     -0.451600
     15 C8         -5.7260    3.0990   -0.7720 c3        1 KSG      0.146100
     16 C9         -5.7590    4.1300   -1.8830 c3        1 KSG     -0.083100
     17 C10        -6.4610    3.5840    0.5040 c3        1 KSG      0.166500
     18 C11        -6.2380    2.5340    1.6050 c3        1 KSG     -0.119400
     19 C12        -4.7530    2.3070    1.8860 c3        1 KSG      0.161500
     20 N1         -4.1370    3.3780    2.6400 n3        1 KSG     -0.899800
     21 N2         -7.8490    3.8690    0.2170 nh        1 KSG     -0.839200
     22 C13        -8.6610    4.5110    1.2020 ce        1 KSG      0.520200
     23 N3         -8.2940    5.2880    2.1640 n2        1 KSG     -0.839100
     24 C14       -10.1930    4.1840    0.9740 c         1 KSG      0.853300
     25 O8        -10.4690    2.9560    1.0090 o         1 KSG     -0.801800
     26 O9        -10.9680    5.1360    0.7420 o         1 KSG     -0.801800
     27 H1         -2.8980    2.0720    0.6430 h2        1 KSG      0.092700
     28 H2         -3.2570    0.8560   -1.5940 h1        1 KSG      0.088700
     29 H3         -4.9080   -1.6550   -0.7190 h1        1 KSG      0.058700
     30 HO2        -6.0210    0.2180   -1.5650 ho        1 KSG      0.429500
     31 H4         -4.4280   -2.5800   -2.9740 h1        1 KSG      0.065700
     32 HO3        -4.0140   -0.4070   -3.8910 ho        1 KSG      0.430000
     33 H5         -2.8290   -3.2230   -1.1820 h1        1 KSG      0.088700
     34 HO4        -1.6350   -2.5920   -3.6590 ho        1 KSG      0.423000
     35 H6         -1.2100   -0.6940   -2.0490 h1        1 KSG      0.065700
     36 HO5        -0.1640   -2.6780   -1.2040 ho        1 KSG      0.430000
     37 H7         -2.7160   -1.2840    0.6280 h1        1 KSG      0.058700
     38 HO6        -0.7480   -0.0400    0.6640 ho        1 KSG      0.429500
     39 H8         -6.1770    2.1280   -1.1210 h1        1 KSG      0.030700
     40 H91        -6.8070    4.2490   -2.2480 hc        1 KSG      0.046033
     41 H92        -5.3910    5.1150   -1.5100 hc        1 KSG      0.046033
     42 H93        -5.1070    3.8030   -2.7280 hc        1 KSG      0.046033
     43 H10        -5.9700    4.5520    0.8200 h1        1 KSG      0.053700
     44 H111       -6.7660    2.8500    2.5420 hc        1 KSG      0.071700
     45 H112       -6.6750    1.5530    1.2800 hc        1 KSG      0.071700
     46 H12        -4.6530    1.3750    2.5200 h1        1 KSG      0.070700
     47 HN11       -4.4310    4.2740    2.3020 hn        1 KSG      0.349800
     48 HN12       -3.1390    3.3200    2.5850 hn        1 KSG      0.349800
     49 HN2        -8.3260    3.0740   -0.1670 hn        1 KSG      0.404800
     50 HN3        -7.3090    5.4180    2.2840 hn        1 KSG      0.331400
@<TRIPOS>BOND
     1    1    2 1   
     2    1   14 1   
     3    1   19 1   
     4    1   27 1   
     5    2    3 1   
     6    3    4 1   
     7    3   12 1   
     8    3   28 1   
     9    4    5 1   
    10    4    6 1   
    11    4   29 1   
    12    5   30 1   
    13    6    7 1   
    14    6    8 1   
    15    6   31 1   
    16    7   32 1   
    17    8    9 1   
    18    8   10 1   
    19    8   33 1   
    20    9   34 1   
    21   10   11 1   
    22   10   12 1   
    23   10   35 1   
    24   11   36 1   
    25   12   13 1   
    26   12   37 1   
    27   13   38 1   
    28   14   15 1   
    29   15   16 1   
    30   15   17 1   
    31   15   39 1   
    32   16   40 1   
    33   16   41 1   
    34   16   42 1   
    35   17   18 1   
    36   17   21 1   
    37   17   43 1   
    38   18   19 1   
    39   18   44 1   
    40   18   45 1   
    41   19   20 1   
    42   19   46 1   
    43   20   47 1   
    44   20   48 1   
    45   21   22 1   
    46   21   49 1   
    47   22   23 2   
    48   22   24 1   
    49   23   50 1   
    50   24   25 1   
    51   24   26 1   
@<TRIPOS>SUBSTRUCTURE
     1 KSG         1 TEMP              0 ****  ****    0 ROOT
