@<TRIPOS>MOLECULE
KSG
   50    50     1     0     0
SMALL
bcc


@<TRIPOS>ATOM
      1 C1          0.1130   -0.8270   -0.5470 c3        1 KSG      0.322900
      2 O1         -0.3560    0.4070   -0.1000 os        1 KSG     -0.437600
      3 C2         -0.7210    1.2100   -1.2170 c3        1 KSG      0.123100
      4 C3         -0.1630    2.6130   -1.0190 c3        1 KSG      0.142600
      5 O2          1.2490    2.5550   -1.0730 oh        1 KSG     -0.582800
      6 C4         -0.6570    3.5930   -2.0790 c3        1 KSG      0.095100
      7 O3         -0.0830    3.2470   -3.3230 oh        1 KSG     -0.601300
      8 C5         -2.1730    3.5840   -2.2180 c3        1 KSG      0.067100
      9 O4         -2.5350    4.3830   -3.3310 oh        1 KSG     -0.614800
     10 C6         -2.7310    2.1820   -2.4160 c3        1 KSG      0.095100
     11 O5         -4.1440    2.2400   -2.3620 oh        1 KSG     -0.601300
     12 C7         -2.2360    1.2010   -1.3550 c3        1 KSG      0.142600
     13 O6         -2.6550   -0.1020   -1.7070 oh        1 KSG     -0.582800
     14 O7          1.5640   -0.8520   -0.4240 os        1 KSG     -0.454600
     15 C8          2.0160   -0.8760    0.9620 c3        1 KSG      0.133100
     16 C9          3.4970   -1.0810    0.9850 c3        1 KSG     -0.082100
     17 C10         1.3510   -1.9830    1.7740 c3        1 KSG      0.176500
     18 C11        -0.1130   -1.9580    1.6580 c3        1 KSG     -0.154400
     19 C12        -0.5610   -1.9340    0.2580 c3        1 KSG      0.166500
     20 N1         -0.2520   -3.2180   -0.3570 n3        1 KSG     -0.905800
     21 N2          1.7170   -1.8230    3.1790 nh        1 KSG     -0.765000
     22 C13         1.8340   -2.9810    4.0310 ce        1 KSG      0.086800
     23 N3          1.1030   -3.0730    5.1140 n1        1 KSG     -0.317000
     24 C14         2.8030   -4.0920    3.6720 c         1 KSG      0.946800
     25 O8          2.3650   -5.2070    3.2910 o         1 KSG     -0.811300
     26 O9          4.0420   -3.9280    3.8500 o         1 KSG     -0.811300
     27 H1         -0.1260   -0.9330   -1.4940 h2        1 KSG      0.098700
     28 H2         -0.3270    0.8230   -2.0280 h1        1 KSG      0.088700
     29 H3         -0.4320    2.9390   -0.1380 h1        1 KSG      0.072200
     30 HO2         1.5930    3.2370   -0.6150 ho        1 KSG      0.418000
     31 H4         -0.3680    4.4910   -1.8370 h1        1 KSG      0.057200
     32 HO3         0.2610    3.9770   -3.7040 ho        1 KSG      0.413500
     33 H5         -2.5670    3.9690   -1.4100 h1        1 KSG      0.060700
     34 HO4        -2.9260    5.1310   -3.0460 ho        1 KSG      0.407000
     35 H6         -2.4610    1.8570   -3.2980 h1        1 KSG      0.057200
     36 HO5        -4.4730    2.2570   -3.1900 ho        1 KSG      0.413500
     37 H7         -2.6340    1.4400   -0.4920 h1        1 KSG      0.072200
     38 HO6        -3.5400   -0.1180   -1.7840 ho        1 KSG      0.418000
     39 H8          1.8100   -0.0150    1.3750 h1        1 KSG      0.044700
     40 H91         3.7010   -2.0210    0.7860 hc        1 KSG      0.041367
     41 H92         3.9170   -0.5060    0.3110 hc        1 KSG      0.041367
     42 H93         3.8450   -0.8530    1.8720 hc        1 KSG      0.041367
     43 H10         1.6780   -2.8450    1.4590 h1        1 KSG      0.102700
     44 H111       -0.4530   -1.1610    2.1140 hc        1 KSG      0.069200
     45 H112       -0.4780   -2.7520    2.0940 hc        1 KSG      0.069200
     46 H12        -1.5270   -1.7960    0.2370 h1        1 KSG      0.059700
     47 HN11       -0.8270   -3.8560   -0.0370 hn        1 KSG      0.369800
     48 HN12       -0.3450   -3.1520   -1.2680 hn        1 KSG      0.369800
     49 HN2         1.8810   -0.9880    3.5170 hn        1 KSG      0.349800
     50 HN3         0.5220   -2.4070    5.3290 DU        1 KSG      0.087000
@<TRIPOS>BOND
     1    1    2 1   
     2    1   14 1   
     3    1   19 1   
     4    1   27 1   
     5    2    3 1   
     6    3    4 1   
     7    3   12 1   
     8    3   28 1   
     9    4    5 1   
    10    4    6 1   
    11    4   29 1   
    12    5   30 1   
    13    6    7 1   
    14    6    8 1   
    15    6   31 1   
    16    7   32 1   
    17    8    9 1   
    18    8   10 1   
    19    8   33 1   
    20    9   34 1   
    21   10   11 1   
    22   10   12 1   
    23   10   35 1   
    24   11   36 1   
    25   12   13 1   
    26   12   37 1   
    27   13   38 1   
    28   14   15 1   
    29   15   16 1   
    30   15   17 1   
    31   15   39 1   
    32   16   40 1   
    33   16   41 1   
    34   16   42 1   
    35   17   18 1   
    36   17   21 1   
    37   17   43 1   
    38   18   19 1   
    39   18   44 1   
    40   18   45 1   
    41   19   20 1   
    42   19   46 1   
    43   20   47 1   
    44   20   48 1   
    45   21   22 1   
    46   21   49 1   
    47   22   23 2   
    48   22   24 1   
    49   24   25 1   
    50   24   26 1   
@<TRIPOS>SUBSTRUCTURE
     1 KSG         1 TEMP              0 ****  ****    0 ROOT
