@<TRIPOS>MOLECULE
KSG
   52    52     1     0     0
SMALL
bcc


@<TRIPOS>ATOM
      1 C1         -0.1670   -0.2180   -0.0760 c3        1 KSG      0.318900
      2 O1         -0.5200    0.9840    0.5620 os        1 KSG     -0.420600
      3 C2         -0.6570    2.1060   -0.3260 c3        1 KSG      0.112100
      4 C3         -0.3100    3.3390    0.5310 c3        1 KSG      0.142600
      5 O2          1.0310    3.2600    0.9650 oh        1 KSG     -0.613800
      6 C4         -0.5630    4.6320   -0.2600 c3        1 KSG      0.098600
      7 O3          0.3920    4.6570   -1.3090 oh        1 KSG     -0.609800
      8 C5         -1.9970    4.6850   -0.8050 c3        1 KSG      0.073100
      9 O4         -2.1250    5.7950   -1.6820 oh        1 KSG     -0.601800
     10 C6         -2.2980    3.4470   -1.6640 c3        1 KSG      0.098600
     11 O5         -3.6490    3.4370   -2.0880 oh        1 KSG     -0.609800
     12 C7         -2.1050    2.1710   -0.8310 c3        1 KSG      0.142600
     13 O6         -2.3250    1.0120   -1.6220 oh        1 KSG     -0.613800
     14 O7          1.2270   -0.2250   -0.2820 os        1 KSG     -0.442600
     15 C8          2.0120    0.0400    0.8940 c3        1 KSG      0.104100
     16 C9          3.4510    0.1020    0.4250 c3        1 KSG     -0.108100
     17 C10         1.7640   -1.1130    1.8980 c3        1 KSG      0.112500
     18 C11         0.2610   -1.2130    2.1980 c3        1 KSG     -0.117400
     19 C12        -0.5660   -1.3470    0.9250 c3        1 KSG      0.091500
     20 N1         -0.3730   -2.6830    0.2680 n4        1 KSG     -0.838600
     21 N2          2.5430   -0.9970    3.1500 n4        1 KSG     -0.729600
     22 C13         2.3700   -2.3370    3.9880 c1        1 KSG      0.210600
     23 N3          3.1470   -3.2930    4.0240 n1        1 KSG     -0.829200
     24 C14         0.7470   -1.7980    5.7290 c1        1 KSG      0.928000
     25 O8          1.0990   -2.6420    6.4860 o         1 KSG     -0.477500
     26 O9          0.2780   -0.9030    5.0820 o         1 KSG     -0.477500
     27 H1         -0.6320   -0.3320   -1.0970 h2        1 KSG      0.129700
     28 H2          0.0620    2.0140   -1.1850 h1        1 KSG      0.092700
     29 H3         -0.9220    3.3350    1.4770 h1        1 KSG      0.084200
     30 HO2         1.5980    3.4980    0.2170 ho        1 KSG      0.436500
     31 H4         -0.3830    5.5150    0.4170 h1        1 KSG      0.073200
     32 HO3         0.1380    5.3730   -1.9100 ho        1 KSG      0.440000
     33 H5         -2.7320    4.7570    0.0420 h1        1 KSG      0.071700
     34 HO4        -2.2460    6.5820   -1.1370 ho        1 KSG      0.425000
     35 H6         -1.6140    3.4390   -2.5590 h1        1 KSG      0.073200
     36 HO5        -3.7930    4.2560   -2.5830 ho        1 KSG      0.440000
     37 H7         -2.8260    2.1620    0.0340 h1        1 KSG      0.084200
     38 HO6        -3.1320    1.1700   -2.1330 ho        1 KSG      0.436500
     39 H8          1.6850    1.0290    1.3310 h1        1 KSG      0.110700
     40 H91         3.8580   -0.9190    0.2330 hc        1 KSG      0.063033
     41 H92         3.5110    0.6860   -0.5260 hc        1 KSG      0.063033
     42 H93         4.0780    0.6130    1.1940 hc        1 KSG      0.063033
     43 H10         2.1110   -2.0730    1.4090 hx        1 KSG      0.056700
     44 H111        0.0690   -2.0550    2.9190 hc        1 KSG      0.124200
     45 H112       -0.0890   -0.2690    2.7100 hc        1 KSG      0.124200
     46 H12        -1.6640   -1.2440    1.1760 hx        1 KSG      0.134700
     47 HN11        0.5650   -2.7200   -0.1500 hn        1 KSG      0.463800
     48 HN12       -0.4590   -3.4280    0.9680 hn        1 KSG      0.463800
     49 HN2         3.4910   -0.6970    2.9230 hn        1 KSG      0.397800
     50 HN3         4.0210   -3.4950    3.6170 hn        1 KSG      0.342400
     51 H13        -1.0720   -2.8170   -0.4680 hn        1 KSG      0.463800
     52 H22         2.1150   -0.2890    3.7490 hn        1 KSG      0.397800
@<TRIPOS>BOND
     1    1    2 1   
     2    1   14 1   
     3    1   19 1   
     4    1   27 1   
     5    2    3 1   
     6    3    4 1   
     7    3   12 1   
     8    3   28 1   
     9    4    5 1   
    10    4    6 1   
    11    4   29 1   
    12    5   30 1   
    13    6    7 1   
    14    6    8 1   
    15    6   31 1   
    16    7   32 1   
    17    8    9 1   
    18    8   10 1   
    19    8   33 1   
    20    9   34 1   
    21   10   11 1   
    22   10   12 1   
    23   10   35 1   
    24   11   36 1   
    25   12   13 1   
    26   12   37 1   
    27   13   38 1   
    28   14   15 1   
    29   15   16 1   
    30   15   17 1   
    31   15   39 1   
    32   16   40 1   
    33   16   41 1   
    34   16   42 1   
    35   17   18 1   
    36   17   21 1   
    37   17   43 1   
    38   18   19 1   
    39   18   44 1   
    40   18   45 1   
    41   19   20 1   
    42   19   46 1   
    43   20   47 1   
    44   20   48 1   
    45   20   51 1   
    46   21   22 1   
    47   21   49 1   
    48   21   52 1   
    49   22   23 3   
    50   23   50 1   
    51   24   25 2   
    52   24   26 2   
@<TRIPOS>SUBSTRUCTURE
     1 KSG         1 TEMP              0 ****  ****    0 ROOT
