@<TRIPOS>MOLECULE
KSG
   52    52     1     0     0
SMALL
bcc


@<TRIPOS>ATOM
      1 C1         -0.1650   -0.2150   -0.0790 c3        1 KSG      0.318900
      2 O1         -0.5200    0.9840    0.5620 os        1 KSG     -0.420600
      3 C2         -0.6570    2.1080   -0.3230 c3        1 KSG      0.112100
      4 C3         -0.3110    3.3390    0.5380 c3        1 KSG      0.142600
      5 O2          1.0290    3.2600    0.9740 oh        1 KSG     -0.613800
      6 C4         -0.5640    4.6350   -0.2500 c3        1 KSG      0.098600
      7 O3          0.3930    4.6630   -1.2980 oh        1 KSG     -0.609800
      8 C5         -1.9970    4.6890   -0.7970 c3        1 KSG      0.073100
      9 O4         -2.1240    5.8010   -1.6710 oh        1 KSG     -0.601800
     10 C6         -2.2960    3.4530   -1.6600 c3        1 KSG      0.098600
     11 O5         -3.6460    3.4430   -2.0860 oh        1 KSG     -0.609800
     12 C7         -2.1040    2.1750   -0.8300 c3        1 KSG      0.142600
     13 O6         -2.3220    1.0180   -1.6250 oh        1 KSG     -0.613800
     14 O7          1.2290   -0.2210   -0.2830 os        1 KSG     -0.442600
     15 C8          2.0120    0.0410    0.8950 c3        1 KSG      0.104100
     16 C9          3.4520    0.1050    0.4280 c3        1 KSG     -0.108100
     17 C10         1.7630   -1.1150    1.8950 c3        1 KSG      0.112500
     18 C11         0.2600   -1.2170    2.1920 c3        1 KSG     -0.117400
     19 C12        -0.5640   -1.3470    0.9170 c3        1 KSG      0.091500
     20 N1         -0.3700   -2.6820    0.2560 nz        1 KSG     -0.838600
     21 N2          2.5410   -1.0030    3.1480 ny        1 KSG     -0.729600
     22 C13         2.3670   -2.3460    3.9810 c1        1 KSG      0.210600
     23 N3          3.1450   -3.3010    4.0160 n1        1 KSG     -0.829200
     24 C14         0.7410   -1.8140    5.7220 c1        1 KSG      0.928000
     25 O8          1.0910   -2.6610    6.4750 o         1 KSG     -0.477500
     26 O9          0.2730   -0.9160    5.0780 o         1 KSG     -0.477500
     27 H1         -0.6280   -0.3270   -1.1020 h2        1 KSG      0.129700
     28 H2          0.0640    2.0200   -1.1810 h1        1 KSG      0.092700
     29 H3         -0.9250    3.3330    1.4820 h1        1 KSG      0.084200
     30 HO2         1.5970    3.5000    0.2270 ho        1 KSG      0.436500
     31 H4         -0.3850    5.5160    0.4300 h1        1 KSG      0.073200
     32 HO3         0.1390    5.3810   -1.8970 ho        1 KSG      0.440000
     33 H5         -2.7330    4.7580    0.0490 h1        1 KSG      0.071700
     34 HO4        -2.2460    6.5860   -1.1240 ho        1 KSG      0.425000
     35 H6         -1.6110    3.4480   -2.5540 h1        1 KSG      0.073200
     36 HO5        -3.7900    4.2630   -2.5790 ho        1 KSG      0.440000
     37 H7         -2.8250    2.1630    0.0340 h1        1 KSG      0.084200
     38 HO6        -3.1280    1.1770   -2.1370 ho        1 KSG      0.436500
     39 H8          1.6840    1.0290    1.3350 h1        1 KSG      0.110700
     40 H91         4.0770    0.6150    1.2000 hc        1 KSG      0.063033
     41 H92         3.5130    0.6930   -0.5210 hc        1 KSG      0.063033
     42 H93         3.8600   -0.9150    0.2340 hc        1 KSG      0.063033
     43 H10         2.1120   -2.0730    1.4030 hx        1 KSG      0.056700
     44 H111       -0.0910   -0.2750    2.7060 hc        1 KSG      0.124200
     45 H112        0.0680   -2.0620    2.9100 hc        1 KSG      0.124200
     46 H12        -1.6630   -1.2470    1.1670 hx        1 KSG      0.134700
     47 HN11       -0.4570   -3.4280    0.9540 hn        1 KSG      0.463800
     48 HN12        0.5690   -2.7170   -0.1600 hn        1 KSG      0.463800
     49 HN2         3.4890   -0.7010    2.9230 hn        1 KSG      0.397800
     50 HN3         4.0210   -3.5000    3.6110 hn        1 KSG      0.342400
     51 H13        -1.0670   -2.8140   -0.4810 hn        1 KSG      0.463800
     52 H22         2.1110   -0.2970    3.7490 hn        1 KSG      0.397800
@<TRIPOS>BOND
     1    1    2 1   
     2    1   14 1   
     3    1   19 1   
     4    1   27 1   
     5    2    3 1   
     6    3    4 1   
     7    3   12 1   
     8    3   28 1   
     9    4    5 1   
    10    4    6 1   
    11    4   29 1   
    12    5   30 1   
    13    6    7 1   
    14    6    8 1   
    15    6   31 1   
    16    7   32 1   
    17    8    9 1   
    18    8   10 1   
    19    8   33 1   
    20    9   34 1   
    21   10   11 1   
    22   10   12 1   
    23   10   35 1   
    24   11   36 1   
    25   12   13 1   
    26   12   37 1   
    27   13   38 1   
    28   14   15 1   
    29   15   16 1   
    30   15   17 1   
    31   15   39 1   
    32   16   40 1   
    33   16   41 1   
    34   16   42 1   
    35   17   18 1   
    36   17   21 1   
    37   17   43 1   
    38   18   19 1   
    39   18   44 1   
    40   18   45 1   
    41   19   20 1   
    42   19   46 1   
    43   20   47 1   
    44   20   48 1   
    45   20   51 1   
    46   21   22 1   
    47   21   49 1   
    48   21   52 1   
    49   22   23 3   
    50   23   50 1   
    51   24   25 2   
    52   24   26 2   
@<TRIPOS>SUBSTRUCTURE
     1 KSG         1 TEMP              0 ****  ****    0 ROOT
