@<TRIPOS>MOLECULE
KSH
   62    65     1     0     0
SMALL
bcc


@<TRIPOS>ATOM
      1 N1          0.2020   -0.8170   -0.3100 na        1 KSH     -0.028800
      2 C2          1.5710   -0.5070   -0.1070 cc        1 KSH      0.381300
      3 C3          1.8510    0.1530    1.1520 cd        1 KSH     -0.366300
      4 C4          0.8640    0.4200    2.0970 cd        1 KSH      0.565600
      5 N5         -0.4580    0.0850    1.8960 nc        1 KSH     -0.774000
      6 C6         -0.7490   -0.4970    0.7370 cc        1 KSH      0.539500
      7 C7         -2.0250   -0.9610    0.2270 cd        1 KSH     -0.478800
      8 C8         -1.7070   -1.5100   -1.0890 cd        1 KSH      0.521500
      9 N9         -0.3850   -1.4070   -1.3790 nc        1 KSH     -0.478100
     10 C10        -3.2970   -0.9160    0.8260 c         1 KSH      0.613300
     11 O11        -4.3660   -1.3380    0.3670 o         1 KSH     -0.525100
     12 N12        -3.3920   -0.2900    2.1940 n4        1 KSH     -0.728400
     13 N16        -2.7040   -2.0990   -1.9770 n4        1 KSH     -0.563400
     14 C17        -3.0620   -1.2140   -3.1040 ca        1 KSH      0.017600
     15 C18        -2.2270   -1.1720   -4.2240 ca        1 KSH     -0.193500
     16 C19        -2.6240   -0.3680   -5.3140 ca        1 KSH      0.207600
     17 C20        -3.8140    0.3710   -5.2780 ca        1 KSH     -0.242000
     18 C21        -4.6170    0.3100   -4.1320 ca        1 KSH      0.207600
     19 C22        -4.2520   -0.4840   -3.0230 ca        1 KSH     -0.193500
     20 O26        -5.7920    0.9920   -3.9660 os        1 KSH     -0.309900
     21 C27        -6.2690    1.7500   -5.0820 c3        1 KSH      0.104700
     22 O31        -1.7480   -0.3820   -6.3650 os        1 KSH     -0.309900
     23 C32        -2.1320    0.3350   -7.5430 c3        1 KSH      0.104700
     24 C37         1.2410    1.1000    3.3840 c3        1 KSH     -0.151700
     25 C38         0.6970    2.5060    3.4560 c3        1 KSH     -0.095100
     26 N42         2.5310   -0.7760   -1.0140 nh        1 KSH     -0.583000
     27 C43         2.3240   -1.2490   -2.3820 c3        1 KSH      0.195800
     28 C44         3.6890   -1.2300   -3.0840 c3        1 KSH     -0.092400
     29 C45         4.7300   -0.9490   -2.0090 c3        1 KSH     -0.089400
     30 C46         3.9720   -0.6860   -0.6920 c3        1 KSH      0.168500
     31 C53         4.4290   -1.6640    0.4130 c3        1 KSH      0.112400
     32 O55         4.0110   -2.9840    0.1640 oh        1 KSH     -0.586800
     33 H3          2.8890    0.4630    1.3560 ha        1 KSH      0.195000
     34 HN12       -2.8000   -0.8040    2.8570 hn        1 KSH      0.479467
     35 HN1A       -4.3690   -0.3140    2.5150 hn        1 KSH      0.479467
     36 HN16       -3.5570   -2.2870   -1.4150 hn        1 KSH      0.490300
     37 H18        -1.2860   -1.7380   -4.2960 ha        1 KSH      0.175500
     38 H20        -4.1150    0.9890   -6.1380 ha        1 KSH      0.180000
     39 H22        -4.9190   -0.5130   -2.1460 ha        1 KSH      0.175500
     40 H27        -7.2410    2.1610   -4.7040 h1        1 KSH      0.068533
     41 H27A       -6.4350    1.0850   -5.9640 h1        1 KSH      0.068533
     42 H27B       -5.5550    2.5740   -5.3240 h1        1 KSH      0.068533
     43 H32        -1.2860    0.1260   -8.2470 h1        1 KSH      0.068533
     44 H32A       -2.2070    1.4270   -7.3240 h1        1 KSH      0.068533
     45 H32B       -3.0940   -0.0630   -7.9470 h1        1 KSH      0.068533
     46 H37         0.8530    0.4950    4.2500 hc        1 KSH      0.085700
     47 H37A        2.3610    1.1230    3.4700 hc        1 KSH      0.085700
     48 H38         1.0690    3.1260    2.6050 hc        1 KSH      0.056033
     49 H38A        1.0340    2.9830    4.4110 hc        1 KSH      0.056033
     50 H38B       -0.4190    2.5090    3.4380 hc        1 KSH      0.056033
     51 H43         1.6010   -0.5690   -2.9110 h1        1 KSH      0.080200
     52 H43A        1.9130   -2.2970   -2.3610 h1        1 KSH      0.080200
     53 H44         3.8770   -2.2130   -3.5820 hc        1 KSH      0.084200
     54 H44A        3.7070   -0.4370   -3.8740 hc        1 KSH      0.084200
     55 H45         5.4220   -1.8200   -1.8910 hc        1 KSH      0.082700
     56 H45A        5.3500   -0.0550   -2.2740 hc        1 KSH      0.082700
     57 H46         4.1840    0.3660   -0.3370 h1        1 KSH      0.087700
     58 H53         3.9580   -1.3950    1.3980 h1        1 KSH      0.074700
     59 H53A        5.5450   -1.5820    0.5010 h1        1 KSH      0.074700
     60 HO55        4.6660   -3.4050   -0.4090 ho        1 KSH      0.422000
     61 H123       -3.0670    0.6830    2.1570 hn        1 KSH      0.479467
     62 H162       -2.3420   -2.9870   -2.3600 hn        1 KSH      0.490300
@<TRIPOS>BOND
     1    1    2 1   
     2    1    6 1   
     3    1    9 1   
     4    2    3 2   
     5    2   26 1   
     6    3    4 1   
     7    3   33 1   
     8    4    5 2   
     9    4   24 1   
    10    5    6 1   
    11    6    7 2   
    12    7    8 1   
    13    7   10 1   
    14    8    9 2   
    15    8   13 1   
    16   10   11 2   
    17   10   12 1   
    18   12   34 1   
    19   12   35 1   
    20   12   61 1   
    21   13   14 1   
    22   13   36 1   
    23   13   62 1   
    24   14   15 ar  
    25   14   19 ar  
    26   15   16 ar  
    27   15   37 1   
    28   16   17 ar  
    29   16   22 1   
    30   17   18 ar  
    31   17   38 1   
    32   18   19 ar  
    33   18   20 1   
    34   19   39 1   
    35   20   21 1   
    36   21   40 1   
    37   21   41 1   
    38   21   42 1   
    39   22   23 1   
    40   23   43 1   
    41   23   44 1   
    42   23   45 1   
    43   24   25 1   
    44   24   46 1   
    45   24   47 1   
    46   25   48 1   
    47   25   49 1   
    48   25   50 1   
    49   26   27 1   
    50   26   30 1   
    51   27   28 1   
    52   27   51 1   
    53   27   52 1   
    54   28   29 1   
    55   28   53 1   
    56   28   54 1   
    57   29   30 1   
    58   29   55 1   
    59   29   56 1   
    60   30   31 1   
    61   30   57 1   
    62   31   32 1   
    63   31   58 1   
    64   31   59 1   
    65   32   60 1   
@<TRIPOS>SUBSTRUCTURE
     1 KSH         1 TEMP              0 ****  ****    0 ROOT
