@<TRIPOS>MOLECULE
KSH
   61    64     1     0     0
SMALL
bcc


@<TRIPOS>ATOM
      1 N1         -0.0530   -0.3260   -0.0490 na        1 KSH      0.021200
      2 C2          1.3400   -0.1800    0.0490 cc        1 KSH      0.363300
      3 C3          1.8590   -0.1710    1.3970 cd        1 KSH     -0.384300
      4 C4          1.0260   -0.3090    2.5090 cd        1 KSH      0.534600
      5 N5         -0.3300   -0.4580    2.4010 nc        1 KSH     -0.796000
      6 C6         -0.8260   -0.4520    1.1530 cc        1 KSH      0.516500
      7 C7         -2.1970   -0.5700    0.7090 cd        1 KSH     -0.505800
      8 C8         -2.1250   -0.5030   -0.7710 cd        1 KSH      0.724500
      9 N9         -0.8200   -0.3440   -1.1790 nc        1 KSH     -0.631100
     10 C10        -3.3660   -0.7120    1.4610 c         1 KSH      0.613300
     11 O11        -4.5490   -0.7820    1.1150 o         1 KSH     -0.527100
     12 N12        -3.1800   -0.7970    2.9730 n4        1 KSH     -0.743400
     13 N16        -3.2310   -0.6230   -1.5620 nh        1 KSH     -0.668600
     14 C17        -3.2470   -0.4680   -2.9690 ca        1 KSH      0.184600
     15 C18        -2.2410   -1.0100   -3.7850 ca        1 KSH     -0.213000
     16 C19        -2.3410   -0.8590   -5.1790 ca        1 KSH      0.183100
     17 C20        -3.4210   -0.2010   -5.7760 ca        1 KSH     -0.280000
     18 C21        -4.4180    0.3200   -4.9420 ca        1 KSH      0.183100
     19 C22        -4.3460    0.2020   -3.5460 ca        1 KSH     -0.213000
     20 O26        -5.5340    0.9890   -5.3960 os        1 KSH     -0.323400
     21 C27        -5.6680    1.1230   -6.8080 c3        1 KSH      0.110700
     22 O31        -1.2900   -1.4100   -5.8810 os        1 KSH     -0.323400
     23 C32        -1.3940   -1.3880   -7.3020 c3        1 KSH      0.110700
     24 C37         1.6390   -0.2910    3.8830 c3        1 KSH     -0.143700
     25 C38         1.3160    0.9860    4.6200 c3        1 KSH     -0.092100
     26 N42         2.1470   -0.0350   -1.0340 nh        1 KSH     -0.618000
     27 C43         1.7100    0.1570   -2.4150 c3        1 KSH      0.209800
     28 C44         2.9620    0.4590   -3.2500 c3        1 KSH     -0.089400
     29 C45         4.1620    0.2430   -2.3380 c3        1 KSH     -0.081400
     30 C46         3.6110   -0.1180   -0.9410 c3        1 KSH      0.218500
     31 C53         4.1520   -1.4880   -0.4870 c3        1 KSH      0.111400
     32 O55         3.7790   -2.4590   -1.4450 oh        1 KSH     -0.592800
     33 H3          2.9390   -0.0330    1.5470 ha        1 KSH      0.175000
     34 HN12       -2.7360    0.0580    3.3160 hn        1 KSH      0.460800
     35 HN1A       -4.0940   -0.9150    3.4210 hn        1 KSH      0.460800
     36 HN16       -4.1180   -0.5810   -1.0990 hn        1 KSH      0.473800
     37 H18        -1.3820   -1.5620   -3.3780 ha        1 KSH      0.162000
     38 H20        -3.4870   -0.0950   -6.8670 ha        1 KSH      0.155000
     39 H22        -5.1540    0.6310   -2.9360 ha        1 KSH      0.162000
     40 H27        -6.6360    1.6760   -6.9210 h1        1 KSH      0.051700
     41 H27A       -5.7280    0.1190   -7.2950 h1        1 KSH      0.051700
     42 H27B       -4.8220    1.7170   -7.2280 h1        1 KSH      0.051700
     43 H32        -1.3890   -0.3370   -7.6790 h1        1 KSH      0.051700
     44 H32A       -2.3130   -1.9250   -7.6400 h1        1 KSH      0.051700
     45 H32B       -0.4730   -1.9320   -7.6350 h1        1 KSH      0.051700
     46 H37         2.7520   -0.4000    3.7860 hc        1 KSH      0.070200
     47 H37A        1.2670   -1.1740    4.4700 hc        1 KSH      0.070200
     48 H38         1.8170    0.9780    5.6180 hc        1 KSH      0.048367
     49 H38A        1.6770    1.8770    4.0510 hc        1 KSH      0.048367
     50 H38B        0.2160    1.0900    4.7780 hc        1 KSH      0.048367
     51 H43         0.9880    1.0170   -2.4660 h1        1 KSH      0.084700
     52 H43A        1.2060   -0.7770   -2.7900 h1        1 KSH      0.084700
     53 H44         2.9310    1.5110   -3.6290 hc        1 KSH      0.071200
     54 H44A        3.0030   -0.2250   -4.1340 hc        1 KSH      0.071200
     55 H45         4.7870    1.1670   -2.2680 hc        1 KSH      0.073700
     56 H45A        4.8030   -0.5890   -2.7220 hc        1 KSH      0.073700
     57 H46         3.9600    0.6450   -0.1830 h1        1 KSH      0.069700
     58 H53         3.7370   -1.7720    0.5180 h1        1 KSH      0.041200
     59 H53A        5.2710   -1.4080   -0.4160 h1        1 KSH      0.041200
     60 HO55        4.2540   -3.2700   -1.2210 ho        1 KSH      0.419000
     61 H123       -2.5780   -1.5920    3.2030 hn        1 KSH      0.460800
@<TRIPOS>BOND
     1    1    2 1   
     2    1    6 1   
     3    1    9 1   
     4    2    3 2   
     5    2   26 1   
     6    3    4 1   
     7    3   33 1   
     8    4    5 2   
     9    4   24 1   
    10    5    6 1   
    11    6    7 2   
    12    7    8 1   
    13    7   10 1   
    14    8    9 2   
    15    8   13 1   
    16   10   11 2   
    17   10   12 1   
    18   12   34 1   
    19   12   35 1   
    20   12   61 1   
    21   13   14 1   
    22   13   36 1   
    23   14   15 ar  
    24   14   19 ar  
    25   15   16 ar  
    26   15   37 1   
    27   16   17 ar  
    28   16   22 1   
    29   17   18 ar  
    30   17   38 1   
    31   18   19 ar  
    32   18   20 1   
    33   19   39 1   
    34   20   21 1   
    35   21   40 1   
    36   21   41 1   
    37   21   42 1   
    38   22   23 1   
    39   23   43 1   
    40   23   44 1   
    41   23   45 1   
    42   24   25 1   
    43   24   46 1   
    44   24   47 1   
    45   25   48 1   
    46   25   49 1   
    47   25   50 1   
    48   26   27 1   
    49   26   30 1   
    50   27   28 1   
    51   27   51 1   
    52   27   52 1   
    53   28   29 1   
    54   28   53 1   
    55   28   54 1   
    56   29   30 1   
    57   29   55 1   
    58   29   56 1   
    59   30   31 1   
    60   30   57 1   
    61   31   32 1   
    62   31   58 1   
    63   31   59 1   
    64   32   60 1   
@<TRIPOS>SUBSTRUCTURE
     1 KSH         1 TEMP              0 ****  ****    0 ROOT
