@<TRIPOS>MOLECULE
KSH
   60    63     1     0     0
SMALL
bcc


@<TRIPOS>ATOM
      1 N1          1.4660    0.1660    0.0110 na        1 KSH      0.022200
      2 C2          2.3620   -0.8980   -0.1860 cc        1 KSH      0.319300
      3 C3          3.7290   -0.5490   -0.2610 cd        1 KSH     -0.422300
      4 C4          4.1570    0.8030   -0.1190 cd        1 KSH      0.509600
      5 N5          3.3130    1.8200    0.0830 nc        1 KSH     -0.714000
      6 C6          1.9820    1.5110    0.1480 cc        1 KSH      0.472500
      7 C7          0.8420    2.3340    0.3470 cd        1 KSH     -0.405800
      8 C8         -0.3030    1.4140    0.3340 cd        1 KSH      0.673500
      9 N9          0.1200    0.1150    0.1230 nc        1 KSH     -0.644100
     10 C10         0.7610    3.7800    0.4980 c         1 KSH      0.726300
     11 O11        -0.3430    4.3850    0.5000 o         1 KSH     -0.674100
     12 N12         1.9090    4.5150    0.6470 n         1 KSH     -0.662000
     13 N16        -1.5990    1.8300    0.5450 nh        1 KSH     -0.678600
     14 C17        -2.7490    1.0450    0.3670 ca        1 KSH      0.218600
     15 C18        -2.7980   -0.3200    0.7090 ca        1 KSH     -0.224000
     16 C19        -4.0030   -1.0230    0.5530 ca        1 KSH      0.175100
     17 C20        -5.1690   -0.4100    0.0860 ca        1 KSH     -0.300000
     18 C21        -5.1040    0.9530   -0.2330 ca        1 KSH      0.175100
     19 C22        -3.9190    1.6860   -0.1060 ca        1 KSH     -0.224000
     20 O26        -6.1790    1.6850   -0.7010 os        1 KSH     -0.326900
     21 C27        -7.4080    0.9850   -0.8430 c3        1 KSH      0.114700
     22 O31        -3.9240   -2.3600    0.9010 os        1 KSH     -0.326900
     23 C32        -5.1410   -3.0950    0.8570 c3        1 KSH      0.114700
     24 C37         5.6410    1.0320   -0.2070 c3        1 KSH     -0.135700
     25 C38         6.0740    2.4730   -0.1570 c3        1 KSH     -0.087100
     26 N42         1.9210   -2.2180   -0.2120 nh        1 KSH     -0.657000
     27 C43         0.6010   -2.5930   -0.7120 c3        1 KSH      0.202800
     28 C44         0.6770   -4.0400   -1.2200 c3        1 KSH     -0.094400
     29 C45         2.0940   -4.5210   -0.9460 c3        1 KSH     -0.089400
     30 C46         2.8870   -3.3020   -0.4300 c3        1 KSH      0.170500
     31 C53         3.6790   -3.6670    0.8410 c3        1 KSH      0.126400
     32 O55         2.8890   -4.2820    1.8330 oh        1 KSH     -0.592800
     33 H3          4.4930   -1.3180   -0.4240 ha        1 KSH      0.157000
     34 HN12        2.8050    4.1040    0.6390 hn        1 KSH      0.319500
     35 HN1A        1.8320    5.4970    0.7300 hn        1 KSH      0.319500
     36 HN16       -1.7270    2.8290    0.5090 hn        1 KSH      0.486800
     37 H18        -1.9280   -0.8600    1.1080 ha        1 KSH      0.164000
     38 H20        -6.1020   -0.9740   -0.0260 ha        1 KSH      0.142000
     39 H22        -3.9230    2.7530   -0.3730 ha        1 KSH      0.164000
     40 H27        -7.7530    0.5870    0.1430 h1        1 KSH      0.043533
     41 H27A       -8.1120    1.7700   -1.2200 h1        1 KSH      0.043533
     42 H27B       -7.3080    0.1570   -1.5860 h1        1 KSH      0.043533
     43 H32        -5.9040   -2.6420    1.5360 h1        1 KSH      0.043533
     44 H32A       -5.5300   -3.1500   -0.1890 h1        1 KSH      0.043533
     45 H32B       -4.8430   -4.1120    1.2210 h1        1 KSH      0.043533
     46 H37         6.1160    0.4660    0.6400 hc        1 KSH      0.059700
     47 H37A        5.9970    0.5670   -1.1670 hc        1 KSH      0.059700
     48 H38         5.6210    3.0570   -0.9950 hc        1 KSH      0.043367
     49 H38A        5.7710    2.9500    0.8060 hc        1 KSH      0.043367
     50 H38B        7.1870    2.5320   -0.2450 hc        1 KSH      0.043367
     51 H43        -0.1360   -2.5090    0.1350 h1        1 KSH      0.073700
     52 H43A        0.2690   -1.9140   -1.5440 h1        1 KSH      0.073700
     53 H44        -0.0730   -4.6750   -0.6880 hc        1 KSH      0.058700
     54 H44A        0.4440   -4.0780   -2.3120 hc        1 KSH      0.058700
     55 H45         2.0950   -5.3310   -0.1720 hc        1 KSH      0.066700
     56 H45A        2.5750   -4.9220   -1.8710 hc        1 KSH      0.066700
     57 H46         3.6390   -2.9980   -1.2180 h1        1 KSH      0.053700
     58 H53         4.4470   -4.4420    0.5690 h1        1 KSH      0.054700
     59 H53A        4.1900   -2.7580    1.2580 h1        1 KSH      0.054700
     60 HO55        2.2080   -3.6510    2.0980 ho        1 KSH      0.414000
@<TRIPOS>BOND
     1    1    2 1   
     2    1    6 1   
     3    1    9 1   
     4    2    3 2   
     5    2   26 1   
     6    3    4 1   
     7    3   33 1   
     8    4    5 2   
     9    4   24 1   
    10    5    6 1   
    11    6    7 2   
    12    7    8 1   
    13    7   10 1   
    14    8    9 2   
    15    8   13 1   
    16   10   11 2   
    17   10   12 1   
    18   12   34 1   
    19   12   35 1   
    20   13   14 1   
    21   13   36 1   
    22   14   15 ar  
    23   14   19 ar  
    24   15   16 ar  
    25   15   37 1   
    26   16   17 ar  
    27   16   22 1   
    28   17   18 ar  
    29   17   38 1   
    30   18   19 ar  
    31   18   20 1   
    32   19   39 1   
    33   20   21 1   
    34   21   40 1   
    35   21   41 1   
    36   21   42 1   
    37   22   23 1   
    38   23   43 1   
    39   23   44 1   
    40   23   45 1   
    41   24   25 1   
    42   24   46 1   
    43   24   47 1   
    44   25   48 1   
    45   25   49 1   
    46   25   50 1   
    47   26   27 1   
    48   26   30 1   
    49   27   28 1   
    50   27   51 1   
    51   27   52 1   
    52   28   29 1   
    53   28   53 1   
    54   28   54 1   
    55   29   30 1   
    56   29   55 1   
    57   29   56 1   
    58   30   31 1   
    59   30   57 1   
    60   31   32 1   
    61   31   58 1   
    62   31   59 1   
    63   32   60 1   
@<TRIPOS>SUBSTRUCTURE
     1 KSH         1 TEMP              0 ****  ****    0 ROOT
