@<TRIPOS>MOLECULE
KSH
   61    64     1     0     0
SMALL
bcc


@<TRIPOS>ATOM
      1 N1         -0.0530   -0.3210   -0.0490 na        1 KSH      0.021200
      2 C2          1.3400   -0.1750    0.0480 cc        1 KSH      0.363300
      3 C3          1.8600   -0.1620    1.3970 cd        1 KSH     -0.384300
      4 C4          1.0260   -0.2960    2.5090 cd        1 KSH      0.534600
      5 N5         -0.3290   -0.4450    2.4020 nc        1 KSH     -0.796000
      6 C6         -0.8260   -0.4430    1.1540 cc        1 KSH      0.516500
      7 C7         -2.1970   -0.5620    0.7100 cd        1 KSH     -0.505800
      8 C8         -2.1250   -0.4990   -0.7700 cd        1 KSH      0.724500
      9 N9         -0.8210   -0.3430   -1.1790 nc        1 KSH     -0.631100
     10 C10        -3.3650   -0.7020    1.4630 c         1 KSH      0.613300
     11 O11        -4.5490   -0.7720    1.1180 o         1 KSH     -0.527100
     12 N12        -3.1800   -0.7830    2.9750 nz        1 KSH     -0.743400
     13 N16        -3.2310   -0.6220   -1.5610 nu        1 KSH     -0.668600
     14 C17        -3.2470   -0.4720   -2.9680 ca        1 KSH      0.184600
     15 C18        -2.2420   -1.0200   -3.7820 ca        1 KSH     -0.213000
     16 C19        -2.3420   -0.8740   -5.1770 ca        1 KSH      0.183100
     17 C20        -3.4210   -0.2160   -5.7760 ca        1 KSH     -0.280000
     18 C21        -4.4170    0.3100   -4.9440 ca        1 KSH      0.183100
     19 C22        -4.3450    0.1970   -3.5470 ca        1 KSH     -0.213000
     20 O26        -5.5320    0.9790   -5.4000 os        1 KSH     -0.323400
     21 C27        -5.6660    1.1070   -6.8130 c3        1 KSH      0.110700
     22 O31        -1.2920   -1.4290   -5.8770 os        1 KSH     -0.323400
     23 C32        -1.3960   -1.4140   -7.2980 c3        1 KSH      0.110700
     24 C37         1.6390   -0.2740    3.8820 c3        1 KSH     -0.143700
     25 C38         1.3150    1.0040    4.6160 c3        1 KSH     -0.092100
     26 N42         2.1470   -0.0330   -1.0350 nh        1 KSH     -0.618000
     27 C43         1.7100    0.1550   -2.4170 c3        1 KSH      0.209800
     28 C44         2.9620    0.4540   -3.2530 c3        1 KSH     -0.089400
     29 C45         4.1610    0.2440   -2.3400 c3        1 KSH     -0.081400
     30 C46         3.6110   -0.1150   -0.9420 c3        1 KSH      0.218500
     31 C53         4.1530   -1.4830   -0.4840 c3        1 KSH      0.111400
     32 O55         3.7820   -2.4570   -1.4410 oh        1 KSH     -0.592800
     33 H3          2.9400   -0.0240    1.5460 ha        1 KSH      0.175000
     34 HN12       -2.5780   -1.5760    3.2070 hn        1 KSH      0.460800
     35 HN1A       -2.7350    0.0730    3.3160 hn        1 KSH      0.460800
     36 HN16       -4.1190   -0.5780   -1.0980 hn        1 KSH      0.473800
     37 H18        -1.3840   -1.5710   -3.3730 ha        1 KSH      0.162000
     38 H20        -3.4870   -0.1150   -6.8670 ha        1 KSH      0.155000
     39 H22        -5.1520    0.6290   -2.9390 ha        1 KSH      0.162000
     40 H27        -4.8180    1.6990   -7.2360 h1        1 KSH      0.051700
     41 H27A       -6.6320    1.6620   -6.9280 h1        1 KSH      0.051700
     42 H27B       -5.7270    0.1020   -7.2960 h1        1 KSH      0.051700
     43 H32        -0.4760   -1.9610   -7.6280 h1        1 KSH      0.051700
     44 H32A       -2.3160   -1.9510   -7.6330 h1        1 KSH      0.051700
     45 H32B       -1.3890   -0.3640   -7.6790 h1        1 KSH      0.051700
     46 H37         2.7530   -0.3820    3.7850 hc        1 KSH      0.070200
     47 H37A        1.2690   -1.1560    4.4720 hc        1 KSH      0.070200
     48 H38         0.2150    1.1080    4.7750 hc        1 KSH      0.048367
     49 H38A        1.6750    1.8950    4.0460 hc        1 KSH      0.048367
     50 H38B        1.8170    1.0000    5.6150 hc        1 KSH      0.048367
     51 H43         1.2050   -0.7810   -2.7890 h1        1 KSH      0.084700
     52 H43A        0.9870    1.0140   -2.4700 h1        1 KSH      0.084700
     53 H44         2.9290    1.5040   -3.6370 hc        1 KSH      0.071200
     54 H44A        3.0030   -0.2340   -4.1340 hc        1 KSH      0.071200
     55 H45         4.7840    1.1690   -2.2730 hc        1 KSH      0.073700
     56 H45A        4.8050   -0.5880   -2.7210 hc        1 KSH      0.073700
     57 H46         3.9600    0.6500   -0.1860 h1        1 KSH      0.069700
     58 H53         5.2710   -1.4020   -0.4130 h1        1 KSH      0.041200
     59 H53A        3.7370   -1.7650    0.5210 h1        1 KSH      0.041200
     60 HO55        4.2570   -3.2660   -1.2140 ho        1 KSH      0.419000
     61 H123       -4.0930   -0.8990    3.4230 hn        1 KSH      0.460800
@<TRIPOS>BOND
     1    1    2 1   
     2    1    6 1   
     3    1    9 1   
     4    2    3 2   
     5    2   26 1   
     6    3    4 1   
     7    3   33 1   
     8    4    5 2   
     9    4   24 1   
    10    5    6 1   
    11    6    7 2   
    12    7    8 1   
    13    7   10 1   
    14    8    9 2   
    15    8   13 1   
    16   10   11 2   
    17   10   12 1   
    18   12   34 1   
    19   12   35 1   
    20   12   61 1   
    21   13   14 1   
    22   13   36 1   
    23   14   15 ar  
    24   14   19 ar  
    25   15   16 ar  
    26   15   37 1   
    27   16   17 ar  
    28   16   22 1   
    29   17   18 ar  
    30   17   38 1   
    31   18   19 ar  
    32   18   20 1   
    33   19   39 1   
    34   20   21 1   
    35   21   40 1   
    36   21   41 1   
    37   21   42 1   
    38   22   23 1   
    39   23   43 1   
    40   23   44 1   
    41   23   45 1   
    42   24   25 1   
    43   24   46 1   
    44   24   47 1   
    45   25   48 1   
    46   25   49 1   
    47   25   50 1   
    48   26   27 1   
    49   26   30 1   
    50   27   28 1   
    51   27   51 1   
    52   27   52 1   
    53   28   29 1   
    54   28   53 1   
    55   28   54 1   
    56   29   30 1   
    57   29   55 1   
    58   29   56 1   
    59   30   31 1   
    60   30   57 1   
    61   31   32 1   
    62   31   58 1   
    63   31   59 1   
    64   32   60 1   
@<TRIPOS>SUBSTRUCTURE
     1 KSH         1 TEMP              0 ****  ****    0 ROOT
