@<TRIPOS>MOLECULE
KSK
   63    66     1     0     0
SMALL
bcc


@<TRIPOS>ATOM
      1 N1          0.0090    0.0260   -0.0730 na        1 KSK      0.060200
      2 C2          1.4050    0.0090    0.0010 cc        1 KSK      0.283300
      3 C3          1.9700   -0.0600    1.2930 cd        1 KSK     -0.354300
      4 C4          1.1450   -0.1280    2.4540 cd        1 KSK      0.588600
      5 N5         -0.2080   -0.1150    2.3800 nc        1 KSK     -0.753000
      6 C6         -0.7490   -0.0340    1.1420 cc        1 KSK      0.500500
      7 C7         -2.1240    0.0170    0.7240 cd        1 KSK     -0.490800
      8 C8         -2.0780    0.1100   -0.7560 cd        1 KSK      0.741500
      9 N9         -0.7580    0.1060   -1.1920 nc        1 KSK     -0.659100
     10 C10        -3.3000   -0.0120    1.4960 c         1 KSK      0.615300
     11 O11        -4.4790   -0.0000    1.1400 o         1 KSK     -0.487100
     12 N12        -3.1190   -0.0670    3.0040 n4        1 KSK     -0.743400
     13 N13        -3.1890    0.2000   -1.5270 nh        1 KSK     -0.651600
     14 C14        -3.2030    0.2550   -2.9450 ca        1 KSK      0.168600
     15 C15        -4.2100   -0.4600   -3.6190 ca        1 KSK     -0.209000
     16 C16        -4.2870   -0.3730   -5.0200 ca        1 KSK      0.185600
     17 C17        -3.3760    0.3940   -5.7570 ca        1 KSK     -0.269000
     18 C18        -2.3820    1.0890   -5.0610 ca        1 KSK      0.185600
     19 C19        -2.2860    1.0420   -3.6600 ca        1 KSK     -0.209000
     20 O20        -1.4070    1.8500   -5.6720 os        1 KSK     -0.326400
     21 C21        -1.6350    2.1890   -7.0400 c3        1 KSK      0.108700
     22 O22        -5.3070   -1.1090   -5.5740 os        1 KSK     -0.326400
     23 C23        -5.4910   -0.9950   -6.9850 c3        1 KSK      0.108700
     24 C24         1.8220   -0.2070    3.7620 cx        1 KSK     -0.247000
     25 C25         1.2260   -1.0040    4.9050 cx        1 KSK     -0.084900
     26 N26         2.1490   -0.0140   -1.1910 nh        1 KSK     -0.756600
     27 C27         3.5770    0.1840   -1.1290 c3        1 KSK      0.165800
     28 C28         4.2760   -0.0870   -2.4970 c3        1 KSK      0.142200
     29 N29         3.9330   -1.4840   -2.9890 n4        1 KSK     -0.841600
     30 C30         1.2480    0.4860    4.9810 cx        1 KSK     -0.084900
     31 C31         3.8500    0.9420   -3.5430 c3        1 KSK     -0.140600
     32 C32         5.7870    0.0150   -2.2670 c3        1 KSK     -0.140600
     33 H3          3.0600   -0.0480    1.4250 ha        1 KSK      0.177000
     34 HN12       -4.0410   -0.0680    3.4560 hn        1 KSK      0.468133
     35 HN1A       -2.6100   -0.9150    3.2650 hn        1 KSK      0.468133
     36 HN13       -4.0770    0.0850   -1.0740 hn        1 KSK      0.484800
     37 H15        -4.9490   -1.0780   -3.0880 ha        1 KSK      0.161000
     38 H17        -3.4460    0.4530   -6.8520 ha        1 KSK      0.162000
     39 H19        -1.5130    1.6440   -3.1650 ha        1 KSK      0.161000
     40 H21        -2.6390    2.6580   -7.1720 h1        1 KSK      0.056867
     41 H21A       -1.5340    1.2810   -7.6820 h1        1 KSK      0.056867
     42 H21B       -0.8210    2.9250   -7.2630 h1        1 KSK      0.056867
     43 H23        -6.3890   -1.6370   -7.1750 h1        1 KSK      0.056867
     44 H23A       -4.5990   -1.3910   -7.5280 h1        1 KSK      0.056867
     45 H23B       -5.6930    0.0650   -7.2710 h1        1 KSK      0.056867
     46 H24         2.9280   -0.2170    3.6580 hc        1 KSK      0.108700
     47 H25         0.2670   -1.5290    4.7540 hc        1 KSK      0.091450
     48 H25A        1.9210   -1.5910    5.5370 hc        1 KSK      0.091450
     49 HN26        1.7110    0.4530   -1.9670 hn        1 KSK      0.448800
     50 H27         4.0130   -0.5150   -0.3570 h1        1 KSK      0.090200
     51 H27A        3.8520    1.2400   -0.8340 h1        1 KSK      0.090200
     52 HN29        4.1250   -2.1680   -2.2520 hn        1 KSK      0.464800
     53 HN2A        4.5060   -1.7020   -3.8110 hn        1 KSK      0.464800
     54 H30         1.9580    0.9860    5.6680 hc        1 KSK      0.091450
     55 H30A        0.3050    1.0510    4.8860 hc        1 KSK      0.091450
     56 H31         4.0070    1.9670   -3.1220 hc        1 KSK      0.088700
     57 H31A        4.4760    0.8540   -4.4660 hc        1 KSK      0.088700
     58 H31B        2.7750    0.8420   -3.8320 hc        1 KSK      0.088700
     59 H32         6.3520   -0.1530   -3.2170 hc        1 KSK      0.088700
     60 H32A        6.0250    1.0480   -1.9060 hc        1 KSK      0.088700
     61 H32B        6.1370   -0.7150   -1.4970 hc        1 KSK      0.088700
     62 H123       -2.5850    0.7470    3.3210 hn        1 KSK      0.468133
     63 H293        2.9420   -1.5340   -3.2470 hn        1 KSK      0.464800
@<TRIPOS>BOND
     1    1    2 1   
     2    1    6 1   
     3    1    9 1   
     4    2    3 2   
     5    2   26 1   
     6    3    4 1   
     7    3   33 1   
     8    4    5 2   
     9    4   24 1   
    10    5    6 1   
    11    6    7 2   
    12    7    8 1   
    13    7   10 1   
    14    8    9 2   
    15    8   13 1   
    16   10   11 2   
    17   10   12 1   
    18   12   34 1   
    19   12   35 1   
    20   12   62 1   
    21   13   14 1   
    22   13   36 1   
    23   14   15 ar  
    24   14   19 ar  
    25   15   16 ar  
    26   15   37 1   
    27   16   17 ar  
    28   16   22 1   
    29   17   18 ar  
    30   17   38 1   
    31   18   19 ar  
    32   18   20 1   
    33   19   39 1   
    34   20   21 1   
    35   21   40 1   
    36   21   41 1   
    37   21   42 1   
    38   22   23 1   
    39   23   43 1   
    40   23   44 1   
    41   23   45 1   
    42   24   25 1   
    43   24   30 1   
    44   24   46 1   
    45   25   30 1   
    46   25   47 1   
    47   25   48 1   
    48   26   27 1   
    49   26   49 1   
    50   27   28 1   
    51   27   50 1   
    52   27   51 1   
    53   28   29 1   
    54   28   31 1   
    55   28   32 1   
    56   29   52 1   
    57   29   53 1   
    58   29   63 1   
    59   30   54 1   
    60   30   55 1   
    61   31   56 1   
    62   31   57 1   
    63   31   58 1   
    64   32   59 1   
    65   32   60 1   
    66   32   61 1   
@<TRIPOS>SUBSTRUCTURE
     1 KSK         1 TEMP              0 ****  ****    0 ROOT
