@<TRIPOS>MOLECULE
KSK
   63    66     1     0     0
SMALL
bcc


@<TRIPOS>ATOM
      1 N1          0.0120    0.0230   -0.0730 na        1 KSK      0.060200
      2 C2          1.4080   -0.0010   -0.0030 cc        1 KSK      0.283300
      3 C3          1.9760   -0.0740    1.2870 cd        1 KSK     -0.354300
      4 C4          1.1550   -0.1420    2.4500 cd        1 KSK      0.588600
      5 N5         -0.1980   -0.1220    2.3800 nc        1 KSK     -0.753000
      6 C6         -0.7430   -0.0360    1.1440 cc        1 KSK      0.500500
      7 C7         -2.1190    0.0210    0.7300 cd        1 KSK     -0.490800
      8 C8         -2.0760    0.1180   -0.7500 cd        1 KSK      0.741500
      9 N9         -0.7580    0.1080   -1.1890 nc        1 KSK     -0.659100
     10 C10        -3.2930   -0.0040    1.5050 c         1 KSK      0.615300
     11 O11        -4.4730    0.0140    1.1530 o         1 KSK     -0.487100
     12 N12        -3.1080   -0.0620    3.0120 nz        1 KSK     -0.743400
     13 N13        -3.1890    0.2140   -1.5180 nu        1 KSK     -0.651600
     14 C14        -3.2060    0.2720   -2.9360 ca        1 KSK      0.168600
     15 C15        -4.2170   -0.4380   -3.6090 ca        1 KSK     -0.208500
     16 C16        -4.2980   -0.3490   -5.0100 ca        1 KSK      0.185600
     17 C17        -3.3850    0.4170   -5.7470 ca        1 KSK     -0.269000
     18 C18        -2.3860    1.1070   -5.0530 ca        1 KSK      0.185600
     19 C19        -2.2880    1.0570   -3.6510 ca        1 KSK     -0.208500
     20 O20        -1.4100    1.8650   -5.6640 os        1 KSK     -0.326400
     21 C21        -1.6400    2.2070   -7.0300 c3        1 KSK      0.108700
     22 O22        -5.3210   -1.0800   -5.5630 os        1 KSK     -0.326400
     23 C23        -5.5070   -0.9620   -6.9730 c3        1 KSK      0.108700
     24 C24         1.8350   -0.2260    3.7560 cx        1 KSK     -0.247000
     25 C25         1.2400   -1.0250    4.8980 cx        1 KSK     -0.084900
     26 N26         2.1490   -0.0250   -1.1980 nu        1 KSK     -0.756600
     27 C27         3.5770    0.1670   -1.1390 c3        1 KSK      0.165800
     28 C28         4.2720   -0.1050   -2.5090 c3        1 KSK      0.142200
     29 N29         3.9210   -1.5000   -3.0030 nz        1 KSK     -0.841600
     30 C30         1.2660    0.4640    4.9790 cx        1 KSK     -0.084900
     31 C31         3.8470    0.9270   -3.5520 c3        1 KSK     -0.140600
     32 C32         5.7830   -0.0110   -2.2830 c3        1 KSK     -0.140600
     33 H3          3.0670   -0.0680    1.4160 ha        1 KSK      0.177000
     34 HN12       -2.6020   -0.9140    3.2700 hn        1 KSK      0.468133
     35 HN1A       -2.5690    0.7490    3.3290 hn        1 KSK      0.468133
     36 HN13       -4.0760    0.1020   -1.0630 hn        1 KSK      0.484800
     37 H15        -4.9580   -1.0540   -3.0770 ha        1 KSK      0.161000
     38 H17        -3.4570    0.4770   -6.8420 ha        1 KSK      0.162000
     39 H19        -1.5110    1.6550   -3.1570 ha        1 KSK      0.161000
     40 H21        -1.5430    1.3000   -7.6750 h1        1 KSK      0.056867
     41 H21A       -0.8240    2.9410   -7.2540 h1        1 KSK      0.056867
     42 H21B       -2.6420    2.6810   -7.1600 h1        1 KSK      0.056867
     43 H23        -6.4090   -1.6010   -7.1620 h1        1 KSK      0.056867
     44 H23A       -4.6180   -1.3610   -7.5190 h1        1 KSK      0.056867
     45 H23B       -5.7060    0.0990   -7.2570 h1        1 KSK      0.056867
     46 H24         2.9410   -0.2390    3.6500 hc        1 KSK      0.108700
     47 H25         0.2790   -1.5470    4.7480 hc        1 KSK      0.091450
     48 H25A        1.9340   -1.6160    5.5260 hc        1 KSK      0.091450
     49 HN26        1.7100    0.4460   -1.9710 hn        1 KSK      0.448800
     50 H27         4.0120   -0.5360   -0.3700 h1        1 KSK      0.090200
     51 H27A        3.8590    1.2210   -0.8430 h1        1 KSK      0.090200
     52 HN29        4.1120   -2.1860   -2.2680 hn        1 KSK      0.464800
     53 HN2A        4.4900   -1.7190   -3.8270 hn        1 KSK      0.464800
     54 H30         0.3240    1.0320    4.8880 hc        1 KSK      0.091450
     55 H30A        1.9790    0.9600    5.6660 hc        1 KSK      0.091450
     56 H31         4.0100    1.9510   -3.1300 hc        1 KSK      0.088700
     57 H31A        4.4710    0.8380   -4.4770 hc        1 KSK      0.088700
     58 H31B        2.7710    0.8330   -3.8380 hc        1 KSK      0.088700
     59 H32         6.3450   -0.1800   -3.2360 hc        1 KSK      0.088700
     60 H32A        6.0280    1.0200   -1.9220 hc        1 KSK      0.088700
     61 H32B        6.1330   -0.7440   -1.5160 hc        1 KSK      0.088700
     62 H123       -4.0290   -0.0610    3.4670 hn        1 KSK      0.468133
     63 H293        2.9290   -1.5450   -3.2580 hn        1 KSK      0.464800
@<TRIPOS>BOND
     1    1    2 1   
     2    1    6 1   
     3    1    9 1   
     4    2    3 2   
     5    2   26 1   
     6    3    4 1   
     7    3   33 1   
     8    4    5 2   
     9    4   24 1   
    10    5    6 1   
    11    6    7 2   
    12    7    8 1   
    13    7   10 1   
    14    8    9 2   
    15    8   13 1   
    16   10   11 2   
    17   10   12 1   
    18   12   34 1   
    19   12   35 1   
    20   12   62 1   
    21   13   14 1   
    22   13   36 1   
    23   14   15 ar  
    24   14   19 ar  
    25   15   16 ar  
    26   15   37 1   
    27   16   17 ar  
    28   16   22 1   
    29   17   18 ar  
    30   17   38 1   
    31   18   19 ar  
    32   18   20 1   
    33   19   39 1   
    34   20   21 1   
    35   21   40 1   
    36   21   41 1   
    37   21   42 1   
    38   22   23 1   
    39   23   43 1   
    40   23   44 1   
    41   23   45 1   
    42   24   25 1   
    43   24   30 1   
    44   24   46 1   
    45   25   30 1   
    46   25   47 1   
    47   25   48 1   
    48   26   27 1   
    49   26   49 1   
    50   27   28 1   
    51   27   50 1   
    52   27   51 1   
    53   28   29 1   
    54   28   31 1   
    55   28   32 1   
    56   29   52 1   
    57   29   53 1   
    58   29   63 1   
    59   30   54 1   
    60   30   55 1   
    61   31   56 1   
    62   31   57 1   
    63   31   58 1   
    64   32   59 1   
    65   32   60 1   
    66   32   61 1   
@<TRIPOS>SUBSTRUCTURE
     1 KSK         1 TEMP              0 ****  ****    0 ROOT
