@<TRIPOS>MOLECULE
KSK
   61    64     1     0     0
SMALL
bcc


@<TRIPOS>ATOM
      1 N1          1.3620    0.1390   -0.0660 na        1 KSK      0.012200
      2 C2          2.2170   -0.9720   -0.0170 cc        1 KSK      0.318300
      3 C3          3.6010   -0.6970    0.0890 cd        1 KSK     -0.413300
      4 C4          4.0750    0.6450    0.1230 cd        1 KSK      0.546600
      5 N5          3.2650    1.7140    0.0610 nc        1 KSK     -0.732000
      6 C6          1.9250    1.4690   -0.0390 cc        1 KSK      0.481500
      7 C7          0.8090    2.3460   -0.1190 cd        1 KSK     -0.414800
      8 C8         -0.3650    1.4660   -0.2070 cd        1 KSK      0.676500
      9 N9          0.0130    0.1370   -0.1670 nc        1 KSK     -0.644100
     10 C10         0.7740    3.8000   -0.0880 c         1 KSK      0.727300
     11 O11        -0.3070    4.4380    0.0110 o         1 KSK     -0.676100
     12 N12         1.9450    4.5100   -0.1710 n         1 KSK     -0.664000
     13 N13        -1.6480    1.9500   -0.3460 nh        1 KSK     -0.679600
     14 C14        -2.8210    1.1820   -0.2660 ca        1 KSK      0.216600
     15 C15        -3.9550    1.7640    0.3480 ca        1 KSK     -0.220500
     16 C16        -5.1610    1.0550    0.3830 ca        1 KSK      0.174100
     17 C17        -5.2810   -0.2270   -0.1680 ca        1 KSK     -0.300000
     18 C18        -4.1490   -0.7830   -0.7720 ca        1 KSK      0.174100
     19 C19        -2.9250   -0.1000   -0.8390 ca        1 KSK     -0.220500
     20 O20        -4.1290   -2.0350   -1.3590 os        1 KSK     -0.326400
     21 C21        -5.3580   -2.7500   -1.3630 c3        1 KSK      0.114700
     22 O22        -6.1980    1.7260    1.0060 os        1 KSK     -0.326400
     23 C23        -7.4440    1.0440    1.0680 c3        1 KSK      0.114700
     24 C24         5.5410    0.8350    0.2340 cx        1 KSK     -0.205000
     25 C25         6.1140    1.9740    1.0440 cx        1 KSK     -0.106900
     26 N26         1.7120   -2.2550   -0.1330 nh        1 KSK     -0.734600
     27 C27         2.5470   -3.3740    0.2170 c3        1 KSK      0.215800
     28 C28         1.7680   -4.7220    0.3510 c3        1 KSK      0.167200
     29 N29         0.7230   -4.5930    1.3630 n3        1 KSK     -0.910800
     30 C30         6.2260    1.9960   -0.4480 cx        1 KSK     -0.106900
     31 C31         1.1720   -5.0900   -1.0150 c3        1 KSK     -0.113100
     32 C32         2.8300   -5.7820    0.6970 c3        1 KSK     -0.113100
     33 H3          4.3200   -1.5230    0.1320 ha        1 KSK      0.157000
     34 HN12        2.8260    4.0710   -0.2300 hn        1 KSK      0.318000
     35 HN1A        1.9020    5.4970   -0.1250 hn        1 KSK      0.318000
     36 HN13       -1.7440    2.9360   -0.1610 hn        1 KSK      0.485800
     37 H15        -3.9140    2.7670    0.7980 ha        1 KSK      0.164000
     38 H17        -6.2290   -0.7740   -0.1260 ha        1 KSK      0.141000
     39 H19        -2.0820   -0.5850   -1.3500 ha        1 KSK      0.164000
     40 H21        -6.1450   -2.1830   -1.9180 h1        1 KSK      0.042700
     41 H21A       -5.1060   -3.7000   -1.8990 h1        1 KSK      0.042700
     42 H21B       -5.6930   -2.9650   -0.3200 h1        1 KSK      0.042700
     43 H23        -8.1100    1.7690    1.6010 h1        1 KSK      0.042700
     44 H23A       -7.8320    0.8340    0.0420 h1        1 KSK      0.042700
     45 H23B       -7.3470    0.0960    1.6520 h1        1 KSK      0.042700
     46 H24         6.0820   -0.1340    0.2590 hc        1 KSK      0.087700
     47 H25         5.4240    2.6790    1.5420 hc        1 KSK      0.079700
     48 H25A        7.0150    1.7760    1.6520 hc        1 KSK      0.079700
     49 HN26        0.7240   -2.3900   -0.0490 hn        1 KSK      0.471800
     50 H27         3.3190   -3.5060   -0.5950 h1        1 KSK      0.046700
     51 H27A        3.0930   -3.1770    1.1860 h1        1 KSK      0.046700
     52 HN29        0.0900   -5.3650    1.3120 hn        1 KSK      0.358300
     53 HN2A        1.1270   -4.5500    2.2770 hn        1 KSK      0.358300
     54 H30         7.2070    1.8130   -0.9200 hc        1 KSK      0.079700
     55 H30A        5.6170    2.7170   -1.0230 hc        1 KSK      0.079700
     56 H31         1.9730   -5.0470   -1.7900 hc        1 KSK      0.045700
     57 H31A        0.7550   -6.1250   -0.9890 hc        1 KSK      0.045700
     58 H31B        0.3560   -4.3860   -1.3050 hc        1 KSK      0.045700
     59 H32         3.3410   -5.5350    1.6580 hc        1 KSK      0.045700
     60 H32A        2.3530   -6.7870    0.7920 hc        1 KSK      0.045700
     61 H32B        3.5960   -5.8300   -0.1120 hc        1 KSK      0.045700
@<TRIPOS>BOND
     1    1    2 1   
     2    1    6 1   
     3    1    9 1   
     4    2    3 2   
     5    2   26 1   
     6    3    4 1   
     7    3   33 1   
     8    4    5 2   
     9    4   24 1   
    10    5    6 1   
    11    6    7 2   
    12    7    8 1   
    13    7   10 1   
    14    8    9 2   
    15    8   13 1   
    16   10   11 2   
    17   10   12 1   
    18   12   34 1   
    19   12   35 1   
    20   13   14 1   
    21   13   36 1   
    22   14   15 ar  
    23   14   19 ar  
    24   15   16 ar  
    25   15   37 1   
    26   16   17 ar  
    27   16   22 1   
    28   17   18 ar  
    29   17   38 1   
    30   18   19 ar  
    31   18   20 1   
    32   19   39 1   
    33   20   21 1   
    34   21   40 1   
    35   21   41 1   
    36   21   42 1   
    37   22   23 1   
    38   23   43 1   
    39   23   44 1   
    40   23   45 1   
    41   24   25 1   
    42   24   30 1   
    43   24   46 1   
    44   25   30 1   
    45   25   47 1   
    46   25   48 1   
    47   26   27 1   
    48   26   49 1   
    49   27   28 1   
    50   27   50 1   
    51   27   51 1   
    52   28   29 1   
    53   28   31 1   
    54   28   32 1   
    55   29   52 1   
    56   29   53 1   
    57   30   54 1   
    58   30   55 1   
    59   31   56 1   
    60   31   57 1   
    61   31   58 1   
    62   32   59 1   
    63   32   60 1   
    64   32   61 1   
@<TRIPOS>SUBSTRUCTURE
     1 KSK         1 TEMP              0 ****  ****    0 ROOT
