@<TRIPOS>MOLECULE
KSK
   65    68     1     0     0
SMALL
bcc


@<TRIPOS>ATOM
      1 N1          0.3810    0.4520   -0.3460 na        1 KSK      0.014200
      2 C2          1.7020   -0.0270   -0.2120 cc        1 KSK      0.101300
      3 C3          1.9890   -0.8580    0.8520 cd        1 KSK     -0.185300
      4 C4          0.9430   -1.2270    1.8190 cd        1 KSK      0.632600
      5 N5         -0.3130   -0.7670    1.6950 nc        1 KSK     -0.695000
      6 C6         -0.5910    0.0520    0.6450 cc        1 KSK      0.520500
      7 C7         -1.8020    0.7040    0.2480 cd        1 KSK     -0.379800
      8 C8         -1.4530    1.4400   -0.9650 cd        1 KSK      0.572500
      9 N9         -0.1310    1.2660   -1.2920 nc        1 KSK     -0.532100
     10 C10        -3.1010    0.7010    0.8690 c         1 KSK      0.606300
     11 O11        -4.0640    1.3670    0.4990 o         1 KSK     -0.416100
     12 N12        -3.3260   -0.1700    2.0650 n4        1 KSK     -0.730400
     13 N13        -2.3850    2.2530   -1.7420 n4        1 KSK     -0.569400
     14 C14        -2.9790    1.5240   -2.8860 ca        1 KSK     -0.003400
     15 C15        -4.2990    1.0790   -2.7720 ca        1 KSK     -0.211500
     16 C16        -4.9040    0.5000   -3.9140 ca        1 KSK      0.226600
     17 C17        -4.1960    0.3650   -5.1160 ca        1 KSK     -0.231000
     18 C18        -2.8660    0.8040   -5.1810 ca        1 KSK      0.226600
     19 C19        -2.2320    1.3880   -4.0610 ca        1 KSK     -0.211500
     20 O20        -2.0660    0.7030   -6.2820 os        1 KSK     -0.309900
     21 C21        -2.6880    0.2930   -7.5110 c3        1 KSK      0.102200
     22 O22        -6.1880    0.0950   -3.7130 os        1 KSK     -0.309900
     23 C23        -6.9260   -0.3690   -4.8550 c3        1 KSK      0.102200
     24 C24         1.3510   -2.1100    2.9030 cx        1 KSK     -0.322000
     25 C25         0.3940   -3.1580    3.4830 cx        1 KSK     -0.038400
     26 N26         2.6940    0.3930   -1.2360 n4        1 KSK     -0.640400
     27 C27         4.0940   -0.0670   -0.9700 c3        1 KSK      0.078800
     28 C28         5.1060    0.4490   -2.0580 c3        1 KSK      0.145200
     29 N29         6.4950   -0.0590   -1.7040 n4        1 KSK     -0.847600
     30 C30         0.7480   -1.9800    4.3070 cx        1 KSK     -0.038400
     31 C31         4.7120   -0.0950   -3.4330 c3        1 KSK     -0.171100
     32 C32         5.1240    1.9790   -2.0720 c3        1 KSK     -0.171100
     33 H3          2.9950   -1.2780    1.0270 ha        1 KSK      0.209000
     34 HN12       -2.7150    0.1160    2.8420 hn        1 KSK      0.496800
     35 HN1A       -4.3140   -0.0810    2.3710 hn        1 KSK      0.496800
     36 HN13       -1.8990    3.0890   -2.1160 hn        1 KSK      0.502800
     37 H15        -4.9060    1.1950   -1.8600 ha        1 KSK      0.168500
     38 H17        -4.6850   -0.0710   -6.0040 ha        1 KSK      0.197000
     39 H19        -1.1990    1.7460   -4.1650 ha        1 KSK      0.168500
     40 H21        -3.0360   -0.7640   -7.4280 h1        1 KSK      0.080533
     41 H21A       -1.8510    0.3850   -8.2510 h1        1 KSK      0.080533
     42 H21B       -3.5270    0.9820   -7.7720 h1        1 KSK      0.080533
     43 H23        -7.9430   -0.5620   -4.4220 h1        1 KSK      0.080533
     44 H23A       -6.9700    0.4250   -5.6380 h1        1 KSK      0.080533
     45 H23B       -6.4720   -1.3100   -5.2470 h1        1 KSK      0.080533
     46 H24         2.4240   -2.3970    2.8520 hc        1 KSK      0.128700
     47 H25        -0.6200   -3.2480    3.0510 hc        1 KSK      0.116200
     48 H25A        0.8320   -4.1500    3.7230 hc        1 KSK      0.116200
     49 HN26        2.3880    0.0210   -2.1570 hn        1 KSK      0.495300
     50 H27         4.0910   -1.1970   -0.9630 hx        1 KSK      0.133200
     51 H27A        4.3980    0.3240    0.0470 hx        1 KSK      0.133200
     52 HN29        7.1570    0.2790   -2.4240 hn        1 KSK      0.489467
     53 HN2A        6.5220   -1.0860   -1.7000 hn        1 KSK      0.489467
     54 H30         1.4500   -2.0950    5.1610 hc        1 KSK      0.116200
     55 H30A        0.0000   -1.1880    4.4930 hc        1 KSK      0.116200
     56 H31         3.7910    0.4200   -3.8050 hc        1 KSK      0.107367
     57 H31A        4.5370   -1.1990   -3.4100 hc        1 KSK      0.107367
     58 H31B        5.5070    0.1160   -4.2010 hc        1 KSK      0.107367
     59 H32         5.2330    2.4030   -1.0420 hc        1 KSK      0.107367
     60 H32A        4.1900    2.3750   -2.5430 hc        1 KSK      0.107367
     61 H32B        5.9690    2.3750   -2.7010 hc        1 KSK      0.107367
     62 H123       -3.1380   -1.1550    1.8370 hn        1 KSK      0.496800
     63 H132       -3.1540    2.5620   -1.1130 hn        1 KSK      0.502800
     64 H262        2.6930    1.4300   -1.2930 hn        1 KSK      0.495300
     65 H293        6.7990    0.3020   -0.7920 hn        1 KSK      0.489467
@<TRIPOS>BOND
     1    1    2 1   
     2    1    6 1   
     3    1    9 1   
     4    2    3 2   
     5    2   26 1   
     6    3    4 1   
     7    3   33 1   
     8    4    5 2   
     9    4   24 1   
    10    5    6 1   
    11    6    7 2   
    12    7    8 1   
    13    7   10 1   
    14    8    9 2   
    15    8   13 1   
    16   10   11 2   
    17   10   12 1   
    18   12   34 1   
    19   12   35 1   
    20   12   62 1   
    21   13   14 1   
    22   13   36 1   
    23   13   63 1   
    24   14   15 ar  
    25   14   19 ar  
    26   15   16 ar  
    27   15   37 1   
    28   16   17 ar  
    29   16   22 1   
    30   17   18 ar  
    31   17   38 1   
    32   18   19 ar  
    33   18   20 1   
    34   19   39 1   
    35   20   21 1   
    36   21   40 1   
    37   21   41 1   
    38   21   42 1   
    39   22   23 1   
    40   23   43 1   
    41   23   44 1   
    42   23   45 1   
    43   24   25 1   
    44   24   30 1   
    45   24   46 1   
    46   25   30 1   
    47   25   47 1   
    48   25   48 1   
    49   26   27 1   
    50   26   49 1   
    51   26   64 1   
    52   27   28 1   
    53   27   50 1   
    54   27   51 1   
    55   28   29 1   
    56   28   31 1   
    57   28   32 1   
    58   29   52 1   
    59   29   53 1   
    60   29   65 1   
    61   30   54 1   
    62   30   55 1   
    63   31   56 1   
    64   31   57 1   
    65   31   58 1   
    66   32   59 1   
    67   32   60 1   
    68   32   61 1   
@<TRIPOS>SUBSTRUCTURE
     1 KSK         1 TEMP              0 ****  ****    0 ROOT
