@<TRIPOS>MOLECULE
KSK
   61    55     1     0     0
SMALL
bcc


@<TRIPOS>ATOM
      1 N1          1.3150   -0.3310    0.1400 n1        1 KSK     -0.093000
      2 C2          2.6390   -0.5370   -0.1370 c1        1 KSK      0.219000
      3 C3          3.5390   -0.6820    0.8870 c1        1 KSK     -0.294000
      4 C4          3.1080   -0.6210    2.1960 c1        1 KSK      0.104000
      5 N5          1.8020   -0.4180    2.4680 n1        1 KSK     -0.170000
      6 C6          0.8910   -0.2710    1.4300 c1        1 KSK      0.084000
      7 C7         -0.4770   -0.0380    1.4210 c1        1 KSK     -0.246000
      8 C8         -0.8870    0.0440    0.1050 c1        1 KSK      0.109000
      9 N9          0.2060   -0.1350   -0.6880 n1        1 KSK     -0.192000
     10 C10        -0.8350   -0.5900    2.8060 c1        1 KSK      0.400000
     11 O11        -0.5620   -1.7450    3.0910 o         1 KSK     -0.392000
     12 N12        -1.4840    0.2520    3.7700 n3        1 KSK     -0.420000
     13 N13        -1.7970    0.3000   -0.9890 n2        1 KSK     -0.193000
     14 C14        -3.1290    0.7700   -0.7210 c2        1 KSK      0.060000
     15 C15        -3.9520    1.1680   -1.7730 c2        1 KSK     -0.215000
     16 C16        -5.2580    1.5760   -1.5190 c1        1 KSK      0.107000
     17 C17        -5.7410    1.5870   -0.2160 c1        1 KSK     -0.229000
     18 C18        -4.9180    1.1900    0.8350 c1        1 KSK      0.112000
     19 C19        -3.6120    0.7810    0.5800 c1        1 KSK     -0.194000
     20 O20        -5.3820    1.2800    2.1690 os        1 KSK     -0.215000
     21 C21        -6.0230    0.1050    2.6350 c3        1 KSK     -0.082000
     22 O22        -6.1250    1.8940   -2.6010 os        1 KSK     -0.212000
     23 C23        -7.2600    2.6650   -2.2240 c3        1 KSK     -0.076000
     24 C24         4.5110   -0.2840    2.7230 cx        1 KSK     -0.153000
     25 C25         4.6100   -0.0330    4.2180 cx        1 KSK     -0.184000
     26 N26         2.6620    0.0330   -1.4610 n3        1 KSK     -0.281000
     27 C27         3.7820   -0.2130   -2.3300 c3        1 KSK     -0.091000
     28 C28         3.5840   -1.5440   -3.0520 c3        1 KSK     -0.005000
     29 N29         2.2200   -1.6580   -3.4780 n3        1 KSK     -0.343000
     30 C30         4.6970    1.1310    3.2460 cx        1 KSK     -0.184000
     31 C31         4.5100   -1.6040   -4.2760 c3        1 KSK     -0.208500
     32 C32         3.9190   -2.6950   -2.1010 c3        1 KSK     -0.208500
     33 H3          4.4880   -0.8300    0.6890 ha        1 KSK      0.164000
     34 HN12       -1.6780    1.1230    3.5600 hn        1 KSK      0.223000
     35 HN1A       -1.6890   -0.0770    4.6040 hn        1 KSK      0.223000
     36 HN13       -1.5310    0.1430   -1.8550 hn        1 KSK      0.203000
     37 H15        -3.6090    1.1600   -2.6940 ha        1 KSK      0.151000
     38 H17        -6.6600    1.8750   -0.0370 ha        1 KSK      0.154000
     39 H19        -3.0340    0.5020    1.3190 ha        1 KSK      0.187000
     40 H21        -6.4050   -0.3830    1.8730 h1        1 KSK      0.091667
     41 H21A       -6.7410    0.3500    3.2600 h1        1 KSK      0.091667
     42 H21B       -5.3680   -0.4650    3.0940 h1        1 KSK      0.091667
     43 H23        -7.7810    2.8950   -3.0260 h1        1 KSK      0.084667
     44 H23A       -6.9630    3.4880   -1.7790 h1        1 KSK      0.084667
     45 H23B       -7.8200    2.1440   -1.6080 h1        1 KSK      0.084667
     46 H24         5.3010   -0.6920    2.3060 hc        1 KSK      0.129000
     47 H25         3.7700   -0.1080    4.7190 hc        1 KSK      0.120250
     48 H25A        5.4570   -0.3010    4.6410 hc        1 KSK      0.120250
     49 HN26        1.9970    0.6100   -1.7230 hn        1 KSK      0.221000
     50 H27         3.8490    0.5110   -2.9910 h1        1 KSK      0.105500
     51 H27A        4.6050   -0.2490   -1.8010 h1        1 KSK      0.105500
     52 HN29        1.6730   -1.7050   -2.7450 hn        1 KSK      0.153000
     53 HN2A        1.9940   -0.9230   -3.9820 hn        1 KSK      0.153000
     54 H30         3.9040    1.7090    3.2030 hc        1 KSK      0.120250
     55 H30A        5.5920    1.5170    3.1230 hc        1 KSK      0.120250
     56 H31         5.4220   -1.3510   -4.0100 hc        1 KSK      0.084167
     57 H31A        4.5160   -2.5180   -4.6370 hc        1 KSK      0.084167
     58 H31B        4.1840   -0.9810   -4.9660 hc        1 KSK      0.084167
     59 H32         4.1890   -3.4810   -2.6220 hc        1 KSK      0.084167
     60 H32A        4.6560   -2.4260   -1.5080 hc        1 KSK      0.084167
     61 H32B        3.1280   -2.9160   -1.5610 hc        1 KSK      0.084167
@<TRIPOS>BOND
     1    1    6 1   
     2    2    3 1   
     3    2   26 1   
     4    3   33 1   
     5    4    5 1   
     6    4   24 1   
     7    7    8 1   
     8    8    9 1   
     9   10   11 1   
    10   10   12 1   
    11   12   34 1   
    12   12   35 1   
    13   13   14 1   
    14   13   36 1   
    15   14   15 1   
    16   14   19 1   
    17   15   16 1   
    18   15   37 1   
    19   16   22 1   
    20   17   18 1   
    21   17   38 1   
    22   18   20 1   
    23   19   39 1   
    24   20   21 1   
    25   21   40 1   
    26   21   41 1   
    27   21   42 1   
    28   22   23 1   
    29   23   43 1   
    30   23   44 1   
    31   23   45 1   
    32   24   25 1   
    33   24   30 1   
    34   24   46 1   
    35   25   30 1   
    36   25   47 1   
    37   25   48 1   
    38   26   27 1   
    39   26   49 1   
    40   27   28 1   
    41   27   50 1   
    42   27   51 1   
    43   28   29 1   
    44   28   31 1   
    45   28   32 1   
    46   29   52 1   
    47   29   53 1   
    48   30   54 1   
    49   30   55 1   
    50   31   56 1   
    51   31   57 1   
    52   31   58 1   
    53   32   59 1   
    54   32   60 1   
    55   32   61 1   
@<TRIPOS>SUBSTRUCTURE
     1 KSK         1 TEMP              0 ****  ****    0 ROOT
