@<TRIPOS>MOLECULE
KSL
   43    46     1     0     0
SMALL
bcc


@<TRIPOS>ATOM
      1 C8         -0.0290    0.0120   -1.0210 c3        1 KSL     -0.091300
      2 C7          1.3630   -0.0060   -0.5130 ca        1 KSL     -0.026300
      3 C5          1.5930   -0.1230    0.8610 ca        1 KSL     -0.117500
      4 C4          2.8900   -0.1160    1.3710 ca        1 KSL     -0.066000
      5 C3          3.9790    0.0240    0.5150 ca        1 KSL     -0.117500
      6 C6          2.4780    0.1170   -1.3730 ca        1 KSL     -0.060400
      7 C2          3.7970    0.1450   -0.8680 ca        1 KSL     -0.026300
      8 C1          4.9820    0.3130   -1.7430 c3        1 KSL     -0.091300
      9 N9          2.2550    0.2420   -2.8190 n4        1 KSL     -0.600100
     10 C10         2.0530   -1.0540   -3.5100 cc        1 KSL      0.488200
     11 C18         0.8200   -1.2160   -4.2400 cc        1 KSL     -0.238600
     12 C17        -0.3500   -0.4610   -4.4860 cd        1 KSL     -0.005400
     13 N16        -1.2200   -1.1880   -5.2790 nd        1 KSL     -0.501300
     14 C15        -0.6320   -2.3770   -5.5400 cc        1 KSL      0.397700
     15 N14         0.6300   -2.4600   -4.9330 na        1 KSL     -0.058200
     16 C13         1.6130   -3.4370   -4.8750 cc        1 KSL      0.032400
     17 C12         2.7640   -3.1600   -4.1270 cd        1 KSL      0.323200
     18 N11         2.9930   -1.9930   -3.4490 nd        1 KSL     -0.586000
     19 C19         1.4550   -4.7130   -5.5750 ca        1 KSL     -0.109000
     20 C24         1.7700   -5.9030   -4.9020 ca        1 KSL     -0.096000
     21 C23         1.6490   -7.1250   -5.5610 ca        1 KSL     -0.122000
     22 C22         1.2230   -7.1670   -6.8890 ca        1 KSL     -0.083000
     23 C21         0.9150   -5.9830   -7.5620 ca        1 KSL     -0.122000
     24 C20         1.0260   -4.7570   -6.9100 ca        1 KSL     -0.096000
     25 H8         -0.2870    1.0260   -1.4220 hc        1 KSL      0.068367
     26 H8A        -0.7560   -0.2220   -0.2020 hc        1 KSL      0.068367
     27 H8B        -0.1780   -0.7450   -1.8330 hc        1 KSL      0.068367
     28 H5          0.7340   -0.2230    1.5450 ha        1 KSL      0.166000
     29 H4          3.0530   -0.2160    2.4570 ha        1 KSL      0.167000
     30 H3          5.0020    0.0400    0.9260 ha        1 KSL      0.166000
     31 H1          5.9240    0.3200   -1.1370 hc        1 KSL      0.068367
     32 H1A         5.0640   -0.5260   -2.4790 hc        1 KSL      0.068367
     33 H1B         4.9360    1.2850   -2.2970 hc        1 KSL      0.068367
     34 HN9         1.4120    0.8120   -2.9750 hn        1 KSL      0.466800
     35 H17        -0.6080    0.5410   -4.1410 h4        1 KSL      0.191000
     36 H15        -1.0580   -3.1980   -6.1350 h5        1 KSL      0.108800
     37 H12         3.5790   -3.9050   -4.0550 h4        1 KSL      0.074100
     38 H24         2.1030   -5.8730   -3.8530 ha        1 KSL      0.143000
     39 H23         1.8920   -8.0590   -5.0290 ha        1 KSL      0.156000
     40 H22         1.1300   -8.1350   -7.4070 ha        1 KSL      0.157000
     41 H21         0.5850   -6.0160   -8.6120 ha        1 KSL      0.156000
     42 H20         0.7970   -3.8280   -7.4540 ha        1 KSL      0.143000
     43 H92         3.0690    0.7130   -3.2440 hn        1 KSL      0.466800
@<TRIPOS>BOND
     1    1    2 1   
     2    1   25 1   
     3    1   26 1   
     4    1   27 1   
     5    2    3 ar  
     6    2    6 ar  
     7    3    4 ar  
     8    3   28 1   
     9    4    5 ar  
    10    4   29 1   
    11    5    7 ar  
    12    5   30 1   
    13    6    7 ar  
    14    6    9 1   
    15    7    8 1   
    16    8   31 1   
    17    8   32 1   
    18    8   33 1   
    19    9   10 1   
    20    9   34 1   
    21    9   43 1   
    22   10   11 1   
    23   10   18 2   
    24   11   12 2   
    25   11   15 1   
    26   12   13 1   
    27   12   35 1   
    28   13   14 2   
    29   14   15 1   
    30   14   36 1   
    31   15   16 1   
    32   16   17 2   
    33   16   19 1   
    34   17   18 1   
    35   17   37 1   
    36   19   20 ar  
    37   19   24 ar  
    38   20   21 ar  
    39   20   38 1   
    40   21   22 ar  
    41   21   39 1   
    42   22   23 ar  
    43   22   40 1   
    44   23   24 ar  
    45   23   41 1   
    46   24   42 1   
@<TRIPOS>SUBSTRUCTURE
     1 KSL         1 TEMP              0 ****  ****    0 ROOT
