@<TRIPOS>MOLECULE
KSL
   42    45     1     0     0
SMALL
bcc


@<TRIPOS>ATOM
      1 C8         -3.5590    1.0840   -2.0780 c3        1 KSL     -0.057800
      2 C7         -3.9420    0.1110   -1.0260 ca        1 KSL     -0.060800
      3 C5         -5.0480   -0.7170   -1.2270 ca        1 KSL     -0.131500
      4 C4         -5.4300   -1.6390   -0.2560 ca        1 KSL     -0.120000
      5 C3         -4.7130   -1.7330    0.9320 ca        1 KSL     -0.131500
      6 C6         -3.2070    0.0150    0.1810 ca        1 KSL      0.102600
      7 C2         -3.6040   -0.9130    1.1720 ca        1 KSL     -0.060800
      8 C1         -2.8820   -1.0320    2.4610 c3        1 KSL     -0.057800
      9 N9         -2.1140    0.8930    0.4300 nh        1 KSL     -0.703300
     10 C10        -0.7940    0.4760    0.2050 cc        1 KSL      0.701200
     11 C18         0.2230    1.5230    0.2350 cc        1 KSL     -0.257600
     12 C17         0.2190    2.9360    0.3620 cd        1 KSL     -0.003400
     13 N16         1.5100    3.4170    0.3050 nd        1 KSL     -0.550300
     14 C15         2.3260    2.3390    0.1490 cc        1 KSL      0.345700
     15 N14         1.5910    1.1560    0.1040 na        1 KSL     -0.022200
     16 C13         1.9290   -0.1890   -0.0470 cc        1 KSL     -0.146600
     17 C12         0.8840   -1.1070   -0.0750 cd        1 KSL      0.411200
     18 N11        -0.4500   -0.8130    0.0340 nd        1 KSL     -0.724000
     19 C19         3.3260   -0.6080   -0.1660 ca        1 KSL     -0.036000
     20 C24         3.6840   -1.5330   -1.1570 ca        1 KSL     -0.116500
     21 C23         5.0040   -1.9660   -1.2650 ca        1 KSL     -0.128000
     22 C22         5.9760   -1.4800   -0.3900 ca        1 KSL     -0.120000
     23 C21         5.6240   -0.5600    0.5980 ca        1 KSL     -0.128000
     24 C20         4.3050   -0.1230    0.7130 ca        1 KSL     -0.116500
     25 H8         -3.6880    2.1330   -1.7090 hc        1 KSL      0.048533
     26 H8A        -2.4910    0.9430   -2.3780 hc        1 KSL      0.048533
     27 H8B        -4.1940    0.9600   -2.9900 hc        1 KSL      0.048533
     28 H5         -5.6190   -0.6420   -2.1650 ha        1 KSL      0.134000
     29 H4         -6.2980   -2.2920   -0.4280 ha        1 KSL      0.133000
     30 H3         -5.0190   -2.4610    1.6990 ha        1 KSL      0.134000
     31 H1         -1.8550   -1.4440    2.2940 hc        1 KSL      0.048533
     32 H1A        -2.7830   -0.0320    2.9530 hc        1 KSL      0.048533
     33 H1B        -3.4220   -1.7150    3.1620 hc        1 KSL      0.048533
     34 HN9        -2.2830    1.8320    0.1230 hn        1 KSL      0.422800
     35 H17        -0.6380    3.5960    0.4950 h4        1 KSL      0.182000
     36 H15         3.4170    2.3650    0.0570 h5        1 KSL      0.082800
     37 H12         1.1010   -2.1840   -0.1960 h4        1 KSL      0.039100
     38 H24         2.9190   -1.9130   -1.8510 ha        1 KSL      0.140500
     39 H23         5.2780   -2.6910   -2.0450 ha        1 KSL      0.137000
     40 H22         7.0170   -1.8220   -0.4780 ha        1 KSL      0.136000
     41 H21         6.3870   -0.1790    1.2920 ha        1 KSL      0.137000
     42 H20         4.0320    0.5910    1.5040 ha        1 KSL      0.140500
@<TRIPOS>BOND
     1    1    2 1   
     2    1   25 1   
     3    1   26 1   
     4    1   27 1   
     5    2    3 ar  
     6    2    6 ar  
     7    3    4 ar  
     8    3   28 1   
     9    4    5 ar  
    10    4   29 1   
    11    5    7 ar  
    12    5   30 1   
    13    6    7 ar  
    14    6    9 1   
    15    7    8 1   
    16    8   31 1   
    17    8   32 1   
    18    8   33 1   
    19    9   10 1   
    20    9   34 1   
    21   10   11 1   
    22   10   18 2   
    23   11   12 2   
    24   11   15 1   
    25   12   13 1   
    26   12   35 1   
    27   13   14 2   
    28   14   15 1   
    29   14   36 1   
    30   15   16 1   
    31   16   17 2   
    32   16   19 1   
    33   17   18 1   
    34   17   37 1   
    35   19   20 ar  
    36   19   24 ar  
    37   20   21 ar  
    38   20   38 1   
    39   21   22 ar  
    40   21   39 1   
    41   22   23 ar  
    42   22   40 1   
    43   23   24 ar  
    44   23   41 1   
    45   24   42 1   
@<TRIPOS>SUBSTRUCTURE
     1 KSL         1 TEMP              0 ****  ****    0 ROOT
