@<TRIPOS>MOLECULE
KSL
   42    45     1     0     0
SMALL
bcc


@<TRIPOS>ATOM
      1 C8          0.0130   -0.0280   -0.1700 c3        1 KSL     -0.057800
      2 C7          1.4880    0.0480   -0.0430 ca        1 KSL     -0.060800
      3 C5          2.0650    0.1540    1.2240 ca        1 KSL     -0.131500
      4 C4          3.4480    0.2270    1.3710 ca        1 KSL     -0.120000
      5 C3          4.2670    0.2060    0.2470 ca        1 KSL     -0.131500
      6 C6          2.3210    0.0210   -1.1900 ca        1 KSL      0.102600
      7 C2          3.7250    0.1090   -1.0400 ca        1 KSL     -0.060800
      8 C1          4.6340    0.1110   -2.2100 c3        1 KSL     -0.057800
      9 N9          1.7500   -0.0250   -2.4940 nh        1 KSL     -0.703300
     10 C10         1.6430   -1.2390   -3.1870 cc        1 KSL      0.701200
     11 C18         0.8130   -1.2210   -4.3870 cc        1 KSL     -0.257600
     12 C17        -0.0220   -0.2690   -5.0280 cd        1 KSL     -0.003400
     13 N16        -0.5890   -0.8250   -6.1550 nd        1 KSL     -0.550300
     14 C15        -0.1290   -2.1020   -6.2400 cc        1 KSL      0.345700
     15 N14         0.7360   -2.3950   -5.1870 na        1 KSL     -0.022200
     16 C13         1.4530   -3.5310   -4.8090 cc        1 KSL     -0.146600
     17 C12         2.2050   -3.4480   -3.6420 cd        1 KSL      0.411200
     18 N11         2.3090   -2.3510   -2.8270 nd        1 KSL     -0.724000
     19 C19         1.4140   -4.7510   -5.6170 ca        1 KSL     -0.036000
     20 C24         1.2340   -5.9880   -4.9810 ca        1 KSL     -0.116500
     21 C23         1.2250   -7.1630   -5.7310 ca        1 KSL     -0.128000
     22 C22         1.3920   -7.1140   -7.1140 ca        1 KSL     -0.120000
     23 C21         1.5720   -5.8860   -7.7500 ca        1 KSL     -0.128000
     24 C20         1.5830   -4.7070   -7.0070 ca        1 KSL     -0.116500
     25 H8         -0.2890   -0.9370   -0.7490 hc        1 KSL      0.048533
     26 H8A        -0.3840    0.8760   -0.6960 hc        1 KSL      0.048533
     27 H8B        -0.4740   -0.0820    0.8350 hc        1 KSL      0.048533
     28 H5          1.4180    0.1750    2.1140 ha        1 KSL      0.134000
     29 H4          3.8910    0.3030    2.3740 ha        1 KSL      0.133000
     30 H3          5.3590    0.2670    0.3660 ha        1 KSL      0.134000
     31 H1          4.3230    0.8880   -2.9510 hc        1 KSL      0.048533
     32 H1A         4.6150   -0.8860   -2.7180 hc        1 KSL      0.048533
     33 H1B         5.6870    0.3250   -1.8990 hc        1 KSL      0.048533
     34 HN9         0.9340    0.5490   -2.5890 hn        1 KSL      0.422800
     35 H17        -0.2180    0.7600   -4.7300 h4        1 KSL      0.182000
     36 H15        -0.3900   -2.8310   -7.0150 h5        1 KSL      0.082800
     37 H12         2.7890   -4.3220   -3.3000 h4        1 KSL      0.039100
     38 H24         1.0970   -6.0270   -3.8900 ha        1 KSL      0.140500
     39 H23         1.0830   -8.1310   -5.2270 ha        1 KSL      0.137000
     40 H22         1.3830   -8.0430   -7.7040 ha        1 KSL      0.136000
     41 H21         1.7090   -5.8450   -8.8410 ha        1 KSL      0.137000
     42 H20         1.7410   -3.7420   -7.5140 ha        1 KSL      0.140500
@<TRIPOS>BOND
     1    1    2 1   
     2    1   25 1   
     3    1   26 1   
     4    1   27 1   
     5    2    3 ar  
     6    2    6 ar  
     7    3    4 ar  
     8    3   28 1   
     9    4    5 ar  
    10    4   29 1   
    11    5    7 ar  
    12    5   30 1   
    13    6    7 ar  
    14    6    9 1   
    15    7    8 1   
    16    8   31 1   
    17    8   32 1   
    18    8   33 1   
    19    9   10 1   
    20    9   34 1   
    21   10   11 1   
    22   10   18 2   
    23   11   12 2   
    24   11   15 1   
    25   12   13 1   
    26   12   35 1   
    27   13   14 2   
    28   14   15 1   
    29   14   36 1   
    30   15   16 1   
    31   16   17 2   
    32   16   19 1   
    33   17   18 1   
    34   17   37 1   
    35   19   20 ar  
    36   19   24 ar  
    37   20   21 ar  
    38   20   38 1   
    39   21   22 ar  
    40   21   39 1   
    41   22   23 ar  
    42   22   40 1   
    43   23   24 ar  
    44   23   41 1   
    45   24   42 1   
@<TRIPOS>SUBSTRUCTURE
     1 KSL         1 TEMP              0 ****  ****    0 ROOT
