@<TRIPOS>MOLECULE
KSL
   42    34     1     0     0
SMALL
bcc


@<TRIPOS>ATOM
      1 C8          3.2940    1.7870   -1.1830 c3        1 KSL     -0.186000
      2 C7          2.7880    2.1760    0.1840 c2        1 KSL     -0.082000
      3 C5          3.6850    2.4020    1.2160 c2        1 KSL     -0.128000
      4 C4          3.2260    2.8270    2.4520 c1        1 KSL     -0.120000
      5 C3          1.8700    3.0260    2.6570 c1        1 KSL     -0.134000
      6 C6          1.4310    2.3740    0.3890 c1        1 KSL      0.022000
      7 C2          0.9730    2.7990    1.6260 c1        1 KSL     -0.024000
      8 C1         -0.4990    3.0890    1.8270 c3        1 KSL     -0.180000
      9 N9          0.5170    2.1890   -0.6820 n3        1 KSL     -0.225000
     10 C10        -0.2070    0.9710   -0.7960 c2        1 KSL      0.180000
     11 C18        -1.4700    0.7280   -1.3650 c1        1 KSL     -0.168000
     12 C17        -2.4160    1.5750   -1.9270 c1        1 KSL     -0.143000
     13 N16        -3.4560    0.8290   -2.3240 n2        1 KSL     -0.122000
     14 C15        -3.1820   -0.4660   -2.0230 c1        1 KSL     -0.110000
     15 N14        -1.9420   -0.5130   -1.4270 n2        1 KSL     -0.032000
     16 C13        -1.2040   -1.5480   -0.9390 c1        1 KSL     -0.046500
     17 C12         0.0430   -1.3070   -0.3770 c1        1 KSL     -0.087500
     18 N11         0.5210   -0.0510   -0.3140 n1        1 KSL     -0.198000
     19 C19        -1.3760   -2.8630   -0.5380 c1        1 KSL     -0.046500
     20 C24        -2.0370   -3.1450    0.6470 c1        1 KSL     -0.122000
     21 C23        -2.1540   -4.4560    1.0800 c1        1 KSL     -0.122000
     22 C22        -1.6110   -5.4850    0.3290 c1        1 KSL     -0.122000
     23 C21        -0.9500   -5.2040   -0.8570 c1        1 KSL     -0.122000
     24 C20        -0.8330   -3.8930   -1.2900 c1        1 KSL     -0.087500
     25 H8          4.1590    1.3350   -1.0950 hc        1 KSL      0.085667
     26 H8A         2.6520    1.1830   -1.6090 hc        1 KSL      0.085667
     27 H8B         3.4010    2.5910   -1.7320 hc        1 KSL      0.085667
     28 H5          4.6400    2.2620    1.0710 ha        1 KSL      0.133000
     29 H4          3.8580    2.9870    3.1780 ha        1 KSL      0.133000
     30 H3          1.5470    3.3250    3.5270 ha        1 KSL      0.135000
     31 H1         -0.7870    3.7780    1.1910 hc        1 KSL      0.090000
     32 H1A        -0.6480    3.4060    2.7420 hc        1 KSL      0.090000
     33 H1B        -1.0170    2.2700    1.6770 hc        1 KSL      0.090000
     34 HN9         0.3790    2.8600   -1.2840 hn        1 KSL      0.218000
     35 H17        -2.3380    2.5440   -2.0170 DU        1 KSL      0.197000
     36 H15        -3.7630   -1.2310   -2.2000 DU        1 KSL      0.197000
     37 H12         0.5720   -2.0490   -0.0270 ha        1 KSL      0.158000
     38 H24        -2.4200   -2.4200    1.1760 ha        1 KSL      0.137500
     39 H23        -2.6190   -4.6540    1.9150 ha        1 KSL      0.137500
     40 H22        -1.6930   -6.4090    0.6340 ha        1 KSL      0.137500
     41 H21        -0.5670   -5.9290   -1.3860 ha        1 KSL      0.137500
     42 H20        -0.3670   -3.6940   -2.1250 ha        1 KSL      0.158000
@<TRIPOS>BOND
     1    1    2 1   
     2    1   25 1   
     3    1   26 1   
     4    1   27 1   
     5    2    3 1   
     6    2    6 1   
     7    3    4 1   
     8    3   28 1   
     9    4   29 1   
    10    5    7 1   
    11    5   30 1   
    12    6    9 1   
    13    7    8 1   
    14    8   31 1   
    15    8   32 1   
    16    8   33 1   
    17    9   10 1   
    18    9   34 1   
    19   10   11 1   
    20   10   18 1   
    21   11   15 1   
    22   12   13 1   
    23   13   14 1   
    24   14   15 1   
    25   16   17 1   
    26   17   37 1   
    27   19   24 1   
    28   20   21 1   
    29   20   38 1   
    30   21   39 1   
    31   22   23 1   
    32   22   40 1   
    33   23   41 1   
    34   24   42 1   
@<TRIPOS>SUBSTRUCTURE
     1 KSL         1 TEMP              0 ****  ****    0 ROOT
