@<TRIPOS>MOLECULE
KSL
   42    45     1     0     0
SMALL
bcc


@<TRIPOS>ATOM
      1 C8          0.0110   -0.0320   -0.1690 c3        1 KSL     -0.057800
      2 C7          1.4860    0.0470   -0.0430 ca        1 KSL     -0.060800
      3 C5          2.0630    0.1540    1.2240 ca        1 KSL     -0.131500
      4 C4          3.4460    0.2300    1.3700 ca        1 KSL     -0.120000
      5 C3          4.2640    0.2100    0.2460 ca        1 KSL     -0.131500
      6 C6          2.3180    0.0220   -1.1910 ca        1 KSL      0.102600
      7 C2          3.7220    0.1130   -1.0410 ca        1 KSL     -0.060800
      8 C1          4.6310    0.1160   -2.2110 c3        1 KSL     -0.057800
      9 N9          1.7470   -0.0250   -2.4940 nu        1 KSL     -0.703300
     10 C10         1.6420   -1.2390   -3.1880 cc        1 KSL      0.701200
     11 C18         0.8110   -1.2230   -4.3870 cc        1 KSL     -0.257600
     12 C17        -0.0250   -0.2720   -5.0270 cd        1 KSL     -0.003400
     13 N16        -0.5920   -0.8290   -6.1540 nd        1 KSL     -0.550300
     14 C15        -0.1300   -2.1050   -6.2400 cc        1 KSL      0.345700
     15 N14         0.7360   -2.3970   -5.1870 na        1 KSL     -0.022200
     16 C13         1.4550   -3.5310   -4.8100 cc        1 KSL     -0.146600
     17 C12         2.2080   -3.4470   -3.6430 cd        1 KSL      0.411200
     18 N11         2.3100   -2.3500   -2.8270 nd        1 KSL     -0.724000
     19 C19         1.4180   -4.7510   -5.6170 ca        1 KSL     -0.036000
     20 C24         1.2410   -5.9890   -4.9820 ca        1 KSL     -0.116500
     21 C23         1.2330   -7.1640   -5.7310 ca        1 KSL     -0.128000
     22 C22         1.4000   -7.1150   -7.1150 ca        1 KSL     -0.120000
     23 C21         1.5770   -5.8860   -7.7500 ca        1 KSL     -0.128000
     24 C20         1.5870   -4.7070   -7.0080 ca        1 KSL     -0.116500
     25 H8         -0.4750   -0.0860    0.8360 hc        1 KSL      0.048533
     26 H8A        -0.2900   -0.9410   -0.7480 hc        1 KSL      0.048533
     27 H8B        -0.3880    0.8720   -0.6960 hc        1 KSL      0.048533
     28 H5          1.4170    0.1740    2.1140 ha        1 KSL      0.134000
     29 H4          3.8890    0.3060    2.3730 ha        1 KSL      0.133000
     30 H3          5.3570    0.2740    0.3650 ha        1 KSL      0.134000
     31 H1          4.3180    0.8940   -2.9520 hc        1 KSL      0.048533
     32 H1A         4.6130   -0.8800   -2.7200 hc        1 KSL      0.048533
     33 H1B         5.6830    0.3320   -1.9010 hc        1 KSL      0.048533
     34 HN9         0.9300    0.5480   -2.5880 hn        1 KSL      0.422800
     35 H17        -0.2230    0.7570   -4.7290 h4        1 KSL      0.182000
     36 H15        -0.3900   -2.8340   -7.0140 h5        1 KSL      0.082800
     37 H12         2.7930   -4.3200   -3.3010 h4        1 KSL      0.039100
     38 H24         1.1040   -6.0290   -3.8900 ha        1 KSL      0.140500
     39 H23         1.0930   -8.1320   -5.2270 ha        1 KSL      0.137000
     40 H22         1.3920   -8.0430   -7.7040 ha        1 KSL      0.136000
     41 H21         1.7130   -5.8450   -8.8410 ha        1 KSL      0.137000
     42 H20         1.7420   -3.7420   -7.5140 ha        1 KSL      0.140500
@<TRIPOS>BOND
     1    1    2 1   
     2    1   25 1   
     3    1   26 1   
     4    1   27 1   
     5    2    3 ar  
     6    2    6 ar  
     7    3    4 ar  
     8    3   28 1   
     9    4    5 ar  
    10    4   29 1   
    11    5    7 ar  
    12    5   30 1   
    13    6    7 ar  
    14    6    9 1   
    15    7    8 1   
    16    8   31 1   
    17    8   32 1   
    18    8   33 1   
    19    9   10 1   
    20    9   34 1   
    21   10   11 1   
    22   10   18 2   
    23   11   12 2   
    24   11   15 1   
    25   12   13 1   
    26   12   35 1   
    27   13   14 2   
    28   14   15 1   
    29   14   36 1   
    30   15   16 1   
    31   16   17 2   
    32   16   19 1   
    33   17   18 1   
    34   17   37 1   
    35   19   20 ar  
    36   19   24 ar  
    37   20   21 ar  
    38   20   38 1   
    39   21   22 ar  
    40   21   39 1   
    41   22   23 ar  
    42   22   40 1   
    43   23   24 ar  
    44   23   41 1   
    45   24   42 1   
@<TRIPOS>SUBSTRUCTURE
     1 KSL         1 TEMP              0 ****  ****    0 ROOT
