@<TRIPOS>MOLECULE
KSM
   52    56     1     0     0
SMALL
bcc


@<TRIPOS>ATOM
      1 CL24        4.6990   -0.0380   -2.2520 cl        1 KSM     -0.098400
      2 C12         4.8450    0.7960   -0.7730 ca        1 KSM     -0.002600
      3 C13         5.6400    1.9410   -0.7290 ca        1 KSM     -0.123000
      4 C14         5.7740    2.6390    0.4690 ca        1 KSM     -0.118000
      5 C15         5.1260    2.1880    1.6140 ca        1 KSM     -0.130000
      6 C16         4.3310    1.0370    1.5940 ca        1 KSM     -0.026300
      7 C20         3.6770    0.5830    2.8430 c3        1 KSM     -0.055800
      8 C11         4.1750    0.3230    0.3810 ca        1 KSM      0.111600
      9 N10         3.4150   -0.8780    0.3520 nh        1 KSM     -0.700300
     10 C9          2.0120   -0.8160    0.1980 cc        1 KSM      0.690200
     11 C4          1.3550   -2.1040   -0.0480 cc        1 KSM     -0.236600
     12 C5          1.7840   -3.4350   -0.2420 cd        1 KSM      0.009600
     13 N1          0.6880   -4.2600   -0.4390 nd        1 KSM     -0.558300
     14 N8          1.3180    0.3090    0.3270 nd        1 KSM     -0.711000
     15 C7         -0.0760    0.2450    0.2560 ca        1 KSM      0.374600
     16 C27        -0.8290    1.4330    0.4090 ca        1 KSM     -0.133300
     17 C28        -2.2080    1.4260    0.3480 ca        1 KSM     -0.177000
     18 C29        -2.9350    0.2300    0.1190 ca        1 KSM      0.155600
     19 C26        -2.2130   -0.9660   -0.0420 ca        1 KSM     -0.170000
     20 C6         -0.8090   -0.9670    0.0270 ca        1 KSM     -0.060600
     21 N3         -0.0600   -2.1400   -0.1290 na        1 KSM     -0.061200
     22 C2         -0.4120   -3.4710   -0.3680 cc        1 KSM      0.371700
     23 N30        -4.3430    0.2150   -0.0360 nh        1 KSM     -0.639000
     24 C35        -5.0580   -0.7270    0.8140 c3        1 KSM      0.189800
     25 C34        -6.5530   -0.8300    0.4440 c3        1 KSM      0.161800
     26 N33        -7.1980    0.4640    0.3650 n3        1 KSM     -0.819200
     27 C32        -6.4940    1.3830   -0.5250 c3        1 KSM      0.169500
     28 C43        -7.1070    2.7800   -0.5060 c3        1 KSM     -0.094100
     29 C31        -4.9970    1.5100   -0.1310 c3        1 KSM      0.186800
     30 H13         6.1540    2.2920   -1.6370 ha        1 KSM      0.149000
     31 H14         6.3940    3.5470    0.5060 ha        1 KSM      0.139000
     32 H15         5.2400    2.7440    2.5580 ha        1 KSM      0.138000
     33 H20         2.5650    0.6680    2.7520 hc        1 KSM      0.053367
     34 H20A        3.9300   -0.4860    3.0540 hc        1 KSM      0.053367
     35 H20B        4.0050    1.2010    3.7150 hc        1 KSM      0.053367
     36 HN10        3.8240   -1.5860   -0.2300 hn        1 KSM      0.423800
     37 H5          2.8030   -3.8230   -0.2430 h4        1 KSM      0.185000
     38 H27        -0.2970    2.3830    0.5850 ha        1 KSM      0.155000
     39 H28        -2.7390    2.3810    0.4870 ha        1 KSM      0.141000
     40 H26        -2.7420   -1.9120   -0.2390 ha        1 KSM      0.143000
     41 H2         -1.4480   -3.8030   -0.4830 h5        1 KSM      0.077800
     42 H35        -4.6040   -1.7480    0.6890 h1        1 KSM      0.044700
     43 H35A       -4.9730   -0.4360    1.9010 h1        1 KSM      0.044700
     44 H34        -6.6420   -1.4150   -0.5180 h1        1 KSM      0.037700
     45 H34A       -7.0670   -1.4180    1.2560 h1        1 KSM      0.037700
     46 HN33       -8.1510    0.3640    0.0690 hn        1 KSM      0.366800
     47 H32        -6.5280    1.0060   -1.5950 h1        1 KSM      0.028700
     48 H43        -7.0880    3.2150    0.5220 hc        1 KSM      0.043033
     49 H43A       -6.5250    3.4440   -1.1890 hc        1 KSM      0.043033
     50 H43B       -8.1660    2.7490   -0.8580 hc        1 KSM      0.043033
     51 H31        -4.9300    2.0840    0.8380 h1        1 KSM      0.046700
     52 H31A       -4.4830    2.1040   -0.9370 h1        1 KSM      0.046700
@<TRIPOS>BOND
     1    1    2 1   
     2    2    3 ar  
     3    2    8 ar  
     4    3    4 ar  
     5    3   30 1   
     6    4    5 ar  
     7    4   31 1   
     8    5    6 ar  
     9    5   32 1   
    10    6    7 1   
    11    6    8 ar  
    12    7   33 1   
    13    7   34 1   
    14    7   35 1   
    15    8    9 1   
    16    9   10 1   
    17    9   36 1   
    18   10   11 1   
    19   10   14 2   
    20   11   12 2   
    21   11   21 1   
    22   12   13 1   
    23   12   37 1   
    24   13   22 2   
    25   14   15 1   
    26   15   16 ar  
    27   15   20 ar  
    28   16   17 ar  
    29   16   38 1   
    30   17   18 ar  
    31   17   39 1   
    32   18   19 ar  
    33   18   23 1   
    34   19   20 ar  
    35   19   40 1   
    36   20   21 1   
    37   21   22 1   
    38   22   41 1   
    39   23   24 1   
    40   23   29 1   
    41   24   25 1   
    42   24   42 1   
    43   24   43 1   
    44   25   26 1   
    45   25   44 1   
    46   25   45 1   
    47   26   27 1   
    48   26   46 1   
    49   27   28 1   
    50   27   29 1   
    51   27   47 1   
    52   28   48 1   
    53   28   49 1   
    54   28   50 1   
    55   29   51 1   
    56   29   52 1   
@<TRIPOS>SUBSTRUCTURE
     1 KSM         1 TEMP              0 ****  ****    0 ROOT
