@<TRIPOS>MOLECULE
KSM
   52    56     1     0     0
SMALL
bcc


@<TRIPOS>ATOM
      1 CL24       -0.0040    0.7190   -0.1550 cl        1 KSM     -0.098400
      2 C12         1.6860    0.5240   -0.0410 ca        1 KSM     -0.002600
      3 C13         2.2960    0.7120    1.1990 ca        1 KSM     -0.123000
      4 C14         3.6750    0.5580    1.3160 ca        1 KSM     -0.118000
      5 C15         4.4380    0.2310    0.2000 ca        1 KSM     -0.130000
      6 C16         3.8460    0.0480   -1.0560 ca        1 KSM     -0.026300
      7 C20         4.7010   -0.2800   -2.2200 c3        1 KSM     -0.055800
      8 C11         2.4440    0.1880   -1.1890 ca        1 KSM      0.111600
      9 N10         1.8310    0.0590   -2.4650 nh        1 KSM     -0.700300
     10 C9          1.4910   -1.2230   -2.9530 cc        1 KSM      0.690200
     11 C4          0.6650   -1.2300   -4.1640 cc        1 KSM     -0.236600
     12 C5          0.0420   -0.2480   -4.9660 cd        1 KSM      0.009600
     13 N1         -0.6310   -0.8540   -6.0150 nd        1 KSM     -0.558300
     14 N8          1.9330   -2.3480   -2.4020 nd        1 KSM     -0.711000
     15 C7          1.6210   -3.5610   -3.0210 ca        1 KSM      0.374600
     16 C27         2.0990   -4.7670   -2.4550 ca        1 KSM     -0.133300
     17 C28         1.8210   -5.9920   -3.0260 ca        1 KSM     -0.177000
     18 C29         1.0320   -6.1020   -4.2010 ca        1 KSM      0.155600
     19 C26         0.5390   -4.9210   -4.7840 ca        1 KSM     -0.170000
     20 C6          0.8260   -3.6690   -4.2110 ca        1 KSM     -0.060600
     21 N3          0.3510   -2.4750   -4.7650 na        1 KSM     -0.061200
     22 C2         -0.4380   -2.1890   -5.8830 cc        1 KSM      0.371700
     23 N30         0.6610   -7.3530   -4.7520 nh        1 KSM     -0.639000
     24 C35         0.9530   -7.5280   -6.1680 c3        1 KSM      0.189800
     25 C34         0.3390   -8.8240   -6.7370 c3        1 KSM      0.161800
     26 N33         0.6640   -9.9900   -5.9430 n3        1 KSM     -0.819200
     27 C32         0.3250   -9.8170   -4.5330 c3        1 KSM      0.169500
     28 C43         0.7850  -10.9980   -3.6840 c3        1 KSM     -0.094100
     29 C31         0.9710   -8.5280   -3.9540 c3        1 KSM      0.186800
     30 H13         1.6900    0.9740    2.0790 ha        1 KSM      0.149000
     31 H14         4.1600    0.6970    2.2940 ha        1 KSM      0.139000
     32 H15         5.5280    0.1150    0.3000 ha        1 KSM      0.138000
     33 H20         5.7850   -0.2370   -1.9480 hc        1 KSM      0.053367
     34 H20A        4.4730   -1.3110   -2.5910 hc        1 KSM      0.053367
     35 H20B        4.5190    0.4400   -3.0570 hc        1 KSM      0.053367
     36 HN10        1.0950    0.7230   -2.6150 hn        1 KSM      0.423800
     37 H5          0.0540    0.8350   -4.8400 h4        1 KSM      0.185000
     38 H27         2.7120   -4.7200   -1.5390 ha        1 KSM      0.155000
     39 H28         2.2310   -6.8940   -2.5460 ha        1 KSM      0.141000
     40 H26        -0.0900   -4.9670   -5.6860 ha        1 KSM      0.143000
     41 H2         -0.8370   -2.9640   -6.5450 h5        1 KSM      0.077800
     42 H35         0.5180   -6.6630   -6.7400 h1        1 KSM      0.044700
     43 H35A        2.0670   -7.5440   -6.3520 h1        1 KSM      0.044700
     44 H34        -0.7760   -8.6720   -6.8420 h1        1 KSM      0.037700
     45 H34A        0.7650   -8.9820   -7.7660 h1        1 KSM      0.037700
     46 HN33        0.2040  -10.8030   -6.3080 hn        1 KSM      0.366800
     47 H32        -0.7980   -9.7160   -4.4030 h1        1 KSM      0.028700
     48 H43         0.5150  -10.8090   -2.6170 hc        1 KSM      0.043033
     49 H43A        1.8890  -11.1400   -3.7560 hc        1 KSM      0.043033
     50 H43B        0.2830  -11.9390   -4.0160 hc        1 KSM      0.043033
     51 H31         0.5520   -8.3720   -2.9210 h1        1 KSM      0.046700
     52 H31A        2.0840   -8.6940   -3.8690 h1        1 KSM      0.046700
@<TRIPOS>BOND
     1    1    2 1   
     2    2    3 ar  
     3    2    8 ar  
     4    3    4 ar  
     5    3   30 1   
     6    4    5 ar  
     7    4   31 1   
     8    5    6 ar  
     9    5   32 1   
    10    6    7 1   
    11    6    8 ar  
    12    7   33 1   
    13    7   34 1   
    14    7   35 1   
    15    8    9 1   
    16    9   10 1   
    17    9   36 1   
    18   10   11 1   
    19   10   14 2   
    20   11   12 2   
    21   11   21 1   
    22   12   13 1   
    23   12   37 1   
    24   13   22 2   
    25   14   15 1   
    26   15   16 ar  
    27   15   20 ar  
    28   16   17 ar  
    29   16   38 1   
    30   17   18 ar  
    31   17   39 1   
    32   18   19 ar  
    33   18   23 1   
    34   19   20 ar  
    35   19   40 1   
    36   20   21 1   
    37   21   22 1   
    38   22   41 1   
    39   23   24 1   
    40   23   29 1   
    41   24   25 1   
    42   24   42 1   
    43   24   43 1   
    44   25   26 1   
    45   25   44 1   
    46   25   45 1   
    47   26   27 1   
    48   26   46 1   
    49   27   28 1   
    50   27   29 1   
    51   27   47 1   
    52   28   48 1   
    53   28   49 1   
    54   28   50 1   
    55   29   51 1   
    56   29   52 1   
@<TRIPOS>SUBSTRUCTURE
     1 KSM         1 TEMP              0 ****  ****    0 ROOT
