@<TRIPOS>MOLECULE
KSM
   53    57     1     0     0
SMALL
bcc


@<TRIPOS>ATOM
      1 CL24        0.6120   -0.7970    0.9190 cl        1 KSM     -0.035400
      2 C12         2.1140   -0.2630    0.3440 ca        1 KSM      0.047400
      3 C13         3.1870   -0.1540    1.2300 ca        1 KSM     -0.110000
      4 C14         4.4230    0.3000    0.7710 ca        1 KSM     -0.064000
      5 C15         4.5930    0.6530   -0.5660 ca        1 KSM     -0.114000
      6 C16         3.5370    0.5520   -1.4780 ca        1 KSM     -0.021300
      7 C20         3.7470    0.9500   -2.8900 c3        1 KSM     -0.093800
      8 C11         2.2880    0.0860   -1.0140 ca        1 KSM     -0.054400
      9 N10         1.1590   -0.0320   -1.9420 n4        1 KSM     -0.598100
     10 C9          1.1070   -1.3370   -2.6450 cc        1 KSM      0.467200
     11 C4          1.1640   -1.2920   -4.0910 cc        1 KSM     -0.231600
     12 C5          1.2790   -0.3020   -5.0900 cd        1 KSM     -0.006400
     13 N1          1.2730   -0.8970   -6.3430 nd        1 KSM     -0.519300
     14 N8          1.0050   -2.4520   -1.9440 nd        1 KSM     -0.557000
     15 C7          0.9330   -3.6490   -2.6350 ca        1 KSM      0.261600
     16 C27         0.8280   -4.8700   -1.9130 ca        1 KSM     -0.063300
     17 C28         0.7460   -6.0780   -2.5540 ca        1 KSM     -0.212000
     18 C29         0.7450   -6.1790   -3.9870 ca        1 KSM      0.272600
     19 C26         0.8850   -4.9720   -4.7250 ca        1 KSM     -0.259000
     20 C6          0.9660   -3.7370   -4.0750 ca        1 KSM      0.038400
     21 N3          1.0860   -2.5360   -4.7820 na        1 KSM     -0.070200
     22 C2          1.1570   -2.2300   -6.1480 cc        1 KSM      0.405700
     23 N30         0.5700   -7.3910   -4.6190 nh        1 KSM     -0.629000
     24 C35         0.7810   -7.4640   -6.0530 c3        1 KSM      0.202800
     25 C34         0.4620   -8.8250   -6.7030 c3        1 KSM      0.158800
     26 N33         0.9090   -9.9400   -5.9010 n3        1 KSM     -0.819200
     27 C32         0.2880   -9.9140   -4.5830 c3        1 KSM      0.169500
     28 C43         0.7170  -11.0900   -3.7110 c3        1 KSM     -0.099100
     29 C31         0.6430   -8.6060   -3.8280 c3        1 KSM      0.202800
     30 H13         3.0540   -0.4270    2.2910 ha        1 KSM      0.179000
     31 H14         5.2700    0.3810    1.4740 ha        1 KSM      0.171000
     32 H15         5.5740    1.0160   -0.9170 ha        1 KSM      0.169000
     33 H20         3.4300    0.1360   -3.5940 hc        1 KSM      0.070700
     34 H20A        3.1670    1.8790   -3.1280 hc        1 KSM      0.070700
     35 H20B        4.8280    1.1660   -3.0870 hc        1 KSM      0.070700
     36 HN10        1.2360    0.7050   -2.6570 hn        1 KSM      0.469800
     37 H5          1.3650    0.7800   -4.9850 h4        1 KSM      0.185000
     38 H27         0.8180   -4.8370   -0.8080 ha        1 KSM      0.166000
     39 H28         0.6850   -6.9880   -1.9350 ha        1 KSM      0.160000
     40 H26         0.9350   -4.9950   -5.8250 ha        1 KSM      0.155000
     41 H2          1.1200   -2.9940   -6.9350 h5        1 KSM      0.096800
     42 H35         0.1090   -6.7060   -6.5500 h1        1 KSM      0.054700
     43 H35A        1.8550   -7.1990   -6.2820 h1        1 KSM      0.054700
     44 H34        -0.6480   -8.8630   -6.9140 h1        1 KSM      0.050200
     45 H34A        1.0030   -8.8630   -7.6900 h1        1 KSM      0.050200
     46 HN33        0.7350  -10.8140   -6.3600 hn        1 KSM      0.386800
     47 H32        -0.8440   -9.9470   -4.6750 h1        1 KSM      0.031700
     48 H43         0.2470  -10.9910   -2.7030 hc        1 KSM      0.051700
     49 H43A        0.3810  -12.0530   -4.1660 hc        1 KSM      0.051700
     50 H43B        1.8260  -11.1220   -3.5900 hc        1 KSM      0.051700
     51 H31         1.6810   -8.7080   -3.3970 h1        1 KSM      0.058200
     52 H31A       -0.0960   -8.5230   -2.9800 h1        1 KSM      0.058200
     53 H102        0.2780    0.0920   -1.4160 hn        1 KSM      0.469800
@<TRIPOS>BOND
     1    1    2 1   
     2    2    3 ar  
     3    2    8 ar  
     4    3    4 ar  
     5    3   30 1   
     6    4    5 ar  
     7    4   31 1   
     8    5    6 ar  
     9    5   32 1   
    10    6    7 1   
    11    6    8 ar  
    12    7   33 1   
    13    7   34 1   
    14    7   35 1   
    15    8    9 1   
    16    9   10 1   
    17    9   36 1   
    18    9   53 1   
    19   10   11 1   
    20   10   14 2   
    21   11   12 2   
    22   11   21 1   
    23   12   13 1   
    24   12   37 1   
    25   13   22 2   
    26   14   15 1   
    27   15   16 ar  
    28   15   20 ar  
    29   16   17 ar  
    30   16   38 1   
    31   17   18 ar  
    32   17   39 1   
    33   18   19 ar  
    34   18   23 1   
    35   19   20 ar  
    36   19   40 1   
    37   20   21 1   
    38   21   22 1   
    39   22   41 1   
    40   23   24 1   
    41   23   29 1   
    42   24   25 1   
    43   24   42 1   
    44   24   43 1   
    45   25   26 1   
    46   25   44 1   
    47   25   45 1   
    48   26   27 1   
    49   26   46 1   
    50   27   28 1   
    51   27   29 1   
    52   27   47 1   
    53   28   48 1   
    54   28   49 1   
    55   28   50 1   
    56   29   51 1   
    57   29   52 1   
@<TRIPOS>SUBSTRUCTURE
     1 KSM         1 TEMP              0 ****  ****    0 ROOT
