@<TRIPOS>MOLECULE
KSM
   52    56     1     0     0
SMALL
bcc


@<TRIPOS>ATOM
      1 Cl24        0.0080    0.7210   -0.1510 cl        1 KSM     -0.098400
      2 C12         1.6980    0.5270   -0.0450 ca        1 KSM     -0.002600
      3 C13         2.3150    0.7160    1.1920 ca        1 KSM     -0.123000
      4 C14         3.6950    0.5630    1.3020 ca        1 KSM     -0.118000
      5 C15         4.4510    0.2350    0.1820 ca        1 KSM     -0.130000
      6 C16         3.8540    0.0510   -1.0700 ca        1 KSM     -0.026300
      7 C20         4.7030   -0.2780   -2.2390 c3        1 KSM     -0.055800
      8 C11         2.4510    0.1900   -1.1960 ca        1 KSM      0.111600
      9 N10         1.8320    0.0590   -2.4690 nu        1 KSM     -0.700300
     10 C9          1.4900   -1.2230   -2.9540 cc        1 KSM      0.690200
     11 C4          0.6580   -1.2310   -4.1610 cc        1 KSM     -0.236600
     12 C5          0.0300   -0.2500   -4.9610 cd        1 KSM      0.009600
     13 N1         -0.6480   -0.8580   -6.0060 nd        1 KSM     -0.558300
     14 N8          1.9350   -2.3470   -2.4050 nd        1 KSM     -0.711000
     15 C7          1.6210   -3.5610   -3.0220 ca        1 KSM      0.374600
     16 C27         2.1030   -4.7660   -2.4570 ca        1 KSM     -0.133300
     17 C28         1.8240   -5.9920   -3.0260 ca        1 KSM     -0.177000
     18 C29         1.0300   -6.1030   -4.1980 ca        1 KSM      0.155600
     19 C26         0.5330   -4.9230   -4.7780 ca        1 KSM     -0.170000
     20 C6          0.8210   -3.6710   -4.2070 ca        1 KSM     -0.060600
     21 N3          0.3420   -2.4770   -4.7600 na        1 KSM     -0.061200
     22 C2         -0.4530   -2.1930   -5.8740 cc        1 KSM      0.371700
     23 N30         0.6580   -7.3550   -4.7460 nh        1 KSM     -0.639000
     24 C35         0.9440   -7.5300   -6.1630 c3        1 KSM      0.189800
     25 C34         0.3280   -8.8270   -6.7280 c3        1 KSM      0.161800
     26 N33         0.6580   -9.9920   -5.9350 n7        1 KSM     -0.819200
     27 C32         0.3250   -9.8190   -4.5240 c3        1 KSM      0.169500
     28 C43         0.7890  -10.9990   -3.6760 c3        1 KSM     -0.094100
     29 C31         0.9720   -8.5290   -3.9490 c3        1 KSM      0.186800
     30 H13         1.7120    0.9790    2.0750 ha        1 KSM      0.149000
     31 H14         4.1840    0.7030    2.2780 ha        1 KSM      0.139000
     32 H15         5.5420    0.1200    0.2770 ha        1 KSM      0.138000
     33 H20         4.4740   -1.3090   -2.6070 hc        1 KSM      0.053367
     34 H20A        5.7880   -0.2330   -1.9720 hc        1 KSM      0.053367
     35 H20B        4.5160    0.4420   -3.0750 hc        1 KSM      0.053367
     36 HN10        1.0930    0.7240   -2.6160 hn        1 KSM      0.423800
     37 H5          0.0410    0.8320   -4.8360 h4        1 KSM      0.185000
     38 H27         2.7210   -4.7180   -1.5440 ha        1 KSM      0.155000
     39 H28         2.2370   -6.8930   -2.5480 ha        1 KSM      0.141000
     40 H26        -0.1010   -4.9700   -5.6780 ha        1 KSM      0.143000
     41 H2         -0.8540   -2.9680   -6.5340 h5        1 KSM      0.077800
     42 H35         2.0560   -7.5450   -6.3520 h1        1 KSM      0.044700
     43 H35A        0.5050   -6.6660   -6.7330 h1        1 KSM      0.044700
     44 H34         0.7510   -8.9850   -7.7600 h1        1 KSM      0.037700
     45 H34A       -0.7870   -8.6770   -6.8290 h1        1 KSM      0.037700
     46 HN33        0.1980  -10.8060   -6.2980 hn        1 KSM      0.366800
     47 H32        -0.7980   -9.7180   -4.3890 h1        1 KSM      0.028700
     48 H43         0.5240  -10.8090   -2.6080 hc        1 KSM      0.043033
     49 H43A        1.8930  -11.1400   -3.7530 hc        1 KSM      0.043033
     50 H43B        0.2870  -11.9400   -4.0060 hc        1 KSM      0.043033
     51 H31         2.0860   -8.6940   -3.8690 h1        1 KSM      0.046700
     52 H31A        0.5570   -8.3730   -2.9140 h1        1 KSM      0.046700
@<TRIPOS>BOND
     1    1    2 1   
     2    2    3 ar  
     3    2    8 ar  
     4    3    4 ar  
     5    3   30 1   
     6    4    5 ar  
     7    4   31 1   
     8    5    6 ar  
     9    5   32 1   
    10    6    7 1   
    11    6    8 ar  
    12    7   33 1   
    13    7   34 1   
    14    7   35 1   
    15    8    9 1   
    16    9   10 1   
    17    9   36 1   
    18   10   11 1   
    19   10   14 2   
    20   11   12 2   
    21   11   21 1   
    22   12   13 1   
    23   12   37 1   
    24   13   22 2   
    25   14   15 1   
    26   15   16 ar  
    27   15   20 ar  
    28   16   17 ar  
    29   16   38 1   
    30   17   18 ar  
    31   17   39 1   
    32   18   19 ar  
    33   18   23 1   
    34   19   20 ar  
    35   19   40 1   
    36   20   21 1   
    37   21   22 1   
    38   22   41 1   
    39   23   24 1   
    40   23   29 1   
    41   24   25 1   
    42   24   42 1   
    43   24   43 1   
    44   25   26 1   
    45   25   44 1   
    46   25   45 1   
    47   26   27 1   
    48   26   46 1   
    49   27   28 1   
    50   27   29 1   
    51   27   47 1   
    52   28   48 1   
    53   28   49 1   
    54   28   50 1   
    55   29   51 1   
    56   29   52 1   
@<TRIPOS>SUBSTRUCTURE
     1 KSM         1 TEMP              0 ****  ****    0 ROOT
