@<TRIPOS>MOLECULE
KSM
   52    47     1     0     0
SMALL
bcc


@<TRIPOS>ATOM
      1 CL24       -1.1300    4.5890    1.7460 cl        1 KSM     -0.019000
      2 C12         0.3480    4.4580    2.4850 c2        1 KSM     -0.080000
      3 C13         0.4490    4.6810    3.7950 c2        1 KSM     -0.123000
      4 C14         1.7300    4.7660    4.4140 c1        1 KSM     -0.116000
      5 C15         2.8470    4.6210    3.6760 c1        1 KSM     -0.130000
      6 C16         2.7470    4.3900    2.3240 c1        1 KSM     -0.019000
      7 C20         3.9930    4.2850    1.4740 c2        1 KSM     -0.181000
      8 C11         1.4810    4.3070    1.7230 c2        1 KSM      0.030000
      9 N10         1.3700    4.1160    0.3610 n3        1 KSM     -0.223000
     10 C9          0.7280    2.8980   -0.1590 c2        1 KSM      0.183000
     11 C4          0.0530    2.8000   -1.4040 c1        1 KSM     -0.156000
     12 C5         -0.2660    3.7660   -2.3850 c1        1 KSM     -0.104500
     13 N1         -0.9070    3.1540   -3.3680 n2        1 KSM     -0.130000
     14 N8          0.9040    1.7850    0.6100 n1        1 KSM     -0.196000
     15 C7          0.4200    0.5570    0.1700 c1        1 KSM      0.012000
     16 C27         0.6010   -0.5940    0.9490 c2        1 KSM     -0.090000
     17 C28         0.1260   -1.8100    0.5030 c1        1 KSM     -0.151000
     18 C29        -0.5270   -1.8920   -0.7060 c1        1 KSM      0.016000
     19 C26        -0.7060   -0.7610   -1.4710 c1        1 KSM     -0.110000
     20 C6         -0.2250    0.4710   -1.0210 c1        1 KSM     -0.003000
     21 N3         -0.4060    1.6280   -1.8190 n2        1 KSM     -0.067000
     22 C2         -1.0100    1.8190   -3.0440 c1        1 KSM     -0.104500
     23 N30        -1.0990   -3.0650   -1.3790 n3        1 KSM     -0.225000
     24 C35        -0.0300   -3.9460   -1.8120 c3        1 KSM     -0.066000
     25 C34        -0.5750   -5.3150   -2.3920 c3        1 KSM     -0.073000
     26 N33        -1.4730   -5.9440   -1.5190 n3        1 KSM     -0.299000
     27 C32        -2.5540   -5.0490   -1.0730 c3        1 KSM     -0.026000
     28 C43        -3.3710   -5.7610    0.0060 c3        1 KSM     -0.212000
     29 C31        -2.0130   -3.7080   -0.4970 c3        1 KSM     -0.064000
     30 H13        -0.3590    4.7810    4.3300 ha        1 KSM      0.149000
     31 H14         1.8010    4.9490    5.4610 ha        1 KSM      0.139000
     32 H15         3.7650    4.6750    4.1250 ha        1 KSM      0.139000
     33 H20         4.0830    3.3060    1.1080 ha        1 KSM      0.093000
     34 H20A        3.9350    4.8830    0.7570 ha        1 KSM      0.093000
     35 H20B        4.6810    4.4770    1.9500 ha        1 KSM      0.093000
     36 HN10        1.6500    4.7250   -0.1860 hn        1 KSM      0.222000
     37 H5         -0.0540    4.7040   -2.3460 DU        1 KSM      0.197500
     38 H27         1.0540   -0.5380    1.7870 ha        1 KSM      0.157000
     39 H28         0.2590   -2.6510    1.0710 ha        1 KSM      0.144000
     40 H26        -1.1890   -0.8220   -2.3610 ha        1 KSM      0.153000
     41 H2         -1.4390    1.1240   -3.5890 DU        1 KSM      0.197500
     42 H35         0.5180   -3.4700   -2.5360 h1        1 KSM      0.082000
     43 H35A        0.5510   -4.1370   -1.0500 h1        1 KSM      0.082000
     44 H34        -0.9900   -5.1590   -3.1790 h1        1 KSM      0.076000
     45 H34A        0.1600   -5.8980   -2.5450 h1        1 KSM      0.076000
     46 HN33       -1.8430   -6.7040   -1.9430 hn        1 KSM      0.160000
     47 H32        -3.1480   -4.8510   -1.8450 h1        1 KSM      0.066000
     48 H43        -2.7810   -6.1110    0.6750 hc        1 KSM      0.081333
     49 H43A       -4.0460   -5.0720    0.4520 hc        1 KSM      0.081333
     50 H43B       -3.8320   -6.4330   -0.3660 hc        1 KSM      0.081333
     51 H31        -2.7350   -3.1310   -0.3400 h1        1 KSM      0.083000
     52 H31A       -1.5450   -3.8920    0.3810 h1        1 KSM      0.083000
@<TRIPOS>BOND
     1    1    2 1   
     2    2    3 1   
     3    2    8 1   
     4    3    4 1   
     5    3   30 1   
     6    4   31 1   
     7    5    6 1   
     8    5   32 1   
     9    6    8 1   
    10    7   33 1   
    11    7   34 1   
    12    7   35 1   
    13    8    9 1   
    14    9   10 1   
    15    9   36 1   
    16   10   11 1   
    17   10   14 1   
    18   11   21 1   
    19   12   13 1   
    20   13   22 1   
    21   15   16 1   
    22   15   20 1   
    23   16   17 1   
    24   16   38 1   
    25   17   39 1   
    26   18   19 1   
    27   18   23 1   
    28   19   40 1   
    29   20   21 1   
    30   23   24 1   
    31   23   29 1   
    32   24   25 1   
    33   24   42 1   
    34   24   43 1   
    35   25   26 1   
    36   25   44 1   
    37   25   45 1   
    38   26   27 1   
    39   26   46 1   
    40   27   28 1   
    41   27   29 1   
    42   27   47 1   
    43   28   48 1   
    44   28   49 1   
    45   28   50 1   
    46   29   51 1   
    47   29   52 1   
@<TRIPOS>SUBSTRUCTURE
     1 KSM         1 TEMP              0 ****  ****    0 ROOT
