@<TRIPOS>MOLECULE
KSR
   35    38     1     0     0
SMALL
bcc


@<TRIPOS>ATOM
      1 C1         -5.5560    0.3750   -0.2890 ca        1 KSR      0.257900
      2 N2         -4.7700   -0.6590   -0.6100 nb        1 KSR     -0.594000
      3 C3         -3.4540   -0.4880   -0.3350 ca        1 KSR      0.308800
      4 C4         -2.9580    0.7600    0.2740 ca        1 KSR      0.310500
      5 N5         -3.7800    1.8060    0.5930 nb        1 KSR     -0.635000
      6 C6         -5.0670    1.5860    0.3020 ca        1 KSR      0.290900
      7 C9         -2.2980   -1.3310   -0.5200 cc        1 KSR     -0.299800
      8 C10        -1.1850   -0.6220   -0.0460 cd        1 KSR      0.053900
      9 N11        -1.5760    0.6410    0.4310 na        1 KSR     -0.273100
     10 C14         0.1740   -1.0740   -0.0090 cd        1 KSR     -0.124200
     11 C15         1.3910   -0.2860   -0.0100 ca        1 KSR     -0.040800
     12 C16         2.4860   -1.2330    0.0440 ca        1 KSR     -0.077200
     13 N17         1.9440   -2.5310    0.0560 na        1 KSR     -0.069400
     14 C18         0.5560   -2.4230    0.0350 cc        1 KSR     -0.051100
     15 C20         1.6670    1.0770   -0.0700 ca        1 KSR     -0.129000
     16 C21         3.0070    1.4840   -0.0500 ca        1 KSR      0.109100
     17 C22         4.0710    0.5600    0.0170 ca        1 KSR     -0.181000
     18 C23         3.8180   -0.8030    0.0600 ca        1 KSR     -0.101000
     19 C27         2.6870   -3.7400    0.1770 c3        1 KSR      0.028600
     20 O31         3.1850    2.8570   -0.0980 os        1 KSR     -0.328900
     21 C32         4.5280    3.3190   -0.1470 c3        1 KSR      0.114700
     22 H1         -6.6310    0.2600   -0.5040 h4        1 KSR      0.029100
     23 H6         -5.7640    2.4060    0.5450 h4        1 KSR      0.029100
     24 H9         -2.2970   -2.3240   -0.9560 ha        1 KSR      0.166000
     25 HN11       -0.9770    1.3140    0.8350 hn        1 KSR      0.315700
     26 H18        -0.0810   -3.3110    0.0470 h4        1 KSR      0.176000
     27 H20         0.8750    1.8330   -0.1500 ha        1 KSR      0.150000
     28 H22         5.1120    0.9120    0.0330 ha        1 KSR      0.139000
     29 H23         4.6450   -1.5250    0.1040 ha        1 KSR      0.136000
     30 H27         3.0220   -3.8920    1.2400 h1        1 KSR      0.053033
     31 H27A        2.0480   -4.6090   -0.1320 h1        1 KSR      0.053033
     32 H27B        3.5950   -3.6930   -0.4830 h1        1 KSR      0.053033
     33 H32         4.4170    4.4310   -0.2150 h1        1 KSR      0.043700
     34 H32A        5.0780    3.0360    0.7830 h1        1 KSR      0.043700
     35 H32B        5.0530    2.9210   -1.0500 h1        1 KSR      0.043700
@<TRIPOS>BOND
     1    1    2 ar  
     2    1    6 ar  
     3    1   22 1   
     4    2    3 ar  
     5    3    4 ar  
     6    3    7 1   
     7    4    5 ar  
     8    4    9 1   
     9    5    6 ar  
    10    6   23 1   
    11    7    8 2   
    12    7   24 1   
    13    8    9 1   
    14    8   10 1   
    15    9   25 1   
    16   10   11 1   
    17   10   14 2   
    18   11   12 ar  
    19   11   15 ar  
    20   12   13 1   
    21   12   18 ar  
    22   13   14 1   
    23   13   19 1   
    24   14   26 1   
    25   15   16 ar  
    26   15   27 1   
    27   16   17 ar  
    28   16   20 1   
    29   17   18 ar  
    30   17   28 1   
    31   18   29 1   
    32   19   30 1   
    33   19   31 1   
    34   19   32 1   
    35   20   21 1   
    36   21   33 1   
    37   21   34 1   
    38   21   35 1   
@<TRIPOS>SUBSTRUCTURE
     1 KSR         1 TEMP              0 ****  ****    0 ROOT
