@<TRIPOS>MOLECULE
KSR
   35    38     1     0     0
SMALL
bcc


@<TRIPOS>ATOM
      1 C1         -0.0180   -0.1400    0.0360 ca        1 KSR      0.257900
      2 N2          1.3090   -0.2930   -0.0520 nb        1 KSR     -0.594000
      3 C3          1.9830   -0.1350    1.1120 ca        1 KSR      0.308800
      4 C4          1.2770    0.1820    2.3670 ca        1 KSR      0.310500
      5 N5         -0.0810    0.3350    2.4330 nb        1 KSR     -0.635000
      6 C6         -0.6990    0.1680    1.2580 ca        1 KSR      0.290900
      7 C9          3.3840   -0.2110    1.4490 cc        1 KSR     -0.299800
      8 C10         3.4960    0.0460    2.8230 cd        1 KSR      0.053900
      9 N11         2.2290    0.2860    3.3820 na        1 KSR     -0.273100
     10 C14         4.6980    0.0550    3.6030 cd        1 KSR     -0.124200
     11 C15         4.9680    0.7580    4.8430 ca        1 KSR     -0.040800
     12 C16         6.3260    0.4160    5.2140 ca        1 KSR     -0.077200
     13 N17         6.8410   -0.4560    4.2380 na        1 KSR     -0.069400
     14 C18         5.8610   -0.6550    3.2710 cc        1 KSR     -0.051100
     15 C20         4.2370    1.6270    5.6470 ca        1 KSR     -0.129000
     16 C21         4.8430    2.1260    6.8070 ca        1 KSR      0.109100
     17 C22         6.1600    1.7820    7.1720 ca        1 KSR     -0.181000
     18 C23         6.9110    0.9280    6.3780 ca        1 KSR     -0.101000
     19 C27         8.1720   -0.9630    4.1980 c3        1 KSR      0.028600
     20 O31         4.0370    2.9730    7.5490 os        1 KSR     -0.328900
     21 C32         4.6240    3.5510    8.7080 c3        1 KSR      0.114700
     22 H1         -0.5900   -0.2640   -0.8990 h4        1 KSR      0.029100
     23 H6         -1.7970    0.2820    1.2690 h4        1 KSR      0.029100
     24 H9          4.1960   -0.4170    0.7590 ha        1 KSR      0.166000
     25 HN11        2.0460    0.4670    4.3350 hn        1 KSR      0.315700
     26 H18         6.0420   -1.2990    2.4060 h4        1 KSR      0.176000
     27 H20         3.2180    1.9450    5.3910 ha        1 KSR      0.150000
     28 H22         6.6070    2.1890    8.0900 ha        1 KSR      0.139000
     29 H23         7.9400    0.6640    6.6570 ha        1 KSR      0.136000
     30 H27         8.4840   -1.2870    5.2270 h1        1 KSR      0.053367
     31 H27A        8.8850   -0.1710    3.8380 h1        1 KSR      0.053367
     32 H27B        8.2210   -1.8420    3.5020 h1        1 KSR      0.053367
     33 H32         3.8090    4.2030    9.1140 h1        1 KSR      0.043700
     34 H32A        5.5190    4.1620    8.4370 h1        1 KSR      0.043700
     35 H32B        4.8990    2.7600    9.4470 h1        1 KSR      0.043700
@<TRIPOS>BOND
     1    1    2 ar  
     2    1    6 ar  
     3    1   22 1   
     4    2    3 ar  
     5    3    4 ar  
     6    3    7 1   
     7    4    5 ar  
     8    4    9 1   
     9    5    6 ar  
    10    6   23 1   
    11    7    8 2   
    12    7   24 1   
    13    8    9 1   
    14    8   10 1   
    15    9   25 1   
    16   10   11 1   
    17   10   14 2   
    18   11   12 ar  
    19   11   15 ar  
    20   12   13 1   
    21   12   18 ar  
    22   13   14 1   
    23   13   19 1   
    24   14   26 1   
    25   15   16 ar  
    26   15   27 1   
    27   16   17 ar  
    28   16   20 1   
    29   17   18 ar  
    30   17   28 1   
    31   18   29 1   
    32   19   30 1   
    33   19   31 1   
    34   19   32 1   
    35   20   21 1   
    36   21   33 1   
    37   21   34 1   
    38   21   35 1   
@<TRIPOS>SUBSTRUCTURE
     1 KSR         1 TEMP              0 ****  ****    0 ROOT
