@<TRIPOS>MOLECULE
KSR
   35    38     1     0     0
SMALL
bcc


@<TRIPOS>ATOM
      1 C1         -0.0180   -0.1390    0.0360 ca        1 KSR      0.257900
      2 N2          1.3100   -0.2830   -0.0550 nb        1 KSR     -0.594000
      3 C3          1.9840   -0.1280    1.1100 ca        1 KSR      0.308800
      4 C4          1.2770    0.1760    2.3670 ca        1 KSR      0.310500
      5 N5         -0.0810    0.3200    2.4370 nb        1 KSR     -0.635000
      6 C6         -0.7000    0.1570    1.2610 ca        1 KSR      0.290900
      7 C9          3.3860   -0.1970    1.4440 cc        1 KSR     -0.299800
      8 C10         3.4980    0.0510    2.8200 cd        1 KSR      0.053900
      9 N11         2.2310    0.2800    3.3810 na        1 KSR     -0.273100
     10 C14         4.7010    0.0630    3.5980 cd        1 KSR     -0.124200
     11 C15         4.9680    0.7590    4.8430 ca        1 KSR     -0.040800
     12 C16         6.3290    0.4230    5.2090 ca        1 KSR     -0.077200
     13 N17         6.8480   -0.4390    4.2270 na        1 KSR     -0.069400
     14 C18         5.8680   -0.6380    3.2600 cc        1 KSR     -0.051100
     15 C20         4.2330    1.6180    5.6530 ca        1 KSR     -0.129000
     16 C21         4.8370    2.1130    6.8160 ca        1 KSR      0.109100
     17 C22         6.1570    1.7740    7.1770 ca        1 KSR     -0.181000
     18 C23         6.9120    0.9310    6.3760 ca        1 KSR     -0.101000
     19 C27         8.1830   -0.9370    4.1820 c3        1 KSR      0.028600
     20 O31         4.0260    2.9500    7.5650 os        1 KSR     -0.328900
     21 C32         4.6120    3.5230    8.7260 c3        1 KSR      0.114700
     22 H1         -0.5900   -0.2600   -0.8990 h4        1 KSR      0.029100
     23 H6         -1.7980    0.2650    1.2740 h4        1 KSR      0.029100
     24 H9          4.1980   -0.3940    0.7520 ha        1 KSR      0.166000
     25 HN11        2.0470    0.4530    4.3360 hn        1 KSR      0.315700
     26 H18         6.0520   -1.2750    2.3900 h4        1 KSR      0.176000
     27 H20         3.2110    1.9310    5.4020 ha        1 KSR      0.150000
     28 H22         6.6020    2.1790    8.0970 ha        1 KSR      0.139000
     29 H23         7.9440    0.6710    6.6520 ha        1 KSR      0.136000
     30 H27         8.4980   -1.2670    5.2080 h1        1 KSR      0.053367
     31 H27A        8.8900   -0.1370    3.8270 h1        1 KSR      0.053367
     32 H27B        8.2370   -1.8100    3.4790 h1        1 KSR      0.053367
     33 H32         3.7930    4.1670    9.1380 h1        1 KSR      0.043700
     34 H32A        5.5020    4.1420    8.4590 h1        1 KSR      0.043700
     35 H32B        4.8930    2.7290    9.4600 h1        1 KSR      0.043700
@<TRIPOS>BOND
     1    1    2 ar  
     2    1    6 ar  
     3    1   22 1   
     4    2    3 ar  
     5    3    4 ar  
     6    3    7 1   
     7    4    5 ar  
     8    4    9 1   
     9    5    6 ar  
    10    6   23 1   
    11    7    8 2   
    12    7   24 1   
    13    8    9 1   
    14    8   10 1   
    15    9   25 1   
    16   10   11 1   
    17   10   14 2   
    18   11   12 ar  
    19   11   15 ar  
    20   12   13 1   
    21   12   18 ar  
    22   13   14 1   
    23   13   19 1   
    24   14   26 1   
    25   15   16 ar  
    26   15   27 1   
    27   16   17 ar  
    28   16   20 1   
    29   17   18 ar  
    30   17   28 1   
    31   18   29 1   
    32   19   30 1   
    33   19   31 1   
    34   19   32 1   
    35   20   21 1   
    36   21   33 1   
    37   21   34 1   
    38   21   35 1   
@<TRIPOS>SUBSTRUCTURE
     1 KSR         1 TEMP              0 ****  ****    0 ROOT
