@<TRIPOS>MOLECULE
KSS
   39    30     1     0     0
SMALL
bcc


@<TRIPOS>ATOM
      1 C1         -2.5540    0.3440    0.8870 c1        1 KSS     -0.022000
      2 N2         -1.2090    0.3570    0.9520 n1        1 KSS      0.027000
      3 C3         -0.8520    0.4260    2.2660 c1        1 KSS     -0.343000
      4 C4         -2.0010    0.4560    3.0170 c1        1 KSS     -0.008000
      5 N5         -3.0450    0.4060    2.1780 n1        1 KSS     -0.205000
      6 C6         -3.1870    0.2760   -0.3440 c1        1 KSS     -0.138000
      7 C7         -2.4380    0.2210   -1.5020 c1        1 KSS     -0.041000
      8 N8         -1.0820    0.2340   -1.4350 n1        1 KSS      0.011000
      9 C9         -0.4560    0.3010   -0.2190 c1        1 KSS      0.042000
     10 S12         0.3810   -0.6540   -1.4950 ss        1 KSS      0.097000
     11 C13         1.2160    0.4600   -2.6270 c3        1 KSS     -0.273000
     12 C14         1.4370   -0.2470   -3.9700 c3        1 KSS     -0.204000
     13 C21        -1.3300    0.2340   -0.6400 c1        1 KSS     -0.022000
     14 C22        -0.7150    1.4470   -0.3170 c1        1 KSS     -0.116500
     15 C23         0.4780    1.4540    0.4090 c1        1 KSS     -0.116500
     16 C24         1.0570    0.2490    0.8140 c1        1 KSS      0.002000
     17 C25         0.4420   -0.9650    0.4920 c1        1 KSS      0.002000
     18 C26        -0.7510   -0.9720   -0.2340 c1        1 KSS     -0.138000
     19 O30         2.3260    0.2530    1.4690 os        1 KSS     -0.215500
     20 O31         1.0830   -2.1960    0.8220 os        1 KSS     -0.215500
     21 C32         2.7720    1.5490    1.8550 c3        1 KSS     -0.073000
     22 C36         0.1910   -3.3020    0.9270 c3        1 KSS     -0.073000
     23 H3          0.0640    0.4490    2.6140 DU        1 KSS      0.185500
     24 H4         -2.0500    0.5110    3.9960 DU        1 KSS      0.185500
     25 H6         -4.1690    0.2670   -0.3930 ha        1 KSS      0.183500
     26 H13         0.6640    1.2590   -2.7660 h1        1 KSS      0.103000
     27 H13A        2.0830    0.7230   -2.2480 h1        1 KSS      0.103000
     28 H14         1.7580   -1.1630   -3.8090 hc        1 KSS      0.087333
     29 H14A        0.5900   -0.2790   -4.4670 hc        1 KSS      0.087333
     30 H14B        2.1070    0.2470   -4.4940 hc        1 KSS      0.087333
     31 H22        -1.1230    2.2990   -0.6030 ha        1 KSS      0.153000
     32 H23         0.9110    2.3090    0.6360 ha        1 KSS      0.153000
     33 H26        -1.1840   -1.8280   -0.4610 ha        1 KSS      0.183500
     34 H32         3.6950    1.4910    2.1930 h1        1 KSS      0.085667
     35 H32A        2.7450    2.1500    1.0790 h1        1 KSS      0.085667
     36 H32B        2.1860    1.9000    2.5620 h1        1 KSS      0.085667
     37 H36         0.6060   -4.0070    1.4740 h1        1 KSS      0.085667
     38 H36A       -0.0020   -3.6530    0.0300 h1        1 KSS      0.085667
     39 H36B       -0.6450   -3.0090    1.3500 h1        1 KSS      0.085667
@<TRIPOS>BOND
     1    1    6 1   
     2    2    9 1   
     3    3    4 1   
     4    4    5 1   
     5    6   25 1   
     6    7    8 1   
     7    9   10 1   
     8   10   11 1   
     9   11   12 1   
    10   11   26 1   
    11   11   27 1   
    12   12   28 1   
    13   12   29 1   
    14   12   30 1   
    15   13   18 1   
    16   14   15 1   
    17   14   31 1   
    18   15   32 1   
    19   16   17 1   
    20   16   19 1   
    21   17   20 1   
    22   18   33 1   
    23   19   21 1   
    24   20   22 1   
    25   21   34 1   
    26   21   35 1   
    27   21   36 1   
    28   22   37 1   
    29   22   38 1   
    30   22   39 1   
@<TRIPOS>SUBSTRUCTURE
     1 KSS         1 TEMP              0 ****  ****    0 ROOT
