@<TRIPOS>MOLECULE
KSS
   39    41     1     0     0
SMALL
bcc


@<TRIPOS>ATOM
      1 C1          0.0730    0.5440   -0.0510 cc        1 KSS     -0.017300
      2 N2          1.4850    0.2500   -0.0510 na        1 KSS     -0.141100
      3 C3          1.9230    0.3740    1.2660 cc        1 KSS     -0.207100
      4 C4          0.7810    0.7330    2.0150 cd        1 KSS      0.015600
      5 N5         -0.3450    0.8370    1.2120 nd        1 KSS     -0.278600
      6 C6         -0.6180    0.4820   -1.3030 cc        1 KSS     -0.198300
      7 C7          0.1040    0.1460   -2.4370 cd        1 KSS      0.463800
      8 N8          1.4670   -0.1230   -2.4090 nd        1 KSS     -0.707000
      9 C9          2.1190   -0.0730   -1.2510 cc        1 KSS      0.621800
     10 S12         3.8100   -0.4100   -1.1530 ss        1 KSS     -0.257400
     11 C13         4.2910   -0.8380   -2.8050 c3        1 KSS     -0.013300
     12 C14         5.7530   -1.1640   -2.7240 c3        1 KSS     -0.097100
     13 C21        -0.5840    0.0630   -3.7370 ca        1 KSS     -0.143500
     14 C22        -1.8530   -0.5150   -3.8080 ca        1 KSS     -0.110000
     15 C23        -2.5310   -0.5900   -5.0250 ca        1 KSS     -0.185000
     16 C24        -1.9420   -0.0870   -6.1850 ca        1 KSS      0.114100
     17 C25        -0.6480    0.4980   -6.1170 ca        1 KSS      0.094100
     18 C26         0.0230    0.5670   -4.8980 ca        1 KSS     -0.144000
     19 O30        -2.5170   -0.1070   -7.4380 os        1 KSS     -0.301900
     20 O31        -0.1510    0.9650   -7.3180 os        1 KSS     -0.303900
     21 C32        -3.8150   -0.6860   -7.5180 c3        1 KSS      0.109700
     22 C36         1.1390    1.5640   -7.2670 c3        1 KSS      0.109700
     23 H3          2.9580    0.2060    1.5580 h4        1 KSS      0.192000
     24 H4          0.7280    0.9190    3.0890 h4        1 KSS      0.184000
     25 H6         -1.6920    0.7080   -1.3270 ha        1 KSS      0.173000
     26 H13         3.7010   -1.7130   -3.1740 h1        1 KSS      0.083700
     27 H13A        4.1050    0.0140   -3.5020 h1        1 KSS      0.083700
     28 H14         5.9360   -2.0260   -2.0360 hc        1 KSS      0.052367
     29 H14A        6.3420   -0.2860   -2.3580 hc        1 KSS      0.052367
     30 H14B        6.1330   -1.4400   -3.7390 hc        1 KSS      0.052367
     31 H22        -2.3260   -0.9220   -2.9010 ha        1 KSS      0.140000
     32 H23        -3.5290   -1.0500   -5.0580 ha        1 KSS      0.142000
     33 H26         1.0250    1.0150   -4.8380 ha        1 KSS      0.152000
     34 H32        -4.5420   -0.1180   -6.8870 h1        1 KSS      0.045033
     35 H32A       -4.0740   -0.5880   -8.6030 h1        1 KSS      0.045033
     36 H32B       -3.7890   -1.7600   -7.2140 h1        1 KSS      0.045033
     37 H36         1.3250    1.8650   -8.3300 h1        1 KSS      0.044367
     38 H36A        1.1340    2.4600   -6.6000 h1        1 KSS      0.044367
     39 H36B        1.9050    0.8260   -6.9270 h1        1 KSS      0.044367
@<TRIPOS>BOND
     1    1    2 1   
     2    1    5 2   
     3    1    6 1   
     4    2    3 1   
     5    2    9 1   
     6    3    4 2   
     7    3   23 1   
     8    4    5 1   
     9    4   24 1   
    10    6    7 2   
    11    6   25 1   
    12    7    8 1   
    13    7   13 1   
    14    8    9 2   
    15    9   10 1   
    16   10   11 1   
    17   11   12 1   
    18   11   26 1   
    19   11   27 1   
    20   12   28 1   
    21   12   29 1   
    22   12   30 1   
    23   13   14 ar  
    24   13   18 ar  
    25   14   15 ar  
    26   14   31 1   
    27   15   16 ar  
    28   15   32 1   
    29   16   17 ar  
    30   16   19 1   
    31   17   18 ar  
    32   17   20 1   
    33   18   33 1   
    34   19   21 1   
    35   20   22 1   
    36   21   34 1   
    37   21   35 1   
    38   21   36 1   
    39   22   37 1   
    40   22   38 1   
    41   22   39 1   
@<TRIPOS>SUBSTRUCTURE
     1 KSS         1 TEMP              0 ****  ****    0 ROOT
