@<TRIPOS>MOLECULE
KSS
   39    41     1     0     0
SMALL
bcc


@<TRIPOS>ATOM
      1 C1          0.0750    0.5230   -0.0470 cc        1 KSS     -0.017300
      2 N2          1.4910    0.2470   -0.0530 na        1 KSS     -0.141100
      3 C3          1.9310    0.3700    1.2640 cc        1 KSS     -0.207100
      4 C4          0.7870    0.7130    2.0180 cd        1 KSS      0.015600
      5 N5         -0.3430    0.8060    1.2180 nd        1 KSS     -0.278600
      6 C6         -0.6180    0.4590   -1.2980 cc        1 KSS     -0.198300
      7 C7          0.1050    0.1360   -2.4360 cd        1 KSS      0.463800
      8 N8          1.4710   -0.1170   -2.4120 nd        1 KSS     -0.707000
      9 C9          2.1260   -0.0640   -1.2550 cc        1 KSS      0.621800
     10 S12         3.8210   -0.3820   -1.1620 ss        1 KSS     -0.257400
     11 C13         4.3020   -0.7980   -2.8170 c3        1 KSS     -0.013300
     12 C14         5.7690   -1.1070   -2.7410 c3        1 KSS     -0.097100
     13 C21        -0.5850    0.0500   -3.7340 ca        1 KSS     -0.143500
     14 C22        -1.8470   -0.5430   -3.8040 ca        1 KSS     -0.110000
     15 C23        -2.5270   -0.6220   -5.0200 ca        1 KSS     -0.185000
     16 C24        -1.9470   -0.1060   -6.1790 ca        1 KSS      0.114100
     17 C25        -0.6600    0.4940   -6.1120 ca        1 KSS      0.094100
     18 C26         0.0130    0.5660   -4.8940 ca        1 KSS     -0.144000
     19 O30        -2.5250   -0.1280   -7.4310 os        1 KSS     -0.301900
     20 O31        -0.1710    0.9720   -7.3120 os        1 KSS     -0.303900
     21 C32        -3.8160   -0.7230   -7.5100 c3        1 KSS      0.109700
     22 C36         1.1100    1.5880   -7.2620 c3        1 KSS      0.109700
     23 H3          2.9680    0.2140    1.5530 h4        1 KSS      0.192000
     24 H4          0.7330    0.8940    3.0920 h4        1 KSS      0.184000
     25 H6         -1.6950    0.6720   -1.3190 ha        1 KSS      0.173000
     26 H13         3.7220   -1.6780   -3.1880 h1        1 KSS      0.083700
     27 H13A        4.1040    0.0550   -3.5110 h1        1 KSS      0.083700
     28 H14         5.9630   -1.9700   -2.0570 hc        1 KSS      0.052367
     29 H14A        6.3480   -0.2240   -2.3730 hc        1 KSS      0.052367
     30 H14B        6.1490   -1.3750   -3.7580 hc        1 KSS      0.052367
     31 H22        -2.3130   -0.9600   -2.8980 ha        1 KSS      0.140000
     32 H23        -3.5200   -1.0930   -5.0530 ha        1 KSS      0.142000
     33 H26         1.0100    1.0260   -4.8350 ha        1 KSS      0.152000
     34 H32        -4.5480   -0.1670   -6.8750 h1        1 KSS      0.045033
     35 H32A       -4.0780   -0.6240   -8.5940 h1        1 KSS      0.045033
     36 H32B       -3.7750   -1.7980   -7.2110 h1        1 KSS      0.045033
     37 H36         1.2900    1.8950   -8.3240 h1        1 KSS      0.044367
     38 H36A        1.0960    2.4810   -6.5910 h1        1 KSS      0.044367
     39 H36B        1.8870    0.8580   -6.9260 h1        1 KSS      0.044367
@<TRIPOS>BOND
     1    1    2 1   
     2    1    5 2   
     3    1    6 1   
     4    2    3 1   
     5    2    9 1   
     6    3    4 2   
     7    3   23 1   
     8    4    5 1   
     9    4   24 1   
    10    6    7 2   
    11    6   25 1   
    12    7    8 1   
    13    7   13 1   
    14    8    9 2   
    15    9   10 1   
    16   10   11 1   
    17   11   12 1   
    18   11   26 1   
    19   11   27 1   
    20   12   28 1   
    21   12   29 1   
    22   12   30 1   
    23   13   14 ar  
    24   13   18 ar  
    25   14   15 ar  
    26   14   31 1   
    27   15   16 ar  
    28   15   32 1   
    29   16   17 ar  
    30   16   19 1   
    31   17   18 ar  
    32   17   20 1   
    33   18   33 1   
    34   19   21 1   
    35   20   22 1   
    36   21   34 1   
    37   21   35 1   
    38   21   36 1   
    39   22   37 1   
    40   22   38 1   
    41   22   39 1   
@<TRIPOS>SUBSTRUCTURE
     1 KSS         1 TEMP              0 ****  ****    0 ROOT
