@<TRIPOS>MOLECULE
KSS
   39    41     1     0     0
SMALL
bcc


@<TRIPOS>ATOM
      1 C1          2.3250    2.0400   -0.5400 cc        1 KSS     -0.017300
      2 N2          3.0690    0.8380   -0.2550 na        1 KSS     -0.141100
      3 C3          4.4180    1.1580   -0.3860 cc        1 KSS     -0.207100
      4 C4          4.4530    2.5240   -0.7420 cd        1 KSS      0.015600
      5 N5          3.1770    3.0600   -0.8350 nd        1 KSS     -0.278600
      6 C6          0.8970    1.9690   -0.4700 cc        1 KSS     -0.198300
      7 C7          0.3140    0.7570   -0.1340 cd        1 KSS      0.463800
      8 N8          1.0570   -0.3880    0.1280 nd        1 KSS     -0.707000
      9 C9          2.3840   -0.3340    0.0690 cc        1 KSS      0.621800
     10 S12         3.3590   -1.7210    0.3970 ss        1 KSS     -0.257400
     11 C13         2.2100   -3.0000    0.8290 c3        1 KSS     -0.013300
     12 C14         3.0500   -4.2020    1.1460 c3        1 KSS     -0.097100
     13 C21        -1.1530    0.6580   -0.0410 ca        1 KSS     -0.143500
     14 C22        -1.8770    1.6980    0.5440 ca        1 KSS     -0.110000
     15 C23        -3.2680    1.6340    0.6280 ca        1 KSS     -0.185000
     16 C24        -3.9480    0.5240    0.1260 ca        1 KSS      0.114100
     17 C25        -3.2130   -0.5390   -0.4670 ca        1 KSS      0.094100
     18 C26        -1.8240   -0.4670   -0.5450 ca        1 KSS     -0.144000
     19 O30        -5.3160    0.3550    0.1530 os        1 KSS     -0.301900
     20 O31        -3.9760   -1.5920   -0.9330 os        1 KSS     -0.303900
     21 C32        -6.0630    1.4140    0.7410 c3        1 KSS      0.109700
     22 C36        -3.2590   -2.6590   -1.5410 c3        1 KSS      0.109700
     23 H3          5.2120    0.4320   -0.2260 h4        1 KSS      0.192000
     24 H4          5.3370    3.1360   -0.9320 h4        1 KSS      0.184000
     25 H6          0.3100    2.8700   -0.6900 ha        1 KSS      0.173000
     26 H13         1.5920   -2.6950    1.7080 h1        1 KSS      0.083700
     27 H13A        1.5140   -3.2060   -0.0200 h1        1 KSS      0.083700
     28 H14         3.7370   -3.9980    2.0040 hc        1 KSS      0.052367
     29 H14A        2.3880   -5.0590    1.4240 hc        1 KSS      0.052367
     30 H14B        3.6650   -4.5080    0.2640 hc        1 KSS      0.052367
     31 H22        -1.3520    2.5760    0.9510 ha        1 KSS      0.140000
     32 H23        -3.8190    2.4640    1.0940 ha        1 KSS      0.142000
     33 H26        -1.2480   -1.2870   -0.9990 ha        1 KSS      0.152000
     34 H32        -5.7840    1.5470    1.8150 h1        1 KSS      0.045033
     35 H32A       -5.9120    2.3660    0.1760 h1        1 KSS      0.045033
     36 H32B       -7.1220    1.0630    0.6490 h1        1 KSS      0.045033
     37 H36        -4.0660   -3.3750   -1.8390 h1        1 KSS      0.044367
     38 H36A       -2.7000   -2.3000   -2.4390 h1        1 KSS      0.044367
     39 H36B       -2.5610   -3.1350   -0.8100 h1        1 KSS      0.044367
@<TRIPOS>BOND
     1    1    2 1   
     2    1    5 2   
     3    1    6 1   
     4    2    3 1   
     5    2    9 1   
     6    3    4 2   
     7    3   23 1   
     8    4    5 1   
     9    4   24 1   
    10    6    7 2   
    11    6   25 1   
    12    7    8 1   
    13    7   13 1   
    14    8    9 2   
    15    9   10 1   
    16   10   11 1   
    17   11   12 1   
    18   11   26 1   
    19   11   27 1   
    20   12   28 1   
    21   12   29 1   
    22   12   30 1   
    23   13   14 ar  
    24   13   18 ar  
    25   14   15 ar  
    26   14   31 1   
    27   15   16 ar  
    28   15   32 1   
    29   16   17 ar  
    30   16   19 1   
    31   17   18 ar  
    32   17   20 1   
    33   18   33 1   
    34   19   21 1   
    35   20   22 1   
    36   21   34 1   
    37   21   35 1   
    38   21   36 1   
    39   22   37 1   
    40   22   38 1   
    41   22   39 1   
@<TRIPOS>SUBSTRUCTURE
     1 KSS         1 TEMP              0 ****  ****    0 ROOT
