@<TRIPOS>MOLECULE
KST
   32    32     1     0     0
SMALL
bcc


@<TRIPOS>ATOM
      1 O2         -6.0870   -1.9400    0.2960 o         1 KST     -0.832300
      2 C9         -5.9310   -0.6870    0.3360 c         1 KST      0.931200
      3 O1         -6.8790    0.1340    0.5060 o         1 KST     -0.832300
      4 C8         -4.5330   -0.1410    0.1720 cc        1 KST     -0.088700
      5 S          -4.1470    1.4980    0.2580 ss        1 KST     -0.032800
      6 C6         -2.5140    1.2530    0.0000 cc        1 KST     -0.271100
      7 C7         -3.4120   -0.9020   -0.0630 cd        1 KST     -0.195000
      8 C5         -2.2140   -0.0930   -0.1730 cd        1 KST      0.078600
      9 N1         -0.9620   -0.6370   -0.5000 nh        1 KST     -0.695600
     10 C4          0.1950    0.1700   -0.1640 c3        1 KST      0.174800
     11 C3          1.5190   -0.5860   -0.2770 c3        1 KST     -0.087400
     12 C2          2.6820    0.3420    0.0090 c3        1 KST     -0.074400
     13 C1          4.0080   -0.3700   -0.1490 c3        1 KST     -0.064400
     14 CA          5.2030    0.5210    0.1970 c3        1 KST      0.022500
     15 N           5.3430    1.6770   -0.6820 n3        1 KST     -0.892800
     16 C           6.4810   -0.3770    0.2820 c         1 KST      0.886600
     17 OXT         6.4520   -1.3690    1.0620 o         1 KST     -0.850800
     18 O           7.4890   -0.0520   -0.4110 o         1 KST     -0.850800
     19 H6         -1.7970    2.0670   -0.0300 h4        1 KST      0.147000
     20 H7         -3.4270   -1.9890   -0.1600 ha        1 KST      0.158000
     21 HN1        -0.8760   -1.5770   -0.1630 hn        1 KST      0.372800
     22 H41         0.2080    1.0420   -0.8790 h1        1 KST      0.030700
     23 H42         0.1170    0.6020    0.8780 h1        1 KST      0.030700
     24 H31         1.5350   -1.4430    0.4460 hc        1 KST      0.037700
     25 H32         1.6270   -1.0160   -1.3070 hc        1 KST      0.037700
     26 H21         2.6360    1.2220   -0.6850 hc        1 KST      0.036700
     27 H22         2.5950    0.7420    1.0540 hc        1 KST      0.036700
     28 H11         4.0520   -1.2590    0.5350 hc        1 KST      0.044200
     29 H12         4.1070   -0.7510   -1.1990 hc        1 KST      0.044200
     30 HA          5.0400    0.9360    1.2350 h1        1 KST      0.041700
     31 HN1A        6.2980    1.9890   -0.6150 hn        1 KST      0.328300
     32 HN2         5.2120    1.3750   -1.6320 hn        1 KST      0.328300
@<TRIPOS>BOND
     1    1    2 1   
     2    2    3 1   
     3    2    4 1   
     4    4    5 1   
     5    4    7 2   
     6    5    6 1   
     7    6    8 2   
     8    6   19 1   
     9    7    8 1   
    10    7   20 1   
    11    8    9 1   
    12    9   10 1   
    13    9   21 1   
    14   10   11 1   
    15   10   22 1   
    16   10   23 1   
    17   11   12 1   
    18   11   24 1   
    19   11   25 1   
    20   12   13 1   
    21   12   26 1   
    22   12   27 1   
    23   13   14 1   
    24   13   28 1   
    25   13   29 1   
    26   14   15 1   
    27   14   16 1   
    28   14   30 1   
    29   15   31 1   
    30   15   32 1   
    31   16   17 1   
    32   16   18 1   
@<TRIPOS>SUBSTRUCTURE
     1 KST         1 TEMP              0 ****  ****    0 ROOT
