@<TRIPOS>MOLECULE
KTA
   22    22     1     0     0
SMALL
bcc


@<TRIPOS>ATOM
      1 C8         -2.0930   -3.6440   -4.7360 c         1 KTA      0.907600
      2 O1         -2.6290   -3.9090   -5.8500 o         1 KTA     -0.847800
      3 O2         -2.1990   -4.3760   -3.7100 o         1 KTA     -0.847800
      4 C7         -1.2620   -2.3500   -4.6580 c3        1 KTA     -0.195400
      5 C1         -0.7430   -2.0440   -3.2660 c3        1 KTA     -0.039700
      6 C2         -1.8950   -1.6830   -2.3400 c3        1 KTA     -0.176400
      7 C3         -1.4500   -1.1540   -1.0130 c         1 KTA      0.577100
      8 C4         -0.3150   -0.1610   -1.0240 c3        1 KTA     -0.183400
      9 C5          0.8110   -0.6010   -1.9330 c3        1 KTA     -0.068400
     10 C6          0.2980   -0.9360   -3.3160 c3        1 KTA     -0.084400
     11 O3         -2.0040   -1.4530    0.0540 o         1 KTA     -0.569100
     12 H6C1       -0.1500   -0.0210   -3.7850 hc        1 KTA      0.031700
     13 H6C2        1.1530   -1.2600   -3.9640 hc        1 KTA      0.031700
     14 H5C1        1.5770    0.2150   -1.9950 hc        1 KTA      0.031700
     15 H5C2        1.3150   -1.5020   -1.4930 hc        1 KTA      0.031700
     16 H1         -0.2630   -2.9830   -2.8660 hc        1 KTA      0.071700
     17 H4C1       -0.7310    0.8190   -1.3830 hc        1 KTA      0.050200
     18 H4C2        0.0680   -0.0080    0.0180 hc        1 KTA      0.050200
     19 H2C1       -2.5260   -2.6090   -2.2110 hc        1 KTA      0.090700
     20 H2C2       -2.5370   -0.8940   -2.8160 hc        1 KTA      0.090700
     21 H7C1       -1.8920   -1.5040   -5.0310 hc        1 KTA      0.024700
     22 H7C2       -0.3960   -2.4630   -5.3590 hc        1 KTA      0.024700
@<TRIPOS>BOND
     1    1    2 1   
     2    1    3 1   
     3    1    4 1   
     4    4    5 1   
     5    4   21 1   
     6    4   22 1   
     7    5    6 1   
     8    5   10 1   
     9    5   16 1   
    10    6    7 1   
    11    6   19 1   
    12    6   20 1   
    13    7    8 1   
    14    7   11 2   
    15    8    9 1   
    16    8   17 1   
    17    8   18 1   
    18    9   10 1   
    19    9   14 1   
    20    9   15 1   
    21   10   12 1   
    22   10   13 1   
@<TRIPOS>SUBSTRUCTURE
     1 KTA         1 TEMP              0 ****  ****    0 ROOT
