@<TRIPOS>MOLECULE
KTA
   22    22     1     0     0
SMALL
bcc


@<TRIPOS>ATOM
      1 C8          0.0610    0.0850   -0.0180 c         1 KTA      0.907600
      2 O1          1.2510    0.4920    0.1180 o         1 KTA     -0.847800
      3 O2         -0.7220   -0.1370    0.9500 o         1 KTA     -0.847800
      4 C7         -0.4350   -0.1380   -1.4580 c3        1 KTA     -0.195400
      5 C1         -1.8240   -0.7420   -1.5350 c3        1 KTA     -0.039700
      6 C2         -1.8050   -2.1760   -1.0280 c3        1 KTA     -0.176400
      7 C3         -3.0830   -2.9140   -1.2770 c         1 KTA      0.577100
      8 C4         -3.7170   -2.7330   -2.6330 c3        1 KTA     -0.183400
      9 C5         -3.7390   -1.2820   -3.0570 c3        1 KTA     -0.068400
     10 C6         -2.3620   -0.6620   -2.9560 c3        1 KTA     -0.084400
     11 O3         -3.5880   -3.6870   -0.4520 o         1 KTA     -0.569100
     12 H6C1       -2.4110    0.4110   -3.2740 hc        1 KTA      0.031700
     13 H6C2       -1.6590   -1.1880   -3.6540 hc        1 KTA      0.031700
     14 H5C1       -4.1150   -1.2100   -4.1110 hc        1 KTA      0.031700
     15 H5C2       -4.4530   -0.7130   -2.4060 hc        1 KTA      0.031700
     16 H1         -2.4950   -0.1450   -0.8530 hc        1 KTA      0.071700
     17 H4C1       -4.7580   -3.1480   -2.6250 hc        1 KTA      0.050200
     18 H4C2       -3.1160   -3.3340   -3.3670 hc        1 KTA      0.050200
     19 H2C1       -0.9830   -2.7510   -1.5330 hc        1 KTA      0.090200
     20 H2C2       -1.5720   -2.1400    0.0760 hc        1 KTA      0.090200
     21 H7C1        0.3020   -0.7920   -1.9880 hc        1 KTA      0.024700
     22 H7C2       -0.4350    0.8580   -1.9710 hc        1 KTA      0.024700
@<TRIPOS>BOND
     1    1    2 1   
     2    1    3 1   
     3    1    4 1   
     4    4    5 1   
     5    4   21 1   
     6    4   22 1   
     7    5    6 1   
     8    5   10 1   
     9    5   16 1   
    10    6    7 1   
    11    6   19 1   
    12    6   20 1   
    13    7    8 1   
    14    7   11 2   
    15    8    9 1   
    16    8   17 1   
    17    8   18 1   
    18    9   10 1   
    19    9   14 1   
    20    9   15 1   
    21   10   12 1   
    22   10   13 1   
@<TRIPOS>SUBSTRUCTURE
     1 KTA         1 TEMP              0 ****  ****    0 ROOT
