@<TRIPOS>MOLECULE
KTA
   22    22     1     0     0
SMALL
bcc


@<TRIPOS>ATOM
      1 C8          0.0430    0.1040   -0.0100 c         1 KTA      0.907600
      2 O1          1.2210    0.5430    0.1250 o         1 KTA     -0.847800
      3 O2         -0.7290   -0.1530    0.9580 o         1 KTA     -0.847800
      4 C7         -0.4550   -0.1150   -1.4510 c3        1 KTA     -0.195400
      5 C1         -1.8320   -0.7450   -1.5290 c3        1 KTA     -0.039700
      6 C2         -1.7830   -2.1840   -1.0380 c3        1 KTA     -0.176400
      7 C3         -3.0470   -2.9450   -1.2900 c         1 KTA      0.577100
      8 C4         -3.6910   -2.7600   -2.6420 c3        1 KTA     -0.183400
      9 C5         -3.7420   -1.3050   -3.0490 c3        1 KTA     -0.068400
     10 C6         -2.3770   -0.6600   -2.9470 c3        1 KTA     -0.084400
     11 O3         -3.5340   -3.7360   -0.4720 o         1 KTA     -0.569100
     12 H6C1       -1.6670   -1.1640   -3.6540 hc        1 KTA      0.031700
     13 H6C2       -2.4490    0.4160   -3.2520 hc        1 KTA      0.031700
     14 H5C1       -4.1250   -1.2290   -4.1000 hc        1 KTA      0.031700
     15 H5C2       -4.4650   -0.7570   -2.3890 hc        1 KTA      0.031700
     16 H1         -2.5110   -0.1700   -0.8380 hc        1 KTA      0.071700
     17 H4C1       -3.0820   -3.3410   -3.3850 hc        1 KTA      0.050200
     18 H4C2       -4.7240   -3.1960   -2.6340 hc        1 KTA      0.050200
     19 H2C1       -0.9520   -2.7380   -1.5540 hc        1 KTA      0.090700
     20 H2C2       -1.5460   -2.1560    0.0650 hc        1 KTA      0.090700
     21 H7C1        0.2930   -0.7490   -1.9900 hc        1 KTA      0.024700
     22 H7C2       -0.4760    0.8850   -1.9540 hc        1 KTA      0.024700
@<TRIPOS>BOND
     1    1    2 1   
     2    1    3 1   
     3    1    4 1   
     4    4    5 1   
     5    4   21 1   
     6    4   22 1   
     7    5    6 1   
     8    5   10 1   
     9    5   16 1   
    10    6    7 1   
    11    6   19 1   
    12    6   20 1   
    13    7    8 1   
    14    7   11 2   
    15    8    9 1   
    16    8   17 1   
    17    8   18 1   
    18    9   10 1   
    19    9   14 1   
    20    9   15 1   
    21   10   12 1   
    22   10   13 1   
@<TRIPOS>SUBSTRUCTURE
     1 KTA         1 TEMP              0 ****  ****    0 ROOT
