@<TRIPOS>MOLECULE
KTA
   22    21     1     0     0
SMALL
bcc


@<TRIPOS>ATOM
      1 C8          1.4800    1.7890    1.9660 c1        1 KTA      0.327000
      2 O1          2.7390    1.7890    1.9660 o         1 KTA     -0.582500
      3 O2          0.8500    1.7890    3.0570 o         1 KTA     -0.582500
      4 C7          0.7240    1.7920    0.6560 c2        1 KTA     -0.224000
      5 C1          0.2200    0.3560    0.3460 c3        1 KTA     -0.079000
      6 C2          1.0700   -0.2210   -0.7760 c3        1 KTA     -0.205000
      7 C3          0.5840   -1.6480   -1.0980 c2        1 KTA      0.238000
      8 C4         -0.9400   -1.7520   -1.3870 c3        1 KTA     -0.212000
      9 C5         -1.7050   -1.1090   -0.2350 c3        1 KTA     -0.147000
     10 C6         -1.2350    0.4230    0.0290 c3        1 KTA     -0.163000
     11 O3          1.1860   -2.6080   -0.6610 o         1 KTA     -0.330000
     12 H6C1       -1.3810    0.9620   -0.7720 hc        1 KTA      0.071000
     13 H6C2       -1.7270    0.8010    0.7830 hc        1 KTA      0.071000
     14 H5C1       -2.6590   -1.1160   -0.4440 hc        1 KTA      0.071000
     15 H5C2       -1.5540   -1.6300    0.5770 hc        1 KTA      0.071000
     16 H1          0.3400   -0.1960    1.1420 hc        1 KTA      0.111000
     17 H4C1       -1.2230   -1.3360   -2.2230 hc        1 KTA      0.089500
     18 H4C2       -1.1880   -2.6840   -1.5420 hc        1 KTA      0.089500
     19 H2C1        1.1370    0.3760   -1.5460 hc        1 KTA      0.130000
     20 H2C2        2.0050   -0.2630   -0.4990 hc        1 KTA      0.130000
     21 H7C1       -0.0400    2.3970    0.7230 ha        1 KTA      0.064000
     22 H7C2        1.3150    2.0910   -0.0600 ha        1 KTA      0.064000
@<TRIPOS>BOND
     1    1    2 1   
     2    1    3 1   
     3    4    5 1   
     4    4   21 1   
     5    4   22 1   
     6    5    6 1   
     7    5   10 1   
     8    5   16 1   
     9    6    7 1   
    10    6   19 1   
    11    6   20 1   
    12    7    8 1   
    13    7   11 1   
    14    8    9 1   
    15    8   17 1   
    16    8   18 1   
    17    9   10 1   
    18    9   14 1   
    19    9   15 1   
    20   10   12 1   
    21   10   13 1   
@<TRIPOS>SUBSTRUCTURE
     1 KTA         1 TEMP              0 ****  ****    0 ROOT
