@<TRIPOS>MOLECULE
KTC
   54    53     1     0     0
SMALL
bcc


@<TRIPOS>ATOM
      1 O1          0.5680    0.1590    0.7350 o         1 KTC     -0.853300
      2 C17         1.7020   -0.3790    0.5790 c         1 KTC      0.907600
      3 O           2.3600   -0.9160    1.5170 o         1 KTC     -0.853300
      4 C16         2.2960   -0.3970   -0.8410 c3        1 KTC     -0.194400
      5 C15         3.7520   -0.0020   -0.8290 c3        1 KTC     -0.065400
      6 C14         4.4050   -0.2020   -2.1810 c3        1 KTC     -0.078400
      7 C13         5.8630    0.2040   -2.1550 c3        1 KTC     -0.079400
      8 C12         6.5290   -0.0180   -3.4960 c3        1 KTC     -0.078400
      9 C11         7.9910    0.3730   -3.4520 c3        1 KTC     -0.079400
     10 C10         8.6680    0.1370   -4.7850 c3        1 KTC     -0.074400
     11 C9         10.1390    0.4870   -4.7120 c3        1 KTC     -0.181400
     12 C8         10.8420    0.3320   -6.0300 c         1 KTC      0.565100
     13 O2         10.2650    0.4120   -7.1190 o         1 KTC     -0.533100
     14 C7         12.3210    0.0790   -5.9130 c3        1 KTC     -0.184400
     15 C6         13.0490    0.2500   -7.2280 c3        1 KTC     -0.075400
     16 C5         14.5210   -0.0680   -7.0830 c3        1 KTC     -0.078400
     17 C4         15.2510    0.1130   -8.3970 c3        1 KTC     -0.078400
     18 C3         16.7240   -0.2060   -8.2550 c3        1 KTC     -0.079400
     19 C2         17.4540   -0.0240   -9.5690 c3        1 KTC     -0.079400
     20 C1         18.9270   -0.3430   -9.4300 c3        1 KTC     -0.080400
     21 C          19.6580   -0.1630  -10.7350 c3        1 KTC     -0.092100
     22 H2          1.7090    0.2910   -1.4980 hc        1 KTC      0.019200
     23 H3          2.1850   -1.4360   -1.2440 hc        1 KTC      0.019200
     24 H4          4.2830   -0.6110   -0.0500 hc        1 KTC      0.043700
     25 H5          3.8440    1.0740   -0.5260 hc        1 KTC      0.043700
     26 H6          3.8610    0.3990   -2.9570 hc        1 KTC      0.026700
     27 H7          4.3220   -1.2800   -2.4820 hc        1 KTC      0.026700
     28 H8          5.9450    1.2860   -1.8690 hc        1 KTC      0.035700
     29 H9          6.3990   -0.3870   -1.3660 hc        1 KTC      0.035700
     30 H10         6.0020    0.5830   -4.2830 hc        1 KTC      0.036700
     31 H11         6.4370   -1.0970   -3.7880 hc        1 KTC      0.036700
     32 H12         8.0810    1.4550   -3.1700 hc        1 KTC      0.036200
     33 H13         8.5120   -0.2200   -2.6540 hc        1 KTC      0.036200
     34 H14         8.1760    0.7540   -5.5820 hc        1 KTC      0.052200
     35 H15         8.5540   -0.9380   -5.0840 hc        1 KTC      0.052200
     36 H16        10.2580    1.5570   -4.3880 hc        1 KTC      0.062200
     37 H17        10.6450   -0.1530   -3.9420 hc        1 KTC      0.062200
     38 H18        12.7470    0.7760   -5.1440 hc        1 KTC      0.063200
     39 H19        12.4610   -0.9680   -5.5320 hc        1 KTC      0.063200
     40 H20        12.5850   -0.4190   -8.0000 hc        1 KTC      0.053700
     41 H21        12.9200    1.3040   -7.5910 hc        1 KTC      0.053700
     42 H22        14.6460   -1.1250   -6.7270 hc        1 KTC      0.037200
     43 H23        14.9770    0.5990   -6.3040 hc        1 KTC      0.037200
     44 H24        15.1280    1.1700   -8.7530 hc        1 KTC      0.041700
     45 H25        14.7940   -0.5530   -9.1750 hc        1 KTC      0.041700
     46 H26        16.8480   -1.2630   -7.9000 hc        1 KTC      0.038700
     47 H27        17.1810    0.4600   -7.4760 hc        1 KTC      0.038700
     48 H28        17.3310    1.0330   -9.9250 hc        1 KTC      0.039700
     49 H29        16.9980   -0.6900  -10.3480 hc        1 KTC      0.039700
     50 H30        19.0490   -1.4000   -9.0730 hc        1 KTC      0.037700
     51 H31        19.3810    0.3230   -8.6490 hc        1 KTC      0.037700
     52 H32        19.2360   -0.8370  -11.5200 hc        1 KTC      0.031367
     53 H33        20.7420   -0.4030  -10.6100 hc        1 KTC      0.031367
     54 H34        19.5700    0.8910  -11.0950 hc        1 KTC      0.031367
@<TRIPOS>BOND
     1    1    2 1   
     2    2    3 1   
     3    2    4 1   
     4    4    5 1   
     5    4   22 1   
     6    4   23 1   
     7    5    6 1   
     8    5   24 1   
     9    5   25 1   
    10    6    7 1   
    11    6   26 1   
    12    6   27 1   
    13    7    8 1   
    14    7   28 1   
    15    7   29 1   
    16    8    9 1   
    17    8   30 1   
    18    8   31 1   
    19    9   10 1   
    20    9   32 1   
    21    9   33 1   
    22   10   11 1   
    23   10   34 1   
    24   10   35 1   
    25   11   12 1   
    26   11   36 1   
    27   11   37 1   
    28   12   13 2   
    29   12   14 1   
    30   14   15 1   
    31   14   38 1   
    32   14   39 1   
    33   15   16 1   
    34   15   40 1   
    35   15   41 1   
    36   16   17 1   
    37   16   42 1   
    38   16   43 1   
    39   17   18 1   
    40   17   44 1   
    41   17   45 1   
    42   18   19 1   
    43   18   46 1   
    44   18   47 1   
    45   19   20 1   
    46   19   48 1   
    47   19   49 1   
    48   20   21 1   
    49   20   50 1   
    50   20   51 1   
    51   21   52 1   
    52   21   53 1   
    53   21   54 1   
@<TRIPOS>SUBSTRUCTURE
     1 KTC         1 TEMP              0 ****  ****    0 ROOT
