@<TRIPOS>MOLECULE
KTD
   34    30     1     0     0
SMALL
bcc


@<TRIPOS>ATOM
      1 CAJ         4.0250    0.4110    1.6950 c1        1 KTD     -0.159000
      2 CAV         5.3920    0.1280    1.7730 c1        1 KTD     -0.268000
      3 SAP         6.3640    0.0110    2.9820 s         1 KTD      0.206700
      4 N1          7.7200   -0.1930    2.4440 n2        1 KTD      0.007300
      5 N2          7.6310   -0.2080    1.0030 n2        1 KTD      0.009000
      6 CAU         6.1480   -0.0030    0.6030 c1        1 KTD     -0.166000
      7 CAI         5.5360    0.1500   -0.6440 c1        1 KTD     -0.104750
      8 CAH         4.1690    0.4340   -0.7210 c1        1 KTD     -0.104750
      9 CAS         3.4140    0.5640    0.4500 c1        1 KTD      0.119000
     10 N3          2.0590    1.0020    0.6940 n         1 KTD     -0.318000
     11 CAR         0.9800    0.4690   -0.0900 c2        1 KTD      0.382000
     12 OAB         1.2080   -0.3470   -0.9570 o         1 KTD     -0.377000
     13 N          -0.3790    0.8450    0.2060 n         1 KTD     -0.324000
     14 CA         -1.4640    0.3270   -0.5990 c3        1 KTD     -0.098000
     15 C          -2.6340   -0.0370    0.2990 c2        1 KTD      0.247000
     16 O          -2.4920   -0.0550    1.5020 o         1 KTD     -0.305000
     17 CAT        -3.9710   -0.3750   -0.3070 c2        1 KTD     -0.158000
     18 CAF        -4.2590   -1.6790   -0.6640 c2        1 KTD     -0.069000
     19 CAD        -5.4970   -1.9940   -1.1870 c1        1 KTD     -0.144000
     20 CAC        -6.4460   -1.0080   -1.3530 c1        1 KTD     -0.104750
     21 CAE        -6.1580    0.2960   -0.9960 c1        1 KTD     -0.104750
     22 CAG        -4.9210    0.6110   -0.4730 c1        1 KTD     -0.088000
     23 H1          3.4990    0.5020    2.5100 ha        1 KTD      0.144000
     24 H2          6.0640    0.0590   -1.4620 ha        1 KTD      0.155250
     25 H3          3.7390    0.5410   -1.5970 ha        1 KTD      0.155250
     26 H4          1.8840    1.5760    1.3790 hn        1 KTD      0.232000
     27 H5         -0.5530    1.4340    0.8800 hn        1 KTD      0.218000
     28 H6         -1.7480    1.0110   -1.2460 h1        1 KTD      0.138000
     29 H7         -1.1600   -0.4720   -1.0800 h1        1 KTD      0.138000
     30 H8         -3.5940   -2.3690   -0.5470 ha        1 KTD      0.157000
     31 H9         -5.6990   -2.9110   -1.4390 ha        1 KTD      0.141000
     32 H10        -7.3160   -1.2290   -1.7200 ha        1 KTD      0.155250
     33 H11        -6.8240    0.9870   -1.1130 ha        1 KTD      0.155250
     34 H12        -4.7190    1.5230   -0.2230 ha        1 KTD      0.137000
@<TRIPOS>BOND
     1    1    9 1   
     2    1   23 1   
     3    2    6 1   
     4    3    4 2   
     5    4    5 1   
     6    5    6 1   
     7    7    8 1   
     8    7   24 1   
     9    8   25 1   
    10    9   10 1   
    11   10   11 1   
    12   10   26 1   
    13   11   12 1   
    14   11   13 1   
    15   13   14 1   
    16   13   27 1   
    17   14   15 1   
    18   14   28 1   
    19   14   29 1   
    20   15   16 1   
    21   15   17 1   
    22   17   18 1   
    23   17   22 1   
    24   18   19 1   
    25   18   30 1   
    26   19   31 1   
    27   20   21 1   
    28   20   32 1   
    29   21   33 1   
    30   22   34 1   
@<TRIPOS>SUBSTRUCTURE
     1 KTD         1 TEMP              0 ****  ****    0 ROOT
