@<TRIPOS>MOLECULE
KTD
   35    37     1     0     0
SMALL
bcc


@<TRIPOS>ATOM
      1 CAJ         0.1970    0.0840    0.1090 ca        1 KTD     -0.079000
      2 CAV         1.5860    0.1680    0.0180 ca        1 KTD     -0.084100
      3 SAP         2.8110    0.3200    1.1740 ss        1 KTD      0.201600
      4 N1          4.0360    0.3230   -0.0000 nc        1 KTD     -0.088500
      5 N2          3.6500    0.2240   -1.1670 nd        1 KTD     -0.116400
      6 CAU         2.2290    0.1260   -1.2700 ca        1 KTD      0.010400
      7 CAI         1.4690    0.0030   -2.4420 ca        1 KTD     -0.013000
      8 CAH         0.0920   -0.0750   -2.3420 ca        1 KTD     -0.161000
      9 CAS        -0.5470   -0.0390   -1.0690 ca        1 KTD      0.026600
     10 N3         -1.9660   -0.1750   -1.0530 ns        1 KTD     -0.416100
     11 CAR        -2.7490    0.3700   -0.0720 c         1 KTD      0.644100
     12 OAB        -2.4150    0.9000    0.9900 o         1 KTD     -0.482100
     13 N          -4.2720    0.2550   -0.2810 ny        1 KTD     -0.658800
     14 CA         -5.0320    0.9590    0.7930 c3        1 KTD     -0.004200
     15 C          -6.5410    0.9520    0.5280 c         1 KTD      0.588700
     16 O          -6.9610    0.4280   -0.5120 o         1 KTD     -0.539100
     17 CAT        -7.3720    1.5810    1.5470 ca        1 KTD     -0.207600
     18 CAF        -8.7650    1.5710    1.3600 ca        1 KTD     -0.065500
     19 CAD        -9.6030    2.1600    2.3050 ca        1 KTD     -0.133500
     20 CAC        -9.0610    2.7620    3.4400 ca        1 KTD     -0.060000
     21 CAE        -7.6760    2.7760    3.6310 ca        1 KTD     -0.133500
     22 CAG        -6.8330    2.1900    2.6930 ca        1 KTD     -0.065500
     23 H1         -0.2840    0.1210    1.1010 ha        1 KTD      0.173000
     24 H2          1.9660   -0.0280   -3.4270 ha        1 KTD      0.181000
     25 H3         -0.5030   -0.1710   -3.2650 ha        1 KTD      0.150000
     26 H4         -2.3720   -0.5330   -1.8930 hn        1 KTD      0.350500
     27 H5         -4.5510   -0.7340   -0.2830 hn        1 KTD      0.465800
     28 H6         -4.6650    2.0250    0.8530 hx        1 KTD      0.139200
     29 H7         -4.8120    0.4530    1.7780 hx        1 KTD      0.139200
     30 H8         -9.1880    1.0940    0.4590 ha        1 KTD      0.146500
     31 H9        -10.6940    2.1480    2.1520 ha        1 KTD      0.159500
     32 H10        -9.7230    3.2280    4.1890 ha        1 KTD      0.160000
     33 H11        -7.2500    3.2530    4.5280 ha        1 KTD      0.159500
     34 H12        -5.7460    2.2160    2.8640 ha        1 KTD      0.146500
     35 H21        -4.5470    0.6570   -1.1860 hn        1 KTD      0.465800
@<TRIPOS>BOND
     1    1    2 ar  
     2    1    9 ar  
     3    1   23 1   
     4    2    3 1   
     5    2    6 ar  
     6    3    4 1   
     7    4    5 2   
     8    5    6 1   
     9    6    7 ar  
    10    7    8 ar  
    11    7   24 1   
    12    8    9 ar  
    13    8   25 1   
    14    9   10 1   
    15   10   11 1   
    16   10   26 1   
    17   11   12 2   
    18   11   13 1   
    19   13   14 1   
    20   13   27 1   
    21   13   35 1   
    22   14   15 1   
    23   14   28 1   
    24   14   29 1   
    25   15   16 2   
    26   15   17 1   
    27   17   18 ar  
    28   17   22 ar  
    29   18   19 ar  
    30   18   30 1   
    31   19   20 ar  
    32   19   31 1   
    33   20   21 ar  
    34   20   32 1   
    35   21   22 ar  
    36   21   33 1   
    37   22   34 1   
@<TRIPOS>SUBSTRUCTURE
     1 KTD         1 TEMP              0 ****  ****    0 ROOT
