@<TRIPOS>MOLECULE
KTD
   36    38     1     0     0
SMALL
bcc


@<TRIPOS>ATOM
      1 CAJ         0.1960   -0.6210    0.0630 ca        1 KTD     -0.014000
      2 CAV         0.9670   -0.4270   -1.0840 ca        1 KTD     -0.144100
      3 SAP         2.6110   -0.5690   -1.4130 ss        1 KTD      0.355600
      4 N1          2.4130   -0.1370   -3.0300 nc        1 KTD     -0.065500
      5 N2          1.2550    0.1070   -3.3860 nd        1 KTD     -0.090400
      6 CAU         0.3210   -0.0380   -2.3210 ca        1 KTD      0.048400
      7 CAI        -1.0740    0.1360   -2.3880 ca        1 KTD      0.010000
      8 CAH        -1.8270   -0.0520   -1.2450 ca        1 KTD     -0.185000
      9 CAS        -1.1860   -0.4210   -0.0280 ca        1 KTD     -0.112400
     10 N3         -2.0350   -0.6860    1.1380 n4        1 KTD     -0.492200
     11 CAR        -2.2190    0.5260    1.9960 c         1 KTD      0.499100
     12 OAB        -2.0420    0.4790    3.2030 o         1 KTD     -0.308100
     13 N          -2.6170    1.8100    1.3380 n4        1 KTD     -0.626800
     14 CA         -4.0440    2.1750    1.6540 c3        1 KTD     -0.024200
     15 C          -5.0710    1.2080    1.0440 c         1 KTD      0.631700
     16 O          -4.6240    0.1790    0.4990 o         1 KTD     -0.649100
     17 CAT        -6.4570    1.5780    1.1610 ca        1 KTD     -0.236600
     18 CAF        -7.4230    0.7410    0.5600 ca        1 KTD     -0.047000
     19 CAD        -8.7750    1.0590    0.6470 ca        1 KTD     -0.130000
     20 CAC        -9.1840    2.2040    1.3320 ca        1 KTD     -0.016000
     21 CAE        -8.2310    3.0390    1.9350 ca        1 KTD     -0.130000
     22 CAG        -6.8810    2.7330    1.8520 ca        1 KTD     -0.047000
     23 H1          0.6880   -0.9380    1.0000 ha        1 KTD      0.178000
     24 H2         -1.5540    0.4040   -3.3490 ha        1 KTD      0.211000
     25 H3         -2.9290    0.0210   -1.3040 ha        1 KTD      0.179000
     26 H4         -2.9770   -1.0100    0.8090 hn        1 KTD      0.524800
     27 H5         -2.5070    1.7430    0.3090 hn        1 KTD      0.503300
     28 H6         -4.2120    3.2130    1.2310 hx        1 KTD      0.160200
     29 H7         -4.1710    2.2040    2.7770 hx        1 KTD      0.160200
     30 H8         -7.0970   -0.1640    0.0200 ha        1 KTD      0.144500
     31 H9         -9.5250    0.4010    0.1730 ha        1 KTD      0.178000
     32 H10       -10.2570    2.4560    1.4020 ha        1 KTD      0.181000
     33 H11        -8.5610    3.9420    2.4770 ha        1 KTD      0.178000
     34 H12        -6.1540    3.4000    2.3380 ha        1 KTD      0.144500
     35 H32        -1.6110   -1.4260    1.7320 hn        1 KTD      0.524800
     36 H21        -1.9960    2.5550    1.7030 hn        1 KTD      0.503300
@<TRIPOS>BOND
     1    1    2 ar  
     2    1    9 ar  
     3    1   23 1   
     4    2    3 1   
     5    2    6 ar  
     6    3    4 1   
     7    4    5 2   
     8    5    6 1   
     9    6    7 ar  
    10    7    8 ar  
    11    7   24 1   
    12    8    9 ar  
    13    8   25 1   
    14    9   10 1   
    15   10   11 1   
    16   10   26 1   
    17   10   35 1   
    18   11   12 2   
    19   11   13 1   
    20   13   14 1   
    21   13   27 1   
    22   13   36 1   
    23   14   15 1   
    24   14   28 1   
    25   14   29 1   
    26   15   16 2   
    27   15   17 1   
    28   17   18 ar  
    29   17   22 ar  
    30   18   19 ar  
    31   18   30 1   
    32   19   20 ar  
    33   19   31 1   
    34   20   21 ar  
    35   20   32 1   
    36   21   22 ar  
    37   21   33 1   
    38   22   34 1   
@<TRIPOS>SUBSTRUCTURE
     1 KTD         1 TEMP              0 ****  ****    0 ROOT
