@<TRIPOS>MOLECULE
KTD
   34    36     1     0     0
SMALL
bcc


@<TRIPOS>ATOM
      1 CAJ         2.5800   -0.2220   -0.3310 ca        1 KTD     -0.119000
      2 CAV         3.9100   -0.5160   -0.6060 ca        1 KTD     -0.046100
      3 SAP         4.6810   -1.9070   -1.2030 ss        1 KTD      0.117600
      4 N1          6.2200   -1.1830   -1.1460 nc        1 KTD     -0.115500
      5 N2          6.2370   -0.0230   -0.7340 nd        1 KTD     -0.133400
      6 CAU         4.9400    0.4630   -0.3910 ca        1 KTD     -0.030600
      7 CAI         4.6060    1.7320    0.1050 ca        1 KTD     -0.024000
      8 CAH         3.2830    2.0150    0.3820 ca        1 KTD     -0.190000
      9 CAS         2.2490    1.0500    0.1700 ca        1 KTD      0.104600
     10 N3          0.9290    1.4480    0.4300 n         1 KTD     -0.464100
     11 CAR        -0.1430    0.5710    0.6900 c         1 KTD      0.754100
     12 OAB        -0.0480   -0.6660    0.5220 o         1 KTD     -0.617100
     13 N          -1.3350    1.1350    1.2120 n         1 KTD     -0.514900
     14 CA         -2.5380    0.3430    1.1370 c3        1 KTD     -0.032000
     15 C          -3.5870    0.8430    0.1550 c         1 KTD      0.556700
     16 O          -3.4470    1.9180   -0.4450 o         1 KTD     -0.544100
     17 CAT        -4.7740   -0.0110   -0.0300 ca        1 KTD     -0.178600
     18 CAF        -5.6920    0.3270   -1.0370 ca        1 KTD     -0.078500
     19 CAD        -6.8250   -0.4550   -1.2470 ca        1 KTD     -0.143500
     20 CAC        -7.0560   -1.5790   -0.4530 ca        1 KTD     -0.094000
     21 CAE        -6.1490   -1.9180    0.5520 ca        1 KTD     -0.143500
     22 CAG        -5.0130   -1.1400    0.7640 ca        1 KTD     -0.078500
     23 H1          1.8050   -0.9880   -0.5020 ha        1 KTD      0.188000
     24 H2          5.3900    2.4860    0.2720 ha        1 KTD      0.157000
     25 H3          3.0280    3.0130    0.7730 ha        1 KTD      0.138000
     26 H4          0.8250    2.4030    0.7000 hn        1 KTD      0.319500
     27 H5         -1.4920    2.1050    1.0190 hn        1 KTD      0.303500
     28 H6         -2.2830   -0.7280    0.8820 h1        1 KTD      0.098700
     29 H7         -3.0040    0.3620    2.1670 h1        1 KTD      0.098700
     30 H8         -5.5030    1.2190   -1.6570 ha        1 KTD      0.147000
     31 H9         -7.5380   -0.1840   -2.0400 ha        1 KTD      0.140500
     32 H10        -7.9500   -2.1970   -0.6190 ha        1 KTD      0.138000
     33 H11        -6.3300   -2.8040    1.1790 ha        1 KTD      0.140500
     34 H12        -4.3100   -1.4250    1.5620 ha        1 KTD      0.147000
@<TRIPOS>BOND
     1    1    2 ar  
     2    1    9 ar  
     3    1   23 1   
     4    2    3 1   
     5    2    6 ar  
     6    3    4 1   
     7    4    5 2   
     8    5    6 1   
     9    6    7 ar  
    10    7    8 ar  
    11    7   24 1   
    12    8    9 ar  
    13    8   25 1   
    14    9   10 1   
    15   10   11 1   
    16   10   26 1   
    17   11   12 2   
    18   11   13 1   
    19   13   14 1   
    20   13   27 1   
    21   14   15 1   
    22   14   28 1   
    23   14   29 1   
    24   15   16 2   
    25   15   17 1   
    26   17   18 ar  
    27   17   22 ar  
    28   18   19 ar  
    29   18   30 1   
    30   19   20 ar  
    31   19   31 1   
    32   20   21 ar  
    33   20   32 1   
    34   21   22 ar  
    35   21   33 1   
    36   22   34 1   
@<TRIPOS>SUBSTRUCTURE
     1 KTD         1 TEMP              0 ****  ****    0 ROOT
