@<TRIPOS>MOLECULE
KTH
   10    10     1     0     0
SMALL
bcc


@<TRIPOS>ATOM
      1 S1         -1.0850    0.0030    0.8750 ss        1 KTH     -0.042300
      2 O2          0.2220    0.0000   -2.8340 o         1 KTH     -0.476100
      3 C5          0.1760    0.0010    1.9570 cc        1 KTH     -0.243400
      4 C2          0.0130    0.0010   -0.4500 cc        1 KTH      0.272900
      5 C2'        -0.4890    0.0010   -1.8330 c         1 KTH      0.489400
      6 C4          1.3960   -0.0000    1.2840 cd        1 KTH      0.322200
      7 N3          1.3050   -0.0010   -0.0920 nd        1 KTH     -0.566000
      8 H5          0.0610    0.0020    3.0390 h4        1 KTH      0.187000
      9 H2'        -1.6020    0.0030   -1.8990 h4        1 KTH      0.004200
     10 H4          2.3900   -0.0010    1.7480 h4        1 KTH      0.052100
@<TRIPOS>BOND
     1    1    3 1   
     2    1    4 1   
     3    2    5 2   
     4    3    6 2   
     5    3    8 1   
     6    4    5 1   
     7    4    7 2   
     8    5    9 1   
     9    6    7 1   
    10    6   10 1   
@<TRIPOS>SUBSTRUCTURE
     1 KTH         1 TEMP              0 ****  ****    0 ROOT
