@<TRIPOS>MOLECULE
KTH
   10    10     1     0     0
SMALL
bcc


@<TRIPOS>ATOM
      1 S1         -0.0820    0.0010    0.0580 ss        1 KTH     -0.042300
      2 O2         -1.5140    0.0020    3.7200 o         1 KTH     -0.476100
      3 C5          1.5800   -0.0000    0.0620 cc        1 KTH     -0.243400
      4 C2         -0.1160    0.0010    1.7780 cc        1 KTH      0.272900
      5 C2'        -1.3990    0.0020    2.4980 c         1 KTH      0.489400
      6 C4          2.0640    0.0000    1.3690 cd        1 KTH      0.322200
      7 N3          1.0960    0.0010    2.3510 nd        1 KTH     -0.566000
      8 H5          2.1990   -0.0010   -0.8330 h4        1 KTH      0.187000
      9 H2'        -2.2850    0.0020    1.8210 h4        1 KTH      0.004200
     10 H4          3.1200   -0.0000    1.6670 h4        1 KTH      0.052100
@<TRIPOS>BOND
     1    1    3 1   
     2    1    4 1   
     3    2    5 2   
     4    3    6 2   
     5    3    8 1   
     6    4    5 1   
     7    4    7 2   
     8    5    9 1   
     9    6    7 1   
    10    6   10 1   
@<TRIPOS>SUBSTRUCTURE
     1 KTH         1 TEMP              0 ****  ****    0 ROOT
