@<TRIPOS>MOLECULE
KTJ
   22    23     1     0     0
SMALL
bcc


@<TRIPOS>ATOM
      1 CAH         0.0580   -0.0390    0.0550 ca        1 KTJ     -0.092000
      2 CAI         1.4500   -0.0520    0.0990 ca        1 KTJ     -0.184500
      3 CAJ         2.1010   -0.0680    1.3390 ca        1 KTJ      0.120100
      4 OAM         3.4720   -0.0790    1.4610 oh        1 KTJ     -0.498100
      5 CAK         1.3650   -0.0750    2.5360 ca        1 KTJ     -0.184500
      6 CAL        -0.0230   -0.0590    2.4740 ca        1 KTJ     -0.092000
      7 CAG        -0.6940   -0.0360    1.2390 ca        1 KTJ     -0.031000
      8 CAC        -2.1310   -0.0200    1.2040 cc        1 KTJ     -0.236300
      9 CAB        -3.0190   -0.7580    2.0060 cd        1 KTJ     -0.115300
     10 NAA        -4.3030   -0.3910    1.6270 na        1 KTJ     -0.017600
     11 NAE        -4.3240    0.5150    0.6450 nd        1 KTJ     -0.567800
     12 CAD        -3.0030    0.7830    0.3380 cc        1 KTJ      0.518200
     13 NAF        -2.5580    1.6200   -0.6860 nv        1 KTJ     -0.887500
     14 H1         -0.4530   -0.0520   -0.9200 ha        1 KTJ      0.142000
     15 H2          2.0330   -0.0550   -0.8330 ha        1 KTJ      0.142000
     16 H3          3.8490   -0.0850    0.5700 ho        1 KTJ      0.419000
     17 H4          1.8940   -0.0910    3.4990 ha        1 KTJ      0.142000
     18 H5         -0.6080   -0.0610    3.4060 ha        1 KTJ      0.142000
     19 H6         -2.8220   -1.4900    2.7890 h4        1 KTJ      0.178000
     20 H7         -5.1590   -0.7700    1.9570 hn        1 KTJ      0.322700
     21 H8         -1.6760    2.0330   -0.4600 hn        1 KTJ      0.391300
     22 H9         -3.2320    2.2970   -0.9790 hn        1 KTJ      0.391300
@<TRIPOS>BOND
     1    1    2 ar  
     2    1    7 ar  
     3    1   14 1   
     4    2    3 ar  
     5    2   15 1   
     6    3    4 1   
     7    3    5 ar  
     8    4   16 1   
     9    5    6 ar  
    10    5   17 1   
    11    6    7 ar  
    12    6   18 1   
    13    7    8 1   
    14    8    9 2   
    15    8   12 1   
    16    9   10 1   
    17    9   19 1   
    18   10   11 1   
    19   10   20 1   
    20   11   12 2   
    21   12   13 1   
    22   13   21 1   
    23   13   22 1   
@<TRIPOS>SUBSTRUCTURE
     1 KTJ         1 TEMP              0 ****  ****    0 ROOT
