@<TRIPOS>MOLECULE
KTJ
   23    24     1     0     0
SMALL
bcc


@<TRIPOS>ATOM
      1 CAH        -0.0060   -0.0020   -0.0360 ca        1 KTJ     -0.081500
      2 CAI         1.3770    0.0750   -0.0790 ca        1 KTJ     -0.178000
      3 CAJ         2.0970    0.1840    1.1290 ca        1 KTJ      0.169100
      4 OAM         3.4560    0.2680    1.0140 oh        1 KTJ     -0.472100
      5 CAK         1.4260    0.2060    2.3610 ca        1 KTJ     -0.178000
      6 CAL         0.0370    0.1250    2.3860 ca        1 KTJ     -0.081500
      7 CAG        -0.6920    0.0320    1.1920 ca        1 KTJ     -0.126000
      8 CAC        -2.1280   -0.0430    1.2200 cc        1 KTJ     -0.113300
      9 CAB        -2.9780   -0.9080    1.9350 cd        1 KTJ     -0.101300
     10 NAA        -4.2900   -0.5460    1.6050 na        1 KTJ      0.045400
     11 NAE        -4.3640    0.4560    0.7560 nd        1 KTJ     -0.444800
     12 CAD        -3.0510    0.8080    0.4850 cc        1 KTJ      0.282200
     13 NAF        -2.6540    1.8850   -0.3900 n4        1 KTJ     -0.770300
     14 H1         -0.5640   -0.1430   -0.9750 ha        1 KTJ      0.137500
     15 H2          1.9270    0.0370   -1.0320 ha        1 KTJ      0.165500
     16 H3          3.8450    0.2940    1.9040 ho        1 KTJ      0.440000
     17 H4          1.9930    0.2780    3.3020 ha        1 KTJ      0.165500
     18 H5         -0.4910    0.1370    3.3520 ha        1 KTJ      0.137500
     19 H6         -2.7490   -1.7270    2.6220 h4        1 KTJ      0.221000
     20 H7         -5.1330   -0.9740    1.9380 hn        1 KTJ      0.364700
     21 H8         -3.0410    1.7410   -1.3310 hn        1 KTJ      0.473133
     22 H9         -1.6230    1.8860   -0.4320 hn        1 KTJ      0.473133
     23 HAF3       -2.9890    2.7830   -0.0190 hn        1 KTJ      0.473133
@<TRIPOS>BOND
     1    1    2 ar  
     2    1    7 ar  
     3    1   14 1   
     4    2    3 ar  
     5    2   15 1   
     6    3    4 1   
     7    3    5 ar  
     8    4   16 1   
     9    5    6 ar  
    10    5   17 1   
    11    6    7 ar  
    12    6   18 1   
    13    7    8 1   
    14    8    9 2   
    15    8   12 1   
    16    9   10 1   
    17    9   19 1   
    18   10   11 1   
    19   10   20 1   
    20   11   12 2   
    21   12   13 1   
    22   13   21 1   
    23   13   22 1   
    24   13   23 1   
@<TRIPOS>SUBSTRUCTURE
     1 KTJ         1 TEMP              0 ****  ****    0 ROOT
