@<TRIPOS>MOLECULE
KTJ
   22    23     1     0     0
SMALL
bcc


@<TRIPOS>ATOM
      1 CAH         0.0570    0.1590    0.0390 ca        1 KTJ     -0.092000
      2 CAI         1.4480    0.2100    0.0720 ca        1 KTJ     -0.184500
      3 CAJ         2.1110    0.1310    1.3040 ca        1 KTJ      0.120100
      4 OAM         3.4820    0.1760    1.4160 oh        1 KTJ     -0.498100
      5 CAK         1.3880   -0.0030    2.5010 ca        1 KTJ     -0.184500
      6 CAL         0.0010   -0.0480    2.4500 ca        1 KTJ     -0.092000
      7 CAG        -0.6830    0.0370    1.2240 ca        1 KTJ     -0.031000
      8 CAC        -2.1200   -0.0130    1.2000 cc        1 KTJ     -0.236300
      9 CAB        -2.9640   -0.8510    1.9490 cd        1 KTJ     -0.115300
     10 NAA        -4.2680   -0.5180    1.6060 na        1 KTJ     -0.017600
     11 NAE        -4.3410    0.4580    0.6960 nd        1 KTJ     -0.567800
     12 CAD        -3.0370    0.8100    0.4020 cc        1 KTJ      0.518200
     13 NAF        -2.6420    1.7430   -0.5580 nh        1 KTJ     -0.887500
     14 H1         -0.4620    0.1970   -0.9320 ha        1 KTJ      0.142000
     15 H2          2.0210    0.3060   -0.8610 ha        1 KTJ      0.142000
     16 H3          3.8500    0.2560    0.5240 ho        1 KTJ      0.419000
     17 H4          1.9270   -0.0670    3.4560 ha        1 KTJ      0.142000
     18 H5         -0.5750   -0.1500    3.3820 ha        1 KTJ      0.142000
     19 H6         -2.7250   -1.6300    2.6720 h4        1 KTJ      0.178000
     20 H7         -5.1010   -0.9620    1.9120 hn        1 KTJ      0.322700
     21 H8         -3.3500    2.4070   -0.7950 hn        1 KTJ      0.391300
     22 H9         -1.7780    2.1790   -0.3070 hn        1 KTJ      0.391300
@<TRIPOS>BOND
     1    1    2 ar  
     2    1    7 ar  
     3    1   14 1   
     4    2    3 ar  
     5    2   15 1   
     6    3    4 1   
     7    3    5 ar  
     8    4   16 1   
     9    5    6 ar  
    10    5   17 1   
    11    6    7 ar  
    12    6   18 1   
    13    7    8 1   
    14    8    9 2   
    15    8   12 1   
    16    9   10 1   
    17    9   19 1   
    18   10   11 1   
    19   10   20 1   
    20   11   12 2   
    21   12   13 1   
    22   13   21 1   
    23   13   22 1   
@<TRIPOS>SUBSTRUCTURE
     1 KTJ         1 TEMP              0 ****  ****    0 ROOT
