@<TRIPOS>MOLECULE
KTJ
   22    23     1     0     0
SMALL
bcc


@<TRIPOS>ATOM
      1 CAH         0.8980   -0.9040    0.5740 ca        1 KTJ     -0.092000
      2 CAI         2.2860   -0.9880    0.4980 ca        1 KTJ     -0.184500
      3 CAJ         3.0060    0.0390   -0.1260 ca        1 KTJ      0.120100
      4 OAM         4.3780    0.0240   -0.2410 oh        1 KTJ     -0.498100
      5 CAK         2.3430    1.1510   -0.6720 ca        1 KTJ     -0.184500
      6 CAL         0.9580    1.2180   -0.5900 ca        1 KTJ     -0.092000
      7 CAG         0.2180    0.1940    0.0260 ca        1 KTJ     -0.031000
      8 CAC        -1.2150    0.2880    0.0970 cc        1 KTJ     -0.236300
      9 CAB        -1.9890    1.4250    0.3880 cd        1 KTJ     -0.115300
     10 NAA        -3.3200    1.0350    0.3150 na        1 KTJ     -0.017600
     11 NAE        -3.4740   -0.2560    0.0080 nd        1 KTJ     -0.567800
     12 CAD        -2.2010   -0.7740   -0.1370 cc        1 KTJ      0.518200
     13 NAF        -1.8890   -2.1120   -0.3850 nh        1 KTJ     -0.887500
     14 H1          0.3360   -1.7000    1.0860 ha        1 KTJ      0.142000
     15 H2          2.8120   -1.8510    0.9290 ha        1 KTJ      0.142000
     16 H3          4.7030   -0.7830    0.1830 ho        1 KTJ      0.419000
     17 H4          2.9260    1.9480   -1.1540 ha        1 KTJ      0.142000
     18 H5          0.4290    2.0840   -1.0170 ha        1 KTJ      0.142000
     19 H6         -1.6850    2.4420    0.6330 h4        1 KTJ      0.178000
     20 H7         -4.1190    1.5850    0.5240 hn        1 KTJ      0.322700
     21 H8         -1.0340   -2.1960   -0.8960 hn        1 KTJ      0.391300
     22 H9         -2.6350   -2.6330   -0.7980 hn        1 KTJ      0.391300
@<TRIPOS>BOND
     1    1    2 ar  
     2    1    7 ar  
     3    1   14 1   
     4    2    3 ar  
     5    2   15 1   
     6    3    4 1   
     7    3    5 ar  
     8    4   16 1   
     9    5    6 ar  
    10    5   17 1   
    11    6    7 ar  
    12    6   18 1   
    13    7    8 1   
    14    8    9 2   
    15    8   12 1   
    16    9   10 1   
    17    9   19 1   
    18   10   11 1   
    19   10   20 1   
    20   11   12 2   
    21   12   13 1   
    22   13   21 1   
    23   13   22 1   
@<TRIPOS>SUBSTRUCTURE
     1 KTJ         1 TEMP              0 ****  ****    0 ROOT
