@<TRIPOS>MOLECULE
KTK
   34    36     1     0     0
SMALL
bcc


@<TRIPOS>ATOM
      1 CAO        -0.2000   -0.7630   -0.1150 ca        1 KTK     -0.084500
      2 CAP         1.1490   -1.0020   -0.3640 ca        1 KTK     -0.190000
      3 CAQ         2.1010   -0.6180    0.5900 ca        1 KTK      0.124100
      4 OAT         3.4510   -0.8200    0.4150 oh        1 KTK     -0.497100
      5 CAR         1.7090    0.0000    1.7890 ca        1 KTK     -0.190000
      6 CAS         0.3580    0.2300    2.0220 ca        1 KTK     -0.084500
      7 CAN        -0.6090   -0.1460    1.0760 ca        1 KTK     -0.036000
      8 CAJ        -2.0110    0.0750    1.3390 cc        1 KTK     -0.244300
      9 CAK        -2.9280   -0.9170    1.9060 cc        1 KTK      0.517200
     10 NAM        -2.5460   -2.1830    2.3530 nh        1 KTK     -0.884500
     11 NAL        -4.1890   -0.3660    2.0180 nd        1 KTK     -0.563800
     12 NAA        -4.1030    0.8740    1.5370 na        1 KTK      0.002400
     13 CAB        -2.8040    1.2280    1.1460 cd        1 KTK     -0.000300
     14 CAC        -2.4460    2.5230    0.6040 ca        1 KTK     -0.084000
     15 CAH        -1.4130    2.6060   -0.3470 ca        1 KTK     -0.041000
     16 CAG        -1.0110    3.8170   -0.8890 ca        1 KTK     -0.188000
     17 CAF        -1.6560    4.9980   -0.4800 ca        1 KTK      0.172100
     18 OAI        -1.2170    6.1670   -1.0480 oh        1 KTK     -0.489100
     19 CAE        -2.6920    4.9600    0.4590 ca        1 KTK     -0.304000
     20 CAD        -3.0830    3.7220    0.9910 ca        1 KTK      0.174100
     21 OAU        -4.1110    3.6470    1.9030 oh        1 KTK     -0.511100
     22 H1         -0.9520   -1.0600   -0.8610 ha        1 KTK      0.141500
     23 H2          1.4630   -1.4860   -1.2990 ha        1 KTK      0.142500
     24 H3          3.5790   -1.2550   -0.4410 ho        1 KTK      0.418000
     25 H4          2.4720    0.2910    2.5240 ha        1 KTK      0.142500
     26 H5          0.0390    0.7080    2.9610 ha        1 KTK      0.141500
     27 H6         -3.3000   -2.8340    2.4220 hn        1 KTK      0.389300
     28 H7         -1.7780   -2.5410    1.8230 hn        1 KTK      0.389300
     29 H9         -0.9080    1.6750   -0.6580 ha        1 KTK      0.158000
     30 H10        -0.2000    3.8700   -1.6290 ha        1 KTK      0.158000
     31 H11        -1.7340    6.8980   -0.6780 ho        1 KTK      0.422000
     32 H12        -3.1940    5.8840    0.7780 ha        1 KTK      0.138000
     33 H13        -4.3720    4.5480    2.1430 ho        1 KTK      0.430000
     34 H8         -4.8440    1.5190    1.7020 hn        1 KTK      0.330700
@<TRIPOS>BOND
     1    1    2 ar  
     2    1    7 ar  
     3    1   22 1   
     4    2    3 ar  
     5    2   23 1   
     6    3    4 1   
     7    3    5 ar  
     8    4   24 1   
     9    5    6 ar  
    10    5   25 1   
    11    6    7 ar  
    12    6   26 1   
    13    7    8 1   
    14    8    9 1   
    15    8   13 2   
    16    9   10 1   
    17    9   11 2   
    18   10   27 1   
    19   10   28 1   
    20   11   12 1   
    21   12   13 1   
    22   12   34 1   
    23   13   14 1   
    24   14   15 ar  
    25   14   20 ar  
    26   15   16 ar  
    27   15   29 1   
    28   16   17 ar  
    29   16   30 1   
    30   17   18 1   
    31   17   19 ar  
    32   18   31 1   
    33   19   20 ar  
    34   19   32 1   
    35   20   21 1   
    36   21   33 1   
@<TRIPOS>SUBSTRUCTURE
     1 KTK         1 TEMP              0 ****  ****    0 ROOT
