@<TRIPOS>MOLECULE
KTK
   34    36     1     0     0
SMALL
bcc


@<TRIPOS>ATOM
      1 CAO         1.1860    1.0420   -0.9130 ca        1 KTK     -0.086500
      2 CAP         1.8000    2.2910   -0.9140 ca        1 KTK     -0.186500
      3 CAQ         2.8050    2.5620    0.0240 ca        1 KTK      0.126100
      4 OAT         3.4620    3.7690    0.0830 oh        1 KTK     -0.496100
      5 CAR         3.1930    1.5900    0.9620 ca        1 KTK     -0.186500
      6 CAS         2.5680    0.3490    0.9500 ca        1 KTK     -0.086500
      7 CAN         1.5620    0.0580    0.0140 ca        1 KTK     -0.052000
      8 CAJ         0.9390   -1.2400   -0.0080 cc        1 KTK     -0.240300
      9 CAK         1.6340   -2.5310    0.0060 cc        1 KTK      0.519200
     10 NAM         3.0090   -2.6910    0.1820 nh        1 KTK     -0.888500
     11 NAL         0.7100   -3.5540   -0.0910 nd        1 KTK     -0.558800
     12 NAA        -0.4870   -2.9730   -0.1500 na        1 KTK     -0.005600
     13 CAB        -0.4300   -1.5760   -0.1010 cd        1 KTK     -0.022300
     14 CAC        -1.6210   -0.7480   -0.1390 ca        1 KTK     -0.163000
     15 CAH        -2.5100   -0.8560   -1.2210 ca        1 KTK     -0.049000
     16 CAG        -3.6670   -0.0950   -1.2830 ca        1 KTK     -0.198000
     17 CAF        -3.9520    0.8010   -0.2350 ca        1 KTK      0.171100
     18 OAI        -5.1130    1.5250   -0.3500 oh        1 KTK     -0.492100
     19 CAE        -3.0920    0.9370    0.8570 ca        1 KTK     -0.257000
     20 CAD        -1.9230    0.1580    0.8990 ca        1 KTK      0.207100
     21 OAU        -1.1400    0.3320    2.0090 oh        1 KTK     -0.492100
     22 H1          0.3940    0.8220   -1.6460 ha        1 KTK      0.146000
     23 H2          1.4990    3.0560   -1.6420 ha        1 KTK      0.143500
     24 H3          3.0900    4.3440   -0.6020 ho        1 KTK      0.419000
     25 H4          3.9800    1.8250    1.6930 ha        1 KTK      0.143500
     26 H5          2.8600   -0.4110    1.6930 ha        1 KTK      0.146000
     27 H6          3.5180   -1.9210   -0.2030 hn        1 KTK      0.393800
     28 H7          3.3600   -3.5750   -0.1240 hn        1 KTK      0.393800
     29 H9         -2.2770   -1.5560   -2.0390 ha        1 KTK      0.140000
     30 H10        -4.3620   -0.1760   -2.1300 ha        1 KTK      0.156000
     31 H11        -5.1920    2.0960    0.4290 ho        1 KTK      0.425000
     32 H12        -3.3070    1.6330    1.6790 ha        1 KTK      0.157000
     33 H13        -0.3030   -0.1470    1.8760 ho        1 KTK      0.445000
     34 H8         -1.3100   -3.5290   -0.1730 hn        1 KTK      0.326700
@<TRIPOS>BOND
     1    1    2 ar  
     2    1    7 ar  
     3    1   22 1   
     4    2    3 ar  
     5    2   23 1   
     6    3    4 1   
     7    3    5 ar  
     8    4   24 1   
     9    5    6 ar  
    10    5   25 1   
    11    6    7 ar  
    12    6   26 1   
    13    7    8 1   
    14    8    9 1   
    15    8   13 2   
    16    9   10 1   
    17    9   11 2   
    18   10   27 1   
    19   10   28 1   
    20   11   12 1   
    21   12   13 1   
    22   12   34 1   
    23   13   14 1   
    24   14   15 ar  
    25   14   20 ar  
    26   15   16 ar  
    27   15   29 1   
    28   16   17 ar  
    29   16   30 1   
    30   17   18 1   
    31   17   19 ar  
    32   18   31 1   
    33   19   20 ar  
    34   19   32 1   
    35   20   21 1   
    36   21   33 1   
@<TRIPOS>SUBSTRUCTURE
     1 KTK         1 TEMP              0 ****  ****    0 ROOT
