@<TRIPOS>MOLECULE
KTK
   35    37     1     0     0
SMALL
bcc


@<TRIPOS>ATOM
      1 CAO        -0.2090   -1.0750    0.0660 ca        1 KTK     -0.085500
      2 CAP         1.1370   -1.3440   -0.1560 ca        1 KTK     -0.184000
      3 CAQ         2.1070   -0.6840    0.6150 ca        1 KTK      0.161100
      4 OAT         3.4500   -0.8960    0.4660 oh        1 KTK     -0.473100
      5 CAR         1.7280    0.2440    1.6050 ca        1 KTK     -0.184000
      6 CAS         0.3810    0.5020    1.8130 ca        1 KTK     -0.085500
      7 CAN        -0.6010   -0.1570    1.0520 ca        1 KTK     -0.121000
      8 CAJ        -2.0010    0.0940    1.2900 cc        1 KTK     -0.148300
      9 CAK        -2.9290   -0.8910    1.8130 cc        1 KTK      0.282200
     10 NAM        -2.5700   -2.2500    2.1430 n4        1 KTK     -0.768300
     11 NAL        -4.1940   -0.3500    1.9660 nd        1 KTK     -0.452800
     12 NAA        -4.0930    0.8900    1.5490 na        1 KTK      0.050400
     13 CAB        -2.7970    1.2560    1.1290 cd        1 KTK      0.052700
     14 CAC        -2.4540    2.5590    0.6100 ca        1 KTK     -0.147000
     15 CAH        -1.3870    2.6670   -0.3060 ca        1 KTK     -0.027000
     16 CAG        -1.0010    3.8850   -0.8330 ca        1 KTK     -0.185000
     17 CAF        -1.6930    5.0540   -0.4470 ca        1 KTK      0.211100
     18 OAI        -1.2590    6.2240   -1.0010 oh        1 KTK     -0.469100
     19 CAE        -2.7610    4.9880    0.4540 ca        1 KTK     -0.306000
     20 CAD        -3.1390    3.7400    0.9710 ca        1 KTK      0.202100
     21 OAU        -4.1940    3.6320    1.8450 oh        1 KTK     -0.528100
     22 H1         -0.9690   -1.5630   -0.5650 ha        1 KTK      0.144000
     23 H2          1.4400   -2.0550   -0.9390 ha        1 KTK      0.163500
     24 H3          3.5890   -1.5080   -0.2740 ho        1 KTK      0.436000
     25 H4          2.5060    0.7550    2.1930 ha        1 KTK      0.163500
     26 H5          0.0780    1.2350    2.5780 ha        1 KTK      0.144000
     27 H6         -1.6120   -2.4070    1.7950 hn        1 KTK      0.469467
     28 H7         -2.5960   -2.3810    3.1620 hn        1 KTK      0.469467
     29 H9         -0.8480    1.7510   -0.6010 ha        1 KTK      0.155000
     30 H10        -0.1680    3.9640   -1.5480 ha        1 KTK      0.174000
     31 H11        -1.8080    6.9520   -0.6680 ho        1 KTK      0.438000
     32 H12        -3.3000    5.8980    0.7530 ha        1 KTK      0.155000
     33 H13        -4.5190    4.5220    2.0550 ho        1 KTK      0.451000
     34 H8         -4.8760    1.5170    1.6280 hn        1 KTK      0.370700
     35 HAM3       -3.2180   -2.9120    1.7000 hn        1 KTK      0.469467
@<TRIPOS>BOND
     1    1    2 ar  
     2    1    7 ar  
     3    1   22 1   
     4    2    3 ar  
     5    2   23 1   
     6    3    4 1   
     7    3    5 ar  
     8    4   24 1   
     9    5    6 ar  
    10    5   25 1   
    11    6    7 ar  
    12    6   26 1   
    13    7    8 1   
    14    8    9 1   
    15    8   13 2   
    16    9   10 1   
    17    9   11 2   
    18   10   27 1   
    19   10   28 1   
    20   10   35 1   
    21   11   12 1   
    22   12   13 1   
    23   12   34 1   
    24   13   14 1   
    25   14   15 ar  
    26   14   20 ar  
    27   15   16 ar  
    28   15   29 1   
    29   16   17 ar  
    30   16   30 1   
    31   17   18 1   
    32   17   19 ar  
    33   18   31 1   
    34   19   20 ar  
    35   19   32 1   
    36   20   21 1   
    37   21   33 1   
@<TRIPOS>SUBSTRUCTURE
     1 KTK         1 TEMP              0 ****  ****    0 ROOT
