@<TRIPOS>MOLECULE
KTK
   34    27     1     0     0
SMALL
bcc


@<TRIPOS>ATOM
      1 CAO         1.2500   -1.2370   -1.3050 c1        1 KTK     -0.094000
      2 CAP         2.6360   -1.2780   -1.3000 c1        1 KTK     -0.161000
      3 CAQ         3.3200   -1.4590   -0.1080 c1        1 KTK      0.074000
      4 OAT         4.7260   -1.4780   -0.1010 o         1 KTK     -0.258500
      5 CAR         2.6180   -1.5980    1.0790 c2        1 KTK     -0.217000
      6 CAS         1.2330   -1.5570    1.0750 c1        1 KTK     -0.087000
      7 CAN         0.5490   -1.3760   -0.1170 c1        1 KTK     -0.036000
      8 CAJ        -0.9650   -1.3670   -0.1270 c2        1 KTK     -0.173000
      9 CAK        -1.7740   -2.4640   -0.1790 c1        1 KTK      0.006500
     10 NAM        -1.3450   -3.8140   -0.2610 n2        1 KTK     -0.284000
     11 NAL        -3.0540   -2.0390   -0.1480 n2        1 KTK     -0.132500
     12 NAA        -3.0460   -0.6690   -0.0760 n2        1 KTK     -0.132500
     13 CAB        -1.7610   -0.2590   -0.0630 c1        1 KTK      0.006500
     14 CAC        -1.2850    1.1770   -0.0430 c1        1 KTK     -0.087000
     15 CAH        -0.8880    1.7910   -1.2210 c2        1 KTK     -0.033000
     16 CAG        -0.5070    3.1240   -1.2130 c1        1 KTK     -0.246000
     17 CAF        -0.5220    3.8420   -0.0280 c1        1 KTK      0.126000
     18 OAI        -0.1880    5.2090   -0.0300 oh        1 KTK     -0.246000
     19 CAE        -0.9200    3.2280    1.1500 c1        1 KTK     -0.249000
     20 CAD        -1.3010    1.8960    1.1420 c1        1 KTK      0.124000
     21 OAU        -1.7040    1.2720    2.3370 o         1 KTK     -0.258500
     22 H1          0.7680   -1.1100   -2.1440 ha        1 KTK      0.153000
     23 H2          3.1300   -1.1800   -2.1370 ha        1 KTK      0.151000
     24 H3          5.0110   -2.3200   -0.1190 ho        1 KTK      0.224000
     25 H4          3.1000   -1.7250    1.9190 ha        1 KTK      0.133000
     26 H5          0.7390   -1.6550    1.9110 ha        1 KTK      0.141000
     27 H6         -0.4810   -4.0320   -0.0550 hn        1 KTK      0.185000
     28 H7         -1.9320   -4.4660   -0.5170 hn        1 KTK      0.185000
     29 H9         -0.8770    1.2860   -2.0550 ha        1 KTK      0.160000
     30 H10        -0.2270    3.5560   -2.0420 ha        1 KTK      0.142000
     31 H11         0.6910    5.3000    0.0700 ho        1 KTK      0.225000
     32 H12        -0.9310    3.7340    1.9840 ha        1 KTK      0.155000
     33 H13        -2.2810    1.7960    2.7650 ho        1 KTK      0.224000
     34 H8         -3.7810   -0.1300   -0.0420 DU        1 KTK      0.283000
@<TRIPOS>BOND
     1    1    7 1   
     2    1   22 1   
     3    2    3 1   
     4    2   23 1   
     5    3    5 1   
     6    4   24 1   
     7    5    6 1   
     8    5   25 1   
     9    6   26 1   
    10    7    8 1   
    11    8    9 1   
    12    8   13 1   
    13    9   11 1   
    14   10   27 1   
    15   10   28 1   
    16   11   12 1   
    17   12   13 1   
    18   14   15 1   
    19   14   20 1   
    20   15   16 1   
    21   15   29 1   
    22   16   30 1   
    23   17   18 1   
    24   17   19 1   
    25   18   31 1   
    26   19   32 1   
    27   21   33 1   
@<TRIPOS>SUBSTRUCTURE
     1 KTK         1 TEMP              0 ****  ****    0 ROOT
