@<TRIPOS>MOLECULE
KTK
   34    36     1     0     0
SMALL
bcc


@<TRIPOS>ATOM
      1 CAO        -0.2220   -0.7720   -0.1170 ca        1 KTK     -0.084500
      2 CAP         1.1220   -1.0200   -0.3810 ca        1 KTK     -0.190000
      3 CAQ         2.0870   -0.6380    0.5600 ca        1 KTK      0.124100
      4 OAT         3.4340   -0.8480    0.3700 oh        1 KTK     -0.497100
      5 CAR         1.7130   -0.0130    1.7610 ca        1 KTK     -0.190000
      6 CAS         0.3660    0.2250    2.0090 ca        1 KTK     -0.084500
      7 CAN        -0.6150   -0.1490    1.0750 ca        1 KTK     -0.036000
      8 CAJ        -2.0120    0.0820    1.3530 cc        1 KTK     -0.244300
      9 CAK        -2.9280   -0.9020    1.9360 cc        1 KTK      0.517200
     10 NAM        -2.5480   -2.1680    2.3840 nv        1 KTK     -0.884500
     11 NAL        -4.1850   -0.3430    2.0590 nd        1 KTK     -0.563800
     12 NAA        -4.0970    0.8940    1.5710 na        1 KTK      0.002400
     13 CAB        -2.8000    1.2380    1.1630 cd        1 KTK     -0.000300
     14 CAC        -2.4410    2.5290    0.6110 ca        1 KTK     -0.084000
     15 CAH        -1.4190    2.6020   -0.3510 ca        1 KTK     -0.041000
     16 CAG        -1.0160    3.8080   -0.9040 ca        1 KTK     -0.188000
     17 CAF        -1.6480    4.9940   -0.4930 ca        1 KTK      0.172100
     18 OAI        -1.2090    6.1580   -1.0720 oh        1 KTK     -0.489100
     19 CAE        -2.6740    4.9670    0.4580 ca        1 KTK     -0.304000
     20 CAD        -3.0660    3.7340    1.0000 ca        1 KTK      0.174100
     21 OAU        -4.0840    3.6680    1.9240 oh        1 KTK     -0.511100
     22 H1         -0.9850   -1.0680   -0.8540 ha        1 KTK      0.141500
     23 H2          1.4230   -1.5100   -1.3180 ha        1 KTK      0.142500
     24 H3          3.5500   -1.2870   -0.4840 ho        1 KTK      0.418000
     25 H4          2.4860    0.2770    2.4860 ha        1 KTK      0.142500
     26 H5          0.0610    0.7090    2.9490 ha        1 KTK      0.141500
     27 H6         -3.3050   -2.8140    2.4650 hn        1 KTK      0.389300
     28 H7         -1.7890   -2.5330    1.8470 hn        1 KTK      0.389300
     29 H9         -0.9230    1.6660   -0.6640 ha        1 KTK      0.158000
     30 H10        -0.2130    3.8520   -1.6530 ha        1 KTK      0.158000
     31 H11        -1.7180    6.8930   -0.6990 ho        1 KTK      0.422000
     32 H12        -3.1670    5.8950    0.7780 ha        1 KTK      0.138000
     33 H13        -4.3370    4.5720    2.1630 ho        1 KTK      0.430000
     34 H8         -4.8320    1.5440    1.7420 hn        1 KTK      0.330700
@<TRIPOS>BOND
     1    1    2 ar  
     2    1    7 ar  
     3    1   22 1   
     4    2    3 ar  
     5    2   23 1   
     6    3    4 1   
     7    3    5 ar  
     8    4   24 1   
     9    5    6 ar  
    10    5   25 1   
    11    6    7 ar  
    12    6   26 1   
    13    7    8 1   
    14    8    9 1   
    15    8   13 2   
    16    9   10 1   
    17    9   11 2   
    18   10   27 1   
    19   10   28 1   
    20   11   12 1   
    21   12   13 1   
    22   12   34 1   
    23   13   14 1   
    24   14   15 ar  
    25   14   20 ar  
    26   15   16 ar  
    27   15   29 1   
    28   16   17 ar  
    29   16   30 1   
    30   17   18 1   
    31   17   19 ar  
    32   18   31 1   
    33   19   20 ar  
    34   19   32 1   
    35   20   21 1   
    36   21   33 1   
@<TRIPOS>SUBSTRUCTURE
     1 KTK         1 TEMP              0 ****  ****    0 ROOT
