@<TRIPOS>MOLECULE
KTL
   50    51     1     0     0
SMALL
bcc


@<TRIPOS>ATOM
      1 OAA         7.1730   -0.8800   -0.6200 oh        1 KTL     -0.613800
      2 OAB        -5.3320    2.3710    0.0860 oh        1 KTL     -0.585800
      3 OAC         4.8030   -2.2460   -0.7350 oh        1 KTL     -0.617800
      4 OAD        -5.5510   -2.1850    0.2300 oh        1 KTL     -0.594800
      5 OAE         0.5450   -1.9190   -1.1990 oh        1 KTL     -0.589800
      6 OAF         3.0700   -0.4480   -1.6980 oh        1 KTL     -0.615800
      7 OAG        -4.1400   -0.4790   -2.3180 oh        1 KTL     -0.601800
      8 OAH         2.8950   -0.8560    1.9260 oh        1 KTL     -0.585800
      9 OAI        -0.0840    2.1390    3.1100 o         1 KTL     -0.707300
     10 OAJ        -1.5010    1.2020    1.4230 os        1 KTL     -0.702400
     11 OAK         0.2420    2.6400    0.7780 o         1 KTL     -0.707300
     12 CAL         5.9800   -0.1220   -0.7480 c3        1 KTL      0.091400
     13 CAM        -4.5190    1.4400    0.7640 c3        1 KTL      0.146400
     14 CAN        -3.1950   -1.7690    0.6630 c3        1 KTL     -0.188600
     15 CAO        -1.2440   -0.4380   -0.6140 c3        1 KTL     -0.069600
     16 OAP         0.7100    0.3970    1.6100 os        1 KTL     -0.612500
     17 CAQ         4.8660   -0.9670   -0.1210 c3        1 KTL      0.114100
     18 CAR        -4.3160   -1.8150   -0.3620 c3        1 KTL      0.165100
     19 CAS         0.0250   -1.1430   -0.1360 c3        1 KTL      0.143100
     20 CAT         3.5020   -0.2980   -0.3560 c3        1 KTL      0.114100
     21 CAU        -4.5430   -0.4030   -0.9590 c3        1 KTL      0.149100
     22 CAV         2.4380   -0.8900    0.5940 c3        1 KTL      0.116100
     23 CAW        -3.6810    0.6230   -0.2170 c3        1 KTL     -0.047900
     24 CAX         1.0940   -0.1490    0.3840 c3        1 KTL      0.152100
     25 SAY        -2.4060   -0.2080    0.6790 s6        1 KTL      0.013300
     26 HOAA        7.8620   -0.3960   -1.0880 ho        1 KTL      0.410000
     27 HOAB       -4.7580    3.0750   -0.2410 ho        1 KTL      0.405000
     28 HOAC        5.6930   -2.6200   -0.6880 ho        1 KTL      0.432000
     29 HOAD       -5.4610   -3.1050    0.5090 ho        1 KTL      0.413000
     30 HOAE        0.9760   -1.3120   -1.8190 ho        1 KTL      0.421000
     31 HOAF        3.2220   -1.3710   -1.9500 ho        1 KTL      0.427000
     32 HOAG       -4.6290    0.2000   -2.7970 ho        1 KTL      0.418000
     33 HOAH        2.6270   -0.0170    2.3270 ho        1 KTL      0.424000
     34 HAL         6.0810    0.8530   -0.2030 h1        1 KTL      0.040200
     35 HALA        5.7520    0.0700   -1.8300 h1        1 KTL      0.040200
     36 HAM        -3.8390    1.9570    1.4970 h1        1 KTL      0.074200
     37 HAMA       -5.2450    0.7780    1.3130 h1        1 KTL      0.074200
     38 HAN        -3.6190   -1.9340    1.6880 h1        1 KTL      0.103200
     39 HAO        -0.9690    0.5660   -1.0360 h1        1 KTL      0.121200
     40 HAQ         5.0450   -1.0890    0.9840 h1        1 KTL      0.082700
     41 HAR        -4.0640   -2.5300   -1.1960 h1        1 KTL      0.070700
     42 HAS        -0.2170   -1.8940    0.6690 h1        1 KTL      0.085700
     43 HAT         3.5950    0.8120   -0.2000 h1        1 KTL      0.079700
     44 HAU        -5.6320   -0.1240   -0.8800 h1        1 KTL      0.098700
     45 HAV         2.3240   -1.9890    0.3580 h1        1 KTL      0.098700
     46 HAX         1.2280    0.6730   -0.3800 h1        1 KTL      0.068700
     47 H22        -2.4750   -2.6040    0.4790 h1        1 KTL      0.103200
     48 H23        -1.6830   -1.0290   -1.4640 h1        1 KTL      0.121200
     49 H24        -3.2330    1.3290   -0.9660 h1        1 KTL      0.113700
     50 SAZ        -0.2070    1.8250    1.7880 s6        1 KTL      1.914000
@<TRIPOS>BOND
     1    1   12 1   
     2    1   26 1   
     3    2   13 1   
     4    2   27 1   
     5    3   17 1   
     6    3   28 1   
     7    4   18 1   
     8    4   29 1   
     9    5   19 1   
    10    5   30 1   
    11    6   20 1   
    12    6   31 1   
    13    7   21 1   
    14    7   32 1   
    15    8   22 1   
    16    8   33 1   
    17    9   50 2   
    18   10   25 1   
    19   10   50 1   
    20   11   50 2   
    21   12   17 1   
    22   12   34 1   
    23   12   35 1   
    24   13   23 1   
    25   13   36 1   
    26   13   37 1   
    27   14   18 1   
    28   14   25 1   
    29   14   38 1   
    30   14   47 1   
    31   15   19 1   
    32   15   25 1   
    33   15   39 1   
    34   15   48 1   
    35   16   24 1   
    36   16   50 1   
    37   17   20 1   
    38   17   40 1   
    39   18   21 1   
    40   18   41 1   
    41   19   24 1   
    42   19   42 1   
    43   20   22 1   
    44   20   43 1   
    45   21   23 1   
    46   21   44 1   
    47   22   24 1   
    48   22   45 1   
    49   23   25 1   
    50   23   49 1   
    51   24   46 1   
@<TRIPOS>SUBSTRUCTURE
     1 KTL         1 TEMP              0 ****  ****    0 ROOT
