@<TRIPOS>MOLECULE
KTN
   64    68     1     0     0
SMALL
bcc


@<TRIPOS>ATOM
      1 N1         -0.4030   -1.2630   -0.5010 na        1 KTN     -0.204900
      2 C1          0.8870   -1.7020   -0.8520 cc        1 KTN      0.398400
      3 N2          1.4250   -2.4670    0.1180 nd        1 KTN     -0.672000
      4 C2          0.4690   -2.5230    1.1350 cd        1 KTN      0.285200
      5 C3         -0.6660   -1.7780    0.7740 cc        1 KTN     -0.247600
      6 C4         -1.2590   -0.4290   -1.2760 c3        1 KTN      0.042300
      7 C5         -0.9430    1.0960   -1.2240 c3        1 KTN      0.381900
      8 O1          0.4100    1.3220   -1.6130 os        1 KTN     -0.418600
      9 C6          1.0730    2.1880   -0.6780 c3        1 KTN      0.121100
     10 C7          0.1130    2.2980    0.5050 c3        1 KTN      0.115400
     11 O2         -1.0440    1.5420    0.1290 os        1 KTN     -0.436600
     12 C8         -1.9250    1.8390   -2.1070 ca        1 KTN     -0.126300
     13 C9         -1.8830    1.8070   -3.5090 ca        1 KTN      0.048400
     14 C10        -2.8310    2.5060   -4.2680 ca        1 KTN     -0.133000
     15 C11        -3.8330    3.2340   -3.6240 ca        1 KTN      0.034400
     16 C12        -3.8950    3.2680   -2.2270 ca        1 KTN     -0.131000
     17 C13        -2.9450    2.5740   -1.4850 ca        1 KTN     -0.089000
     18 CL1        -4.9810    4.0800   -4.5440 cl        1 KTN     -0.075400
     19 C14         1.3500    3.5220   -1.3720 c3        1 KTN      0.109400
     20 O3          2.1970    4.2490   -0.4790 os        1 KTN     -0.333900
     21 C15         2.6930    5.4450   -0.9700 ca        1 KTN      0.101100
     22 C16         3.6330    6.0790   -0.1360 ca        1 KTN     -0.155500
     23 C17         4.1800    7.2930   -0.5170 ca        1 KTN     -0.130500
     24 C18         3.8160    7.9070   -1.7420 ca        1 KTN      0.097600
     25 C19         2.8770    7.2480   -2.5600 ca        1 KTN     -0.130500
     26 C20         2.3140    6.0320   -2.1780 ca        1 KTN     -0.155500
     27 N3          4.3460    9.1890   -2.0530 nh        1 KTN     -0.629000
     28 C21         3.7010    9.8990   -3.1450 c3        1 KTN      0.158300
     29 C22         4.2280   11.3450   -3.2950 c3        1 KTN      0.082500
     30 N4          5.6720   11.4330   -3.3290 n         1 KTN     -0.465800
     31 C23         6.3250   10.6910   -2.2790 c3        1 KTN      0.082500
     32 C24         5.8000    9.2430   -2.1230 c3        1 KTN      0.158300
     33 C25         6.3220   11.8140   -4.5020 c         1 KTN      0.654100
     34 O4          5.6600   12.2300   -5.4750 o         1 KTN     -0.605100
     35 C26         7.8290   11.7950   -4.5570 c3        1 KTN     -0.170100
     36 CL2        -0.7100    0.9310   -4.3740 cl        1 KTN     -0.070400
     37 HC1         1.3570   -1.4250   -1.8010 h5        1 KTN      0.066100
     38 HC2         0.6460   -3.0880    2.0490 h4        1 KTN      0.041100
     39 HC3        -1.5980   -1.5810    1.3000 h4        1 KTN      0.178000
     40 HC41       -2.3180   -0.5510   -0.9120 h1        1 KTN      0.082700
     41 HC42       -1.1900   -0.7440   -2.3570 h1        1 KTN      0.082700
     42 HC6         2.0360    1.6780   -0.4080 h1        1 KTN      0.101700
     43 HC71        0.5160    1.8260    1.4360 h1        1 KTN      0.073700
     44 HC72       -0.2120    3.3500    0.7040 h1        1 KTN      0.073700
     45 H10        -2.7850    2.4780   -5.3680 ha        1 KTN      0.165000
     46 H12        -4.6860    3.8390   -1.7160 ha        1 KTN      0.156000
     47 H13        -2.9900    2.6010   -0.3820 ha        1 KTN      0.164000
     48 H141        0.4020    4.0930   -1.5450 h1        1 KTN      0.056700
     49 H142        1.8720    3.3420   -2.3480 h1        1 KTN      0.056700
     50 H16         3.9180    5.6050    0.8150 ha        1 KTN      0.145000
     51 H17         4.8990    7.7840    0.1570 ha        1 KTN      0.138500
     52 H19         2.5630    7.6820   -3.5220 ha        1 KTN      0.138500
     53 H20         1.5790    5.5520   -2.8390 ha        1 KTN      0.145000
     54 H211        3.8350    9.3650   -4.1310 h1        1 KTN      0.045200
     55 H212        2.5990    9.9570   -2.9220 h1        1 KTN      0.045200
     56 H221        3.8700   11.9580   -2.4200 h1        1 KTN      0.066200
     57 H222        3.7950   11.7770   -4.2410 h1        1 KTN      0.066200
     58 H231        6.1470   11.2450   -1.3110 h1        1 KTN      0.066200
     59 H232        7.4340   10.6330   -2.4500 h1        1 KTN      0.066200
     60 H241        6.1950    8.6200   -2.9770 h1        1 KTN      0.045200
     61 H242        6.2230    8.8290   -1.1670 h1        1 KTN      0.045200
     62 H261        8.1520   12.2810   -5.5110 hc        1 KTN      0.066700
     63 H262        8.2040   10.7440   -4.5450 hc        1 KTN      0.066700
     64 H263        8.2690   12.3580   -3.7000 hc        1 KTN      0.066700
@<TRIPOS>BOND
     1    1    2 1   
     2    1    5 1   
     3    1    6 1   
     4    2    3 2   
     5    2   37 1   
     6    3    4 1   
     7    4    5 2   
     8    4   38 1   
     9    5   39 1   
    10    6    7 1   
    11    6   40 1   
    12    6   41 1   
    13    7    8 1   
    14    7   11 1   
    15    7   12 1   
    16    8    9 1   
    17    9   10 1   
    18    9   19 1   
    19    9   42 1   
    20   10   11 1   
    21   10   43 1   
    22   10   44 1   
    23   12   13 ar  
    24   12   17 ar  
    25   13   14 ar  
    26   13   36 1   
    27   14   15 ar  
    28   14   45 1   
    29   15   16 ar  
    30   15   18 1   
    31   16   17 ar  
    32   16   46 1   
    33   17   47 1   
    34   19   20 1   
    35   19   48 1   
    36   19   49 1   
    37   20   21 1   
    38   21   22 ar  
    39   21   26 ar  
    40   22   23 ar  
    41   22   50 1   
    42   23   24 ar  
    43   23   51 1   
    44   24   25 ar  
    45   24   27 1   
    46   25   26 ar  
    47   25   52 1   
    48   26   53 1   
    49   27   28 1   
    50   27   32 1   
    51   28   29 1   
    52   28   54 1   
    53   28   55 1   
    54   29   30 1   
    55   29   56 1   
    56   29   57 1   
    57   30   31 1   
    58   30   33 1   
    59   31   32 1   
    60   31   58 1   
    61   31   59 1   
    62   32   60 1   
    63   32   61 1   
    64   33   34 2   
    65   33   35 1   
    66   35   62 1   
    67   35   63 1   
    68   35   64 1   
@<TRIPOS>SUBSTRUCTURE
     1 KTN         1 TEMP              0 ****  ****    0 ROOT
