@<TRIPOS>MOLECULE
KTN
   64    68     1     0     0
SMALL
bcc


@<TRIPOS>ATOM
      1 N1         -2.5840    0.8020    5.4200 na        1 KTN     -0.204900
      2 C1         -2.9370    2.0980    5.0010 cc        1 KTN      0.398400
      3 N2         -4.2290    2.3660    5.2770 nd        1 KTN     -0.672000
      4 C2         -4.7390    1.2150    5.8810 cd        1 KTN      0.285200
      5 C3         -3.7380    0.2330    5.9730 cc        1 KTN     -0.247600
      6 C4         -1.3110    0.1780    5.2780 c3        1 KTN      0.042300
      7 C5         -1.0010   -0.4090    3.8690 c3        1 KTN      0.381900
      8 O1         -1.1380    0.6090    2.8800 os        1 KTN     -0.418600
      9 C6         -1.9340    0.1490    1.7780 c3        1 KTN      0.121100
     10 C7         -2.5320   -1.1750    2.2500 c3        1 KTN      0.115400
     11 O2         -1.9840   -1.3970    3.5550 os        1 KTN     -0.436600
     12 C8          0.3860   -1.0190    3.8770 ca        1 KTN     -0.126300
     13 C9          1.5650   -0.2580    3.8960 ca        1 KTN      0.048400
     14 C10         2.8180   -0.8850    3.9170 ca        1 KTN     -0.133000
     15 C11         2.8950   -2.2780    3.9280 ca        1 KTN      0.034400
     16 C12         1.7290   -3.0510    3.9190 ca        1 KTN     -0.131000
     17 C13         0.4920   -2.4170    3.8940 ca        1 KTN     -0.089000
     18 CL1         4.4130   -3.0360    3.9530 cl        1 KTN     -0.075400
     19 C14        -1.0270    0.0130    0.5540 c3        1 KTN      0.109400
     20 O3         -1.9050   -0.2290   -0.5480 os        1 KTN     -0.333900
     21 C15        -1.3040   -0.2460   -1.7960 ca        1 KTN      0.101100
     22 C16        -2.1980   -0.3440   -2.8780 ca        1 KTN     -0.155500
     23 C17        -1.7060   -0.3920   -4.1720 ca        1 KTN     -0.130500
     24 C18        -0.3140   -0.3330   -4.4270 ca        1 KTN      0.097600
     25 C19         0.5590   -0.2280   -3.3260 ca        1 KTN     -0.130500
     26 C20         0.0720   -0.1930   -2.0210 ca        1 KTN     -0.155500
     27 N3          0.1460   -0.4620   -5.7670 nh        1 KTN     -0.629000
     28 C21         1.5680   -0.7140   -5.9320 c3        1 KTN      0.158300
     29 C22         1.9430   -1.0110   -7.4030 c3        1 KTN      0.082500
     30 N4          1.4210   -0.0390   -8.3400 n         1 KTN     -0.465800
     31 C23         0.0220    0.2560   -8.1530 c3        1 KTN      0.082500
     32 C24        -0.3580    0.5520   -6.6820 c3        1 KTN      0.158300
     33 C25         2.2900    0.8130   -9.0180 c         1 KTN      0.654100
     34 O4          3.5230    0.6390   -8.9400 o         1 KTN     -0.605100
     35 C26         1.7280    1.8950   -9.9070 c3        1 KTN     -0.170100
     36 CL2         1.5630    1.4420    3.9040 cl        1 KTN     -0.070400
     37 HC1        -2.2220    2.7660    4.5100 h5        1 KTN      0.066100
     38 HC2        -5.7740    1.1600    6.2140 h4        1 KTN      0.041100
     39 HC3        -3.7550   -0.7800    6.3680 h4        1 KTN      0.178000
     40 HC41       -1.2390   -0.6780    6.0070 h1        1 KTN      0.082700
     41 HC42       -0.5090    0.9380    5.5030 h1        1 KTN      0.082700
     42 HC6        -2.7130    0.9380    1.6030 h1        1 KTN      0.101700
     43 HC71       -3.6430   -1.1300    2.3730 h1        1 KTN      0.073700
     44 HC72       -2.2410   -2.0390    1.6010 h1        1 KTN      0.073700
     45 H10         3.7380   -0.2780    3.9270 ha        1 KTN      0.165000
     46 H12         1.7870   -4.1500    3.9310 ha        1 KTN      0.156000
     47 H13        -0.4300   -3.0250    3.8840 ha        1 KTN      0.164000
     48 H141       -0.3180   -0.8470    0.6690 h1        1 KTN      0.056700
     49 H142       -0.4530    0.9640    0.3970 h1        1 KTN      0.056700
     50 H16        -3.2790   -0.3890   -2.6830 ha        1 KTN      0.145000
     51 H17        -2.4190   -0.4880   -5.0060 ha        1 KTN      0.138500
     52 H19         1.6490   -0.1770   -3.4720 ha        1 KTN      0.138500
     53 H20         0.7830   -0.1190   -1.1860 ha        1 KTN      0.145000
     54 H211        1.8360   -1.6200   -5.3210 h1        1 KTN      0.045200
     55 H212        2.1940    0.1540   -5.5720 h1        1 KTN      0.045200
     56 H221        1.5270   -2.0190   -7.6910 h1        1 KTN      0.066200
     57 H222        3.0660   -1.0500   -7.4750 h1        1 KTN      0.066200
     58 H231       -0.2930    1.1410   -8.7700 h1        1 KTN      0.066200
     59 H232       -0.5650   -0.6430   -8.5020 h1        1 KTN      0.066200
     60 H241       -1.4810    0.5690   -6.6170 h1        1 KTN      0.045200
     61 H242        0.0210    1.5800   -6.4080 h1        1 KTN      0.045200
     62 H261        2.5720    2.3570  -10.4760 hc        1 KTN      0.066700
     63 H262        0.9910    1.4750  -10.6330 hc        1 KTN      0.066700
     64 H263        1.2350    2.6850   -9.2910 hc        1 KTN      0.066700
@<TRIPOS>BOND
     1    1    2 1   
     2    1    5 1   
     3    1    6 1   
     4    2    3 2   
     5    2   37 1   
     6    3    4 1   
     7    4    5 2   
     8    4   38 1   
     9    5   39 1   
    10    6    7 1   
    11    6   40 1   
    12    6   41 1   
    13    7    8 1   
    14    7   11 1   
    15    7   12 1   
    16    8    9 1   
    17    9   10 1   
    18    9   19 1   
    19    9   42 1   
    20   10   11 1   
    21   10   43 1   
    22   10   44 1   
    23   12   13 ar  
    24   12   17 ar  
    25   13   14 ar  
    26   13   36 1   
    27   14   15 ar  
    28   14   45 1   
    29   15   16 ar  
    30   15   18 1   
    31   16   17 ar  
    32   16   46 1   
    33   17   47 1   
    34   19   20 1   
    35   19   48 1   
    36   19   49 1   
    37   20   21 1   
    38   21   22 ar  
    39   21   26 ar  
    40   22   23 ar  
    41   22   50 1   
    42   23   24 ar  
    43   23   51 1   
    44   24   25 ar  
    45   24   27 1   
    46   25   26 ar  
    47   25   52 1   
    48   26   53 1   
    49   27   28 1   
    50   27   32 1   
    51   28   29 1   
    52   28   54 1   
    53   28   55 1   
    54   29   30 1   
    55   29   56 1   
    56   29   57 1   
    57   30   31 1   
    58   30   33 1   
    59   31   32 1   
    60   31   58 1   
    61   31   59 1   
    62   32   60 1   
    63   32   61 1   
    64   33   34 2   
    65   33   35 1   
    66   35   62 1   
    67   35   63 1   
    68   35   64 1   
@<TRIPOS>SUBSTRUCTURE
     1 KTN         1 TEMP              0 ****  ****    0 ROOT
