@<TRIPOS>MOLECULE
KTN
   64    68     1     0     0
SMALL
bcc


@<TRIPOS>ATOM
      1 N1         -0.4010   -1.2760   -0.5690 na        1 KTN     -0.204900
      2 C1          0.8810   -1.7120   -0.9530 cc        1 KTN      0.398400
      3 N2          1.4350   -2.4950   -0.0080 nd        1 KTN     -0.672000
      4 C2          0.5000   -2.5670    1.0270 cd        1 KTN      0.285200
      5 C3         -0.6400   -1.8130    0.7020 cc        1 KTN     -0.247600
      6 C4         -1.2700   -0.4260   -1.3130 c3        1 KTN      0.042300
      7 C5         -0.9490    1.0970   -1.2390 c3        1 KTN      0.381900
      8 O1          0.3970    1.3280   -1.6480 os        1 KTN     -0.418600
      9 C6          1.0800    2.1740   -0.7110 c3        1 KTN      0.121100
     10 C7          0.1420    2.2650    0.4930 c3        1 KTN      0.115400
     11 O2         -1.0240    1.5180    0.1240 os        1 KTN     -0.436600
     12 C8         -1.9460    1.8580   -2.0890 ca        1 KTN     -0.126300
     13 C9         -1.9300    1.8520   -3.4910 ca        1 KTN      0.048400
     14 C10        -2.8910    2.5670   -4.2190 ca        1 KTN     -0.133000
     15 C11        -3.8790    3.2850   -3.5430 ca        1 KTN      0.034400
     16 C12        -3.9140    3.2930   -2.1440 ca        1 KTN     -0.131000
     17 C13        -2.9530    2.5830   -1.4340 ca        1 KTN     -0.089000
     18 CL1        -5.0420    4.1500   -4.4250 cl        1 KTN     -0.075400
     19 C14         1.3480    3.5200   -1.3850 c3        1 KTN      0.109400
     20 O3          2.2160    4.2270   -0.4960 os        1 KTN     -0.333900
     21 C15         2.7100    5.4280   -0.9760 ca        1 KTN      0.101100
     22 C16         3.6740    6.0400   -0.1530 ca        1 KTN     -0.155500
     23 C17         4.2210    7.2570   -0.5240 ca        1 KTN     -0.130500
     24 C18         3.8330    7.8960   -1.7280 ca        1 KTN      0.097600
     25 C19         2.8710    7.2600   -2.5370 ca        1 KTN     -0.130500
     26 C20         2.3070    6.0410   -2.1640 ca        1 KTN     -0.155500
     27 N3          4.3660    9.1800   -2.0280 nh        1 KTN     -0.629000
     28 C21         3.7000    9.9150   -3.0920 c3        1 KTN      0.158300
     29 C22         4.2350   11.3590   -3.2280 c3        1 KTN      0.082500
     30 N4          5.6780   11.4380   -3.2940 n         1 KTN     -0.465800
     31 C23         6.3490   10.6720   -2.2730 c3        1 KTN      0.082500
     32 C24         5.8170    9.2260   -2.1310 c3        1 KTN      0.158300
     33 C25         6.3030   11.8350   -4.4750 c         1 KTN      0.654100
     34 O4          5.6230   12.2730   -5.4250 o         1 KTN     -0.605100
     35 C26         7.8090   11.8060   -4.5660 c3        1 KTN     -0.170100
     36 CL2        -0.7760    0.9900   -4.3950 cl        1 KTN     -0.070400
     37 HC1         1.3330   -1.4190   -1.9060 h5        1 KTN      0.066100
     38 HC2         0.6920   -3.1480    1.9270 h4        1 KTN      0.041100
     39 HC3        -1.5610   -1.6230    1.2480 h4        1 KTN      0.178000
     40 HC41       -2.3220   -0.5530   -0.9300 h1        1 KTN      0.082700
     41 HC42       -1.2220   -0.7210   -2.4000 h1        1 KTN      0.082700
     42 HC6         2.0460    1.6570   -0.4680 h1        1 KTN      0.101700
     43 HC71       -0.1760    3.3140    0.7160 h1        1 KTN      0.073700
     44 HC72        0.5620    1.7750    1.4070 h1        1 KTN      0.073700
     45 H10        -2.8660    2.5590   -5.3210 ha        1 KTN      0.165000
     46 H12        -4.6940    3.8560   -1.6090 ha        1 KTN      0.156000
     47 H13        -2.9770    2.5910   -0.3300 ha        1 KTN      0.164000
     48 H141        1.8480    3.3570   -2.3750 h1        1 KTN      0.056700
     49 H142        0.3990    4.0980   -1.5270 h1        1 KTN      0.056700
     50 H16         3.9770    5.5460    0.7810 ha        1 KTN      0.145000
     51 H17         4.9590    7.7310    0.1420 ha        1 KTN      0.138500
     52 H19         2.5380    7.7140   -3.4830 ha        1 KTN      0.138500
     53 H20         1.5530    5.5780   -2.8160 ha        1 KTN      0.145000
     54 H211        2.6050    9.9770   -2.8420 h1        1 KTN      0.045200
     55 H212        3.8070    9.3980   -4.0900 h1        1 KTN      0.045200
     56 H221        3.9020   11.9590   -2.3340 h1        1 KTN      0.066200
     57 H222        3.7830   11.8120   -4.1550 h1        1 KTN      0.066200
     58 H231        7.4540   10.6090   -2.4710 h1        1 KTN      0.066200
     59 H232        6.1990   11.2090   -1.2920 h1        1 KTN      0.066200
     60 H241        6.1880    8.6150   -3.0050 h1        1 KTN      0.045200
     61 H242        6.2590    8.7910   -1.1930 h1        1 KTN      0.045200
     62 H261        8.1760   10.7510   -4.5810 hc        1 KTN      0.066700
     63 H262        8.2740   12.3490   -3.7090 hc        1 KTN      0.066700
     64 H263        8.1130   12.3060   -5.5190 hc        1 KTN      0.066700
@<TRIPOS>BOND
     1    1    2 1   
     2    1    5 1   
     3    1    6 1   
     4    2    3 2   
     5    2   37 1   
     6    3    4 1   
     7    4    5 2   
     8    4   38 1   
     9    5   39 1   
    10    6    7 1   
    11    6   40 1   
    12    6   41 1   
    13    7    8 1   
    14    7   11 1   
    15    7   12 1   
    16    8    9 1   
    17    9   10 1   
    18    9   19 1   
    19    9   42 1   
    20   10   11 1   
    21   10   43 1   
    22   10   44 1   
    23   12   13 ar  
    24   12   17 ar  
    25   13   14 ar  
    26   13   36 1   
    27   14   15 ar  
    28   14   45 1   
    29   15   16 ar  
    30   15   18 1   
    31   16   17 ar  
    32   16   46 1   
    33   17   47 1   
    34   19   20 1   
    35   19   48 1   
    36   19   49 1   
    37   20   21 1   
    38   21   22 ar  
    39   21   26 ar  
    40   22   23 ar  
    41   22   50 1   
    42   23   24 ar  
    43   23   51 1   
    44   24   25 ar  
    45   24   27 1   
    46   25   26 ar  
    47   25   52 1   
    48   26   53 1   
    49   27   28 1   
    50   27   32 1   
    51   28   29 1   
    52   28   54 1   
    53   28   55 1   
    54   29   30 1   
    55   29   56 1   
    56   29   57 1   
    57   30   31 1   
    58   30   33 1   
    59   31   32 1   
    60   31   58 1   
    61   31   59 1   
    62   32   60 1   
    63   32   61 1   
    64   33   34 2   
    65   33   35 1   
    66   35   62 1   
    67   35   63 1   
    68   35   64 1   
@<TRIPOS>SUBSTRUCTURE
     1 KTN         1 TEMP              0 ****  ****    0 ROOT
