@<TRIPOS>MOLECULE
KTN
   64    68     1     0     0
SMALL
bcc


@<TRIPOS>ATOM
      1 N1         -0.4160   -1.2650   -0.5400 na        1 KTN     -0.204900
      2 C1          0.8630   -1.7050   -0.9270 cc        1 KTN      0.398400
      3 N2          1.4180   -2.4880    0.0200 nd        1 KTN     -0.672000
      4 C2          0.4860   -2.5540    1.0570 cd        1 KTN      0.285200
      5 C3         -0.6540   -1.7980    0.7330 cc        1 KTN     -0.247600
      6 C4         -1.2850   -0.4140   -1.2840 c3        1 KTN      0.042300
      7 C5         -0.9590    1.1080   -1.2160 c3        1 KTN      0.381900
      8 O1          0.3870    1.3320   -1.6310 os        1 KTN     -0.418600
      9 C6          1.0760    2.1790   -0.6990 c3        1 KTN      0.121100
     10 C7          0.1430    2.2780    0.5070 c3        1 KTN      0.115400
     11 O2         -1.0270    1.5340    0.1460 os        1 KTN     -0.436600
     12 C8         -1.9560    1.8690   -2.0650 ca        1 KTN     -0.126300
     13 C9         -1.9450    1.8580   -3.4680 ca        1 KTN      0.048400
     14 C10        -2.9060    2.5730   -4.1950 ca        1 KTN     -0.133000
     15 C11        -3.8890    3.2970   -3.5180 ca        1 KTN      0.034400
     16 C12        -3.9190    3.3110   -2.1190 ca        1 KTN     -0.131000
     17 C13        -2.9570    2.6000   -1.4100 ca        1 KTN     -0.089000
     18 Cl1        -5.0520    4.1630   -4.3990 cl        1 KTN     -0.075400
     19 C14         1.3460    3.5220   -1.3790 c3        1 KTN      0.109400
     20 O3          2.2190    4.2300   -0.4950 os        1 KTN     -0.333900
     21 C15         2.7150    5.4280   -0.9810 ca        1 KTN      0.101100
     22 C16         3.6820    6.0400   -0.1630 ca        1 KTN     -0.155500
     23 C17         4.2310    7.2550   -0.5390 ca        1 KTN     -0.130500
     24 C18         3.8420    7.8900   -1.7450 ca        1 KTN      0.097600
     25 C19         2.8760    7.2530   -2.5490 ca        1 KTN     -0.130500
     26 C20         2.3110    6.0370   -2.1700 ca        1 KTN     -0.155500
     27 N3          4.3770    9.1720   -2.0510 nh        1 KTN     -0.629000
     28 C21         3.7110    9.9050   -3.1160 c3        1 KTN      0.158300
     29 C22         4.2480   11.3470   -3.2580 c3        1 KTN      0.082500
     30 N4          5.6920   11.4220   -3.3280 n         1 KTN     -0.465800
     31 C23         6.3640   10.6580   -2.3050 c3        1 KTN      0.082500
     32 C24         5.8290    9.2140   -2.1580 c3        1 KTN      0.158300
     33 C25         6.3150   11.8150   -4.5110 c         1 KTN      0.654100
     34 O4          5.6330   12.2510   -5.4600 o         1 KTN     -0.605100
     35 C26         7.8200   11.7820   -4.6050 c3        1 KTN     -0.170100
     36 Cl2        -0.7970    0.9880   -4.3720 cl        1 KTN     -0.070400
     37 HC1         1.3140   -1.4160   -1.8820 h5        1 KTN      0.066100
     38 HC2         0.6790   -3.1340    1.9580 h4        1 KTN      0.041100
     39 HC3        -1.5720   -1.6050    1.2820 h4        1 KTN      0.178000
     40 HC41       -2.3360   -0.5370   -0.8960 h1        1 KTN      0.082700
     41 HC42       -1.2420   -0.7130   -2.3700 h1        1 KTN      0.082700
     42 HC6         2.0420    1.6600   -0.4580 h1        1 KTN      0.101700
     43 HC71       -0.1700    3.3290    0.7280 h1        1 KTN      0.073700
     44 HC72        0.5640    1.7900    1.4210 h1        1 KTN      0.073700
     45 H10        -2.8850    2.5620   -5.2970 ha        1 KTN      0.165000
     46 H12        -4.6950    3.8780   -1.5830 ha        1 KTN      0.156000
     47 H13        -2.9780    2.6120   -0.3060 ha        1 KTN      0.164000
     48 H141        0.3980    4.1030   -1.5210 h1        1 KTN      0.056700
     49 H142        1.8430    3.3540   -2.3700 h1        1 KTN      0.056700
     50 H16         3.9860    5.5490    0.7730 ha        1 KTN      0.145000
     51 H17         4.9710    7.7290    0.1230 ha        1 KTN      0.138500
     52 H19         2.5420    7.7050   -3.4960 ha        1 KTN      0.138500
     53 H20         1.5540    5.5740   -2.8190 ha        1 KTN      0.145000
     54 H211        2.6160    9.9700   -2.8640 h1        1 KTN      0.045200
     55 H212        3.8140    9.3840   -4.1120 h1        1 KTN      0.045200
     56 H221        3.9190   11.9510   -2.3650 h1        1 KTN      0.066200
     57 H222        3.7960   11.7980   -4.1860 h1        1 KTN      0.066200
     58 H231        7.4670   10.5920   -2.5060 h1        1 KTN      0.066200
     59 H232        6.2170   11.1990   -1.3250 h1        1 KTN      0.066200
     60 H241        6.2720    8.7810   -1.2190 h1        1 KTN      0.045200
     61 H242        6.1950    8.5990   -3.0310 h1        1 KTN      0.045200
     62 H261        8.2880   12.3270   -3.7510 hc        1 KTN      0.066700
     63 H262        8.1850   10.7270   -4.6180 hc        1 KTN      0.066700
     64 H263        8.1240   12.2790   -5.5600 hc        1 KTN      0.066700
@<TRIPOS>BOND
     1    1    2 1   
     2    1    5 1   
     3    1    6 1   
     4    2    3 2   
     5    2   37 1   
     6    3    4 1   
     7    4    5 2   
     8    4   38 1   
     9    5   39 1   
    10    6    7 1   
    11    6   40 1   
    12    6   41 1   
    13    7    8 1   
    14    7   11 1   
    15    7   12 1   
    16    8    9 1   
    17    9   10 1   
    18    9   19 1   
    19    9   42 1   
    20   10   11 1   
    21   10   43 1   
    22   10   44 1   
    23   12   13 ar  
    24   12   17 ar  
    25   13   14 ar  
    26   13   36 1   
    27   14   15 ar  
    28   14   45 1   
    29   15   16 ar  
    30   15   18 1   
    31   16   17 ar  
    32   16   46 1   
    33   17   47 1   
    34   19   20 1   
    35   19   48 1   
    36   19   49 1   
    37   20   21 1   
    38   21   22 ar  
    39   21   26 ar  
    40   22   23 ar  
    41   22   50 1   
    42   23   24 ar  
    43   23   51 1   
    44   24   25 ar  
    45   24   27 1   
    46   25   26 ar  
    47   25   52 1   
    48   26   53 1   
    49   27   28 1   
    50   27   32 1   
    51   28   29 1   
    52   28   54 1   
    53   28   55 1   
    54   29   30 1   
    55   29   56 1   
    56   29   57 1   
    57   30   31 1   
    58   30   33 1   
    59   31   32 1   
    60   31   58 1   
    61   31   59 1   
    62   32   60 1   
    63   32   61 1   
    64   33   34 2   
    65   33   35 1   
    66   35   62 1   
    67   35   63 1   
    68   35   64 1   
@<TRIPOS>SUBSTRUCTURE
     1 KTN         1 TEMP              0 ****  ****    0 ROOT
