@<TRIPOS>MOLECULE
KTP
   42    45     1     0     0
SMALL
bcc


@<TRIPOS>ATOM
      1 P1      -1268.5180    0.7960-1115.0350 p4        1 KTP      1.623100
      2 O1      -1269.8300    0.9220-1114.3740 o         1 KTP     -0.849300
      3 O2        138.2880 -118.2970  118.7620 o         1 KTP     -0.719300
      4 C1        136.4700 -119.8320  118.3900 ce        1 KTP     -0.481200
      5 C2        137.0700 -118.5820  118.6220 cf        1 KTP      0.584900
      6 O3      -1268.3010    0.7500-1116.0500 os        1 KTP     -0.886400
      7 O4      -1267.4240    0.7180-1114.6810 os        1 KTP     -0.886400
      8 C3        136.0920 -117.4480  118.7890 ca        1 KTP     -0.098600
      9 C4        136.3070 -116.4830  119.7510 ca        1 KTP     -0.106000
     10 C5        135.3970 -115.4060  119.9200 ca        1 KTP     -0.041000
     11 C6        135.5960 -114.4070  120.9120 ca        1 KTP     -0.110000
     12 C7        134.7030 -113.3750  121.0570 ca        1 KTP     -0.152000
     13 C8        133.5670 -113.2900  120.2160 ca        1 KTP     -0.148000
     14 C9        133.3500 -114.2400  119.2490 ca        1 KTP     -0.120000
     15 C10       134.2580 -115.3200  119.0760 ca        1 KTP     -0.042000
     16 C11       134.0630 -116.3160  118.0820 ca        1 KTP     -0.156000
     17 C12       134.9540 -117.3510  117.9440 ca        1 KTP     -0.091000
     18 C13       136.2450 -122.2170  118.5600 ca        1 KTP     -0.270000
     19 C14       137.0260 -121.1090  118.1590 ca        1 KTP      0.147200
     20 C15       138.2770 -121.3990  117.5030 ca        1 KTP     -0.082000
     21 C16       139.0850 -120.3890  116.9190 ca        1 KTP     -0.052000
     22 C17       140.2740 -120.6850  116.2920 ca        1 KTP     -0.206000
     23 C18       140.7230 -122.0200  116.2130 ca        1 KTP     -0.125000
     24 C19       139.9580 -123.0290  116.7420 ca        1 KTP     -0.170000
     25 C20       138.7140 -122.7500  117.3760 ca        1 KTP      0.012000
     26 C21       137.9070 -123.8120  117.8470 ca        1 KTP     -0.256000
     27 C22       136.6800 -123.5310  118.4130 ca        1 KTP     -0.072000
     28 HC1       135.3740 -119.8450  118.5260 ha        1 KTP      0.096000
     29 HC4       137.2030 -116.5430  120.3890 ha        1 KTP      0.148000
     30 HC6       136.4830 -114.4830  121.5600 ha        1 KTP      0.127000
     31 HC7       134.8570 -112.6030  121.8240 ha        1 KTP      0.115000
     32 HC8       132.8660 -112.4550  120.3500 ha        1 KTP      0.114000
     33 HC9       132.4710 -114.1830  118.5900 ha        1 KTP      0.118000
     34 HC11      133.1830 -116.2390  117.4270 ha        1 KTP      0.116000
     35 HC12      134.8070 -118.1260  117.1750 ha        1 KTP      0.146000
     36 HC13      135.2690 -122.0300  119.0290 ha        1 KTP      0.107000
     37 HC16      138.7460 -119.3420  116.9740 ha        1 KTP      0.162000
     38 HC17      140.8840 -119.8850  115.8530 ha        1 KTP      0.109000
     39 HC18      141.6830 -122.2390  115.7240 ha        1 KTP      0.099000
     40 HC19      140.2880 -124.0760  116.6810 ha        1 KTP      0.105000
     41 HC21      138.2630 -124.8440  117.7460 ha        1 KTP      0.101000
     42 HC22      136.0380 -124.3530  118.7640 ha        1 KTP      0.091000
@<TRIPOS>BOND
     1    1    2 2   
     2    1    6 1   
     3    1    7 1   
     4    3    5 1   
     5    4    5 2   
     6    4   19 1   
     7    4   28 1   
     8    5    8 1   
     9    6    7 1   
    10    8    9 ar  
    11    8   17 ar  
    12    9   10 ar  
    13    9   29 1   
    14   10   11 ar  
    15   10   15 ar  
    16   11   12 ar  
    17   11   30 1   
    18   12   13 ar  
    19   12   31 1   
    20   13   14 ar  
    21   13   32 1   
    22   14   15 ar  
    23   14   33 1   
    24   15   16 ar  
    25   16   17 ar  
    26   16   34 1   
    27   17   35 1   
    28   18   19 ar  
    29   18   27 ar  
    30   18   36 1   
    31   19   20 ar  
    32   20   21 ar  
    33   20   25 ar  
    34   21   22 ar  
    35   21   37 1   
    36   22   23 ar  
    37   22   38 1   
    38   23   24 ar  
    39   23   39 1   
    40   24   25 ar  
    41   24   40 1   
    42   25   26 ar  
    43   26   27 ar  
    44   26   41 1   
    45   27   42 1   
@<TRIPOS>SUBSTRUCTURE
     1 KTP         1 TEMP              0 ****  ****    0 ROOT
