@<TRIPOS>MOLECULE
KTP
   42    35     1     0     0
SMALL
bcc


@<TRIPOS>ATOM
      1 P1         -2.5050   -0.6290   -0.9430 p3        1 KTP      2.361000
      2 O1         -2.9680   -1.2460   -2.2420 o         1 KTP     -1.120000
      3 O2          0.3530   -1.4210    0.9470 o         1 KTP     -0.449000
      4 C1         -0.7060   -0.4790   -0.9560 c2        1 KTP     -0.472000
      5 C2         -0.1910   -0.4430    0.4730 c2        1 KTP      0.297000
      6 O3         -3.1220    0.7380   -0.7880 o         1 KTP     -1.120000
      7 O4         -2.9290   -1.5060    0.2100 o         1 KTP     -1.120000
      8 C3         -0.2930    0.8420    1.2880 c2        1 KTP     -0.076000
      9 C4         -0.4850    0.6420    2.6520 c2        1 KTP     -0.115000
     10 C5         -0.4900    1.7420    3.5300 c1        1 KTP     -0.041000
     11 C6         -0.6580    1.5390    4.9120 c1        1 KTP     -0.142400
     12 C7         -0.6370    2.6240    5.7810 c1        1 KTP     -0.142400
     13 C8         -0.4500    3.9110    5.2850 c1        1 KTP     -0.142400
     14 C9         -0.2840    4.1120    3.9220 c1        1 KTP     -0.142400
     15 C10        -0.3050    3.0140    3.0400 c1        1 KTP     -0.041000
     16 C11        -0.1100    3.2150    1.6590 c1        1 KTP     -0.155000
     17 C12        -0.1050    2.1280    0.7920 c1        1 KTP     -0.085000
     18 C13        -0.1790   -2.8500   -0.9590 c1        1 KTP     -0.142400
     19 C14        -0.1030   -1.6680   -1.6820 c1        1 KTP      0.142000
     20 C15         0.6610   -1.6130   -2.8650 c1        1 KTP     -0.096000
     21 C16         0.7740   -0.4030   -3.5760 c1        1 KTP     -0.142400
     22 C17         1.5620   -0.3390   -4.7160 c1        1 KTP     -0.142400
     23 C18         2.2410   -1.4700   -5.1580 c1        1 KTP     -0.142400
     24 C19         2.1300   -2.6650   -4.4580 c1        1 KTP     -0.142400
     25 C20         1.3320   -2.7310   -3.3020 c1        1 KTP      0.015000
     26 C21         1.2540   -3.9300   -2.5670 c1        1 KTP     -0.269000
     27 C22         0.5010   -3.9830   -1.4020 c1        1 KTP     -0.142400
     28 HC1        -0.4520    0.3440   -1.4130 ha        1 KTP      0.098000
     29 HC4        -0.5700   -0.2630    3.0040 ha        1 KTP      0.144000
     30 HC6        -0.7900    0.6380    5.2590 ha        1 KTP      0.116300
     31 HC7        -0.7540    2.4830    6.7390 ha        1 KTP      0.116300
     32 HC8        -0.4350    4.6710    5.8960 ha        1 KTP      0.116300
     33 HC9        -0.2010    5.0190    3.5700 ha        1 KTP      0.116300
     34 HC11        0.0210    4.1170    1.3110 ha        1 KTP      0.116000
     35 HC12        0.0430    2.2660   -0.1590 ha        1 KTP      0.148000
     36 HC13       -0.7090   -2.8880   -0.1400 ha        1 KTP      0.116300
     37 HC16        0.2990    0.3900   -3.2660 ha        1 KTP      0.116300
     38 HC17        1.6410    0.5000   -5.2080 ha        1 KTP      0.116300
     39 HC18        2.7960   -1.4240   -5.9620 ha        1 KTP      0.116300
     40 HC19        2.6430   -3.4460   -4.7420 ha        1 KTP      0.116300
     41 HC21        1.7300   -4.7230   -2.8760 ha        1 KTP      0.100000
     42 HC22        0.4480   -4.8130   -0.8930 ha        1 KTP      0.116300
@<TRIPOS>BOND
     1    1    2 1   
     2    1    6 1   
     3    1    7 1   
     4    3    5 1   
     5    4    5 1   
     6    4   19 1   
     7    4   28 1   
     8    5    8 1   
     9    8    9 1   
    10    8   17 1   
    11    9   10 1   
    12    9   29 1   
    13   10   15 1   
    14   11   12 1   
    15   11   30 1   
    16   12   31 1   
    17   13   14 1   
    18   13   32 1   
    19   14   33 1   
    20   15   16 1   
    21   16   34 1   
    22   17   35 1   
    23   18   27 1   
    24   18   36 1   
    25   19   20 1   
    26   20   25 1   
    27   21   22 1   
    28   21   37 1   
    29   22   38 1   
    30   23   24 1   
    31   23   39 1   
    32   24   40 1   
    33   25   26 1   
    34   26   41 1   
    35   27   42 1   
@<TRIPOS>SUBSTRUCTURE
     1 KTP         1 TEMP              0 ****  ****    0 ROOT
