@<TRIPOS>MOLECULE
KTR
   31    44     1     0     0
SMALL
bcc


@<TRIPOS>ATOM
      1 O3          0.0000    0.0000    0.0000 o         1 KTR     -0.556000
      2 C4          4.6060    0.8360   -0.7050 c2        1 KTR     -0.037000
      3 C5          3.5910    0.0010   -1.0550 c3        1 KTR     -0.439000
      4 C6          3.0250   -2.1880   -1.6160 DU        1 KTR     -0.334000
      5 N1          4.0910   -1.2430   -1.2410 nx        1 KTR      0.780000
      6 C7          1.8400   -1.3130   -2.0780 DU        1 KTR     -0.304000
      7 C8          2.0960    0.0010   -1.3060 c3        1 KTR     -0.098000
      8 C9          1.3420    0.0000    0.0000 c2        1 KTR      0.389000
      9 C10         7.7880   -2.1770   -0.6910 c2        1 KTR     -0.129000
     10 C11         8.1290   -1.2450    0.2900 c3        1 KTR     -0.280000
     11 C12         9.4450   -1.1050    0.6770 c3        1 KTR     -0.165000
     12 C13        10.4280   -1.8860    0.0950 c3        1 KTR     -0.231000
     13 C14        10.0970   -2.8130   -0.8780 c3        1 KTR     -0.331000
     14 C15         8.7840   -2.9640   -1.2740 c2        1 KTR     -0.324000
     15 O1          5.9860   -3.4110   -1.5270 o         1 KTR     -0.247000
     16 C2          5.4530   -1.2060   -1.0100 DU        1 KTR     -0.822000
     17 C3          5.7850    0.0910   -0.6790 c3        1 KTR     -0.234000
     18 O2          1.9460    0.0000    1.0470 o         1 KTR     -0.556000
     19 H2          5.1130   -0.1180   -0.7730 DU        1 KTR      0.210000
     20 H3          3.3860   -1.2000   -1.3560 DU        1 KTR     -0.005000
     21 H4          2.7260   -2.7460   -0.7370 hx        1 KTR      0.152000
     22 H5          2.6070   -2.0540   -2.2690 DU        1 KTR      0.159000
     23 H6          1.9210   -1.1280   -3.1420 ha        1 KTR      0.114000
     24 H7          1.5010   -0.8790   -1.5220 DU        1 KTR      0.213000
     25 H8          7.1530   -0.9200   -0.0510 hc        1 KTR      0.385000
     26 H9          8.3940   -0.8440    0.6910 DU        1 KTR      0.277000
     27 H10        10.0660   -1.1250    0.7760 DU        1 KTR      0.218000
     28 H11        10.7870   -2.2900   -0.2270 DU        1 KTR      0.213000
     29 H12         9.8400   -3.2010   -1.2990 DU        1 KTR      0.253000
     30 H13         6.4240   -0.7320   -0.9760 DU        1 KTR      0.360000
     31 C1          6.3780   -2.3380   -1.1060 c2        1 KTR      0.367000
@<TRIPOS>BOND
     1    1    8 1   
     2    2    3 1   
     3    2   17 1   
     4    2   19 1   
     5    3    5 1   
     6    3    7 1   
     7    3   20 1   
     8    4    5 1   
     9    4    6 1   
    10    4   20 1   
    11    4   21 1   
    12    4   22 1   
    13    5   16 1   
    14    5   20 1   
    15    6    7 1   
    16    6   22 1   
    17    6   23 1   
    18    6   24 1   
    19    7    8 1   
    20    7   24 1   
    21    8   18 1   
    22    9   10 1   
    23    9   14 1   
    24    9   31 1   
    25   10   11 1   
    26   10   25 1   
    27   10   26 1   
    28   11   12 1   
    29   11   26 1   
    30   11   27 1   
    31   12   13 1   
    32   12   27 1   
    33   12   28 1   
    34   13   14 1   
    35   13   28 1   
    36   13   29 1   
    37   14   29 1   
    38   15   31 1   
    39   16   17 1   
    40   16   19 1   
    41   16   30 1   
    42   16   31 1   
    43   17   19 1   
    44   17   30 1   
@<TRIPOS>SUBSTRUCTURE
     1 KTR         1 TEMP              0 ****  ****    0 ROOT
