@<TRIPOS>MOLECULE
KTR
   31    33     1     0     0
SMALL
bcc


@<TRIPOS>ATOM
      1 O3         -4.5140    0.6270    1.2020 o         1 KTR     -0.823300
      2 C4         -1.0400    1.4400   -1.2070 cc        1 KTR     -0.210000
      3 C5         -1.8430    0.3450   -0.8200 cd        1 KTR     -0.001600
      4 C6         -1.7340   -1.8120    0.1460 c3        1 KTR      0.038300
      5 N1         -1.0040   -0.6640   -0.3420 na        1 KTR     -0.041100
      6 C7         -3.2250   -1.4720   -0.1170 c3        1 KTR     -0.091400
      7 C8         -3.2730   -0.0690   -0.7620 c3        1 KTR     -0.145400
      8 C9         -4.1600    0.9370    0.0320 c         1 KTR      0.929600
      9 C10         2.7650   -0.3330    0.1330 ca        1 KTR     -0.135600
     10 C11         2.8640    0.9220    0.7440 ca        1 KTR     -0.092000
     11 C12         4.1060    1.5480    0.8520 ca        1 KTR     -0.148500
     12 C13         5.2490    0.9300    0.3470 ca        1 KTR     -0.126000
     13 C14         5.1540   -0.3230   -0.2590 ca        1 KTR     -0.148500
     14 C15         3.9170   -0.9570   -0.3600 ca        1 KTR     -0.092000
     15 O1          1.3830   -2.2520    0.2820 o         1 KTR     -0.586100
     16 C2          0.3240   -0.2330   -0.3800 cd        1 KTR     -0.246900
     17 C3          0.3070    1.0800   -0.9320 cc        1 KTR     -0.138000
     18 O2         -4.4970    1.9890   -0.5730 o         1 KTR     -0.823300
     19 H2         -1.4070    2.3790   -1.6100 ha        1 KTR      0.164000
     20 H3         -1.4040   -2.7340   -0.4040 h1        1 KTR      0.051200
     21 H4         -1.5320   -1.9610    1.2400 h1        1 KTR      0.051200
     22 H5         -3.6750   -2.2360   -0.7930 hc        1 KTR      0.062700
     23 H6         -3.7910   -1.4520    0.8490 hc        1 KTR      0.062700
     24 H7         -3.6910   -0.1220   -1.8000 hc        1 KTR      0.064700
     25 H8          1.9570    1.4090    1.1380 ha        1 KTR      0.150000
     26 H9          4.1790    2.5330    1.3350 ha        1 KTR      0.125500
     27 H10         6.2250    1.4290    0.4280 ha        1 KTR      0.120000
     28 H11         6.0550   -0.8130   -0.6540 ha        1 KTR      0.125500
     29 H12         3.8330   -1.9540   -0.8200 ha        1 KTR      0.150000
     30 H13         1.1880    1.6870   -1.1200 ha        1 KTR      0.136000
     31 C1          1.4570   -1.0350    0.0300 c         1 KTR      0.616300
@<TRIPOS>BOND
     1    1    8 1   
     2    2    3 2   
     3    2   17 1   
     4    2   19 1   
     5    3    5 1   
     6    3    7 1   
     7    4    5 1   
     8    4    6 1   
     9    4   20 1   
    10    4   21 1   
    11    5   16 1   
    12    6    7 1   
    13    6   22 1   
    14    6   23 1   
    15    7    8 1   
    16    7   24 1   
    17    8   18 1   
    18    9   10 ar  
    19    9   14 ar  
    20    9   31 1   
    21   10   11 ar  
    22   10   25 1   
    23   11   12 ar  
    24   11   26 1   
    25   12   13 ar  
    26   12   27 1   
    27   13   14 ar  
    28   13   28 1   
    29   14   29 1   
    30   15   31 2   
    31   16   17 2   
    32   16   31 1   
    33   17   30 1   
@<TRIPOS>SUBSTRUCTURE
     1 KTR         1 TEMP              0 ****  ****    0 ROOT
