@<TRIPOS>MOLECULE
KTR
   31    27     1     0     0
SMALL
bcc


@<TRIPOS>ATOM
      1 O3         -1.2330   -4.3210    3.3770 o         1 KTR     -0.823300
      2 C4         -1.5290   -1.7990    0.1790 c1        1 KTR     -0.210000
      3 C5         -0.3410   -2.2410    0.7450 c1        1 KTR      0.030000
      4 C6          1.8370   -1.6680    1.1810 c3        1 KTR      0.038300
      5 N1          0.5410   -1.1700    0.7780 nh        1 KTR     -0.062600
      6 C7          1.6260   -2.9740    1.8380 c3        1 KTR     -0.087200
      7 C8          0.1960   -3.3230    1.6880 c2        1 KTR     -0.146200
      8 C9         -0.5910   -3.2890    2.9950 c         1 KTR      0.879600
      9 C10         0.0080    2.2340   -1.0800 cg        1 KTR     -0.084200
     10 C11         0.5740    2.1350   -2.3360 c1        1 KTR     -0.034500
     11 C12         0.2120    3.0390   -3.3400 c1        1 KTR     -0.071250
     12 C13        -0.7170    4.0370   -3.0730 c1        1 KTR     -0.071250
     13 C14        -1.2840    4.1360   -1.8140 c1        1 KTR     -0.071250
     14 C15        -0.9220    3.2340   -0.8130 c1        1 KTR     -0.071250
     15 O1          1.3050    1.7340    0.8510 o         1 KTR     -0.586100
     16 C1          0.5040    1.3210    0.0580 c         1 KTR      0.563500
     17 C2         -0.0980   -0.0710    0.2350 ce        1 KTR     -0.311400
     18 C3         -1.3800   -0.4580   -0.1360 c1        1 KTR     -0.074900
     19 O2         -0.6170   -2.2160    3.7050 o         1 KTR     -0.823300
     20 H2         -2.3020   -2.3200    0.0340 DU        1 KTR      0.150000
     21 H3          2.3790   -1.8060    0.3820 h1        1 KTR      0.051200
     22 H4          2.2260   -1.0380    1.8470 h1        1 KTR      0.051200
     23 H5          2.1630   -3.6500    1.3710 hc        1 KTR      0.062700
     24 H6          1.8180   -2.8820    2.7560 hc        1 KTR      0.062700
     25 H7          0.0830   -4.2720    1.4210 ha        1 KTR      0.104000
     26 H8          1.3270    1.4670   -2.5020 ha        1 KTR      0.085500
     27 H9          0.5700    2.9280   -4.2570 ha        1 KTR      0.074500
     28 H10        -0.9930    4.6740   -3.7980 ha        1 KTR      0.074500
     29 H11        -1.9380    4.8130   -1.6360 ha        1 KTR      0.074500
     30 H12        -1.3740    3.6340   -0.0200 ha        1 KTR      0.074500
     31 H13        -2.0500    0.1130   -0.6390 DU        1 KTR      0.150000
@<TRIPOS>BOND
     1    1    8 1   
     2    2    3 2   
     3    2   18 2   
     4    3    5 2   
     5    4    5 1   
     6    4    6 1   
     7    4   21 1   
     8    4   22 1   
     9    5   17 1   
    10    6    7 1   
    11    6   23 1   
    12    6   24 1   
    13    7    8 2   
    14    7   25 1   
    15    8   19 1   
    16    9   10 3   
    17    9   16 1   
    18   10   26 1   
    19   11   12 3   
    20   11   27 1   
    21   12   28 1   
    22   13   14 3   
    23   13   29 1   
    24   14   30 1   
    25   15   16 2   
    26   16   17 1   
    27   17   18 2   
@<TRIPOS>SUBSTRUCTURE
     1 KTR         1 TEMP              0 ****  ****    0 ROOT
