@<TRIPOS>MOLECULE
KTR
   31    32     1     0     0
SMALL
bcc


@<TRIPOS>ATOM
      1 O3          1.0750    0.0550   -0.1700 o         1 KTR     -0.814300
      2 C4          3.0680    2.4470   -2.8260 c1        1 KTR     -0.047900
      3 C5          3.0870    1.3760   -2.1560 c1        1 KTR     -0.080900
      4 C6          5.3250   -0.8610   -1.4940 c3        1 KTR      0.184800
      5 N1          5.6060   -0.8340   -0.0780 n3        1 KTR     -0.837200
      6 C7          3.8420   -0.9390   -1.8830 c3        1 KTR     -0.073200
      7 C8          3.0910    0.2720   -1.4490 ce        1 KTR     -0.114500
      8 C9          2.3260    0.1470   -0.1260 c         1 KTR      0.919800
      9 C10         6.8820   -3.8840   -0.0400 ca        1 KTR     -0.215600
     10 C11         7.7830   -4.8850   -0.2980 ca        1 KTR     -0.064000
     11 C12         9.1340   -4.6120    0.0030 ca        1 KTR     -0.163000
     12 C13         9.5280   -3.3880    0.5340 ca        1 KTR     -0.116000
     13 C14         8.6000   -2.3590    0.8020 ca        1 KTR     -0.109000
     14 C15         7.2870   -2.6280    0.5170 ca        1 KTR     -0.076300
     15 O1          4.4210   -3.9800   -0.4790 o         1 KTR     -0.489100
     16 C2          5.8490   -2.0740    0.5720 cy        1 KTR      0.182800
     17 C3          3.0430    3.5570   -3.5090 c2        1 KTR     -0.286100
     18 O2          3.0190    0.1150    0.9340 o         1 KTR     -0.814300
     19 H2          5.4760   -2.0390    1.6320 h1        1 KTR      0.093700
     20 H3          4.9080   -0.2880    0.4180 hn        1 KTR      0.452800
     21 H4          5.7520    0.0940   -1.9190 h1        1 KTR      0.037700
     22 H5          5.8620   -1.7260   -1.9750 h1        1 KTR      0.037700
     23 H6          3.3750   -1.8490   -1.4160 hc        1 KTR      0.055700
     24 H7          3.7830   -1.0550   -2.9970 hc        1 KTR      0.055700
     25 H8          2.4790    4.4370   -3.1730 ha        1 KTR      0.102500
     26 H9          7.4870   -5.8530   -0.7240 ha        1 KTR      0.135000
     27 H10         9.8890   -5.3870   -0.1930 ha        1 KTR      0.120000
     28 H11        10.5920   -3.2110    0.7520 ha        1 KTR      0.120000
     29 H12         8.9310   -1.3960    1.2130 ha        1 KTR      0.143000
     30 H13         3.5820    3.6730   -4.4580 ha        1 KTR      0.102500
     31 C1          5.4490   -3.4610   -0.0890 c         1 KTR      0.557700
@<TRIPOS>BOND
     1    1    8 1   
     2    2    3 2   
     3    2   17 2   
     4    3    7 2   
     5    4    5 1   
     6    4    6 1   
     7    4   21 1   
     8    4   22 1   
     9    5   16 1   
    10    5   20 1   
    11    6    7 1   
    12    6   23 1   
    13    6   24 1   
    14    7    8 1   
    15    8   18 1   
    16    9   10 ar  
    17    9   14 ar  
    18    9   31 1   
    19   10   11 ar  
    20   10   26 1   
    21   11   12 ar  
    22   11   27 1   
    23   12   13 ar  
    24   12   28 1   
    25   13   14 ar  
    26   13   29 1   
    27   14   16 1   
    28   15   31 2   
    29   16   19 1   
    30   16   31 1   
    31   17   25 1   
    32   17   30 1   
@<TRIPOS>SUBSTRUCTURE
     1 KTR         1 TEMP              0 ****  ****    0 ROOT
