@<TRIPOS>MOLECULE
KTU
   33    30     1     0     0
SMALL
bcc


@<TRIPOS>ATOM
      1 C11        -3.7350    0.5890   -3.5110 c1        1 KTU     -0.211500
      2 C10        -2.8980   -0.3840   -3.0530 c1        1 KTU     -0.211500
      3 C9         -1.9710   -0.1000   -1.8680 c2        1 KTU     -0.008000
      4 O2         -1.2870   -1.2910   -1.5060 os        1 KTU     -0.232000
      5 C2         -0.4440   -1.1490   -0.3710 c3        1 KTU      0.107000
      6 C1          0.8530   -2.0580   -0.8220 c2        1 KTU      0.360000
      7 O1A         1.8940   -1.4990   -1.2530 o         1 KTU     -0.539500
      8 O1B         0.7940   -3.3150   -0.7560 o         1 KTU     -0.539500
      9 C3         -0.9620   -1.6040    0.6130 c3        1 KTU     -0.232000
     10 O6         -0.0200    0.3830   -0.1560 os        1 KTU     -0.246000
     11 C6          0.7150    0.6840    0.9380 c2        1 KTU      0.047000
     12 C7          2.0410    1.3730    0.7850 c3        1 KTU      0.050000
     13 O7          3.0120    0.6960    1.5510 oh        1 KTU     -0.360000
     14 C8          1.9250    2.8050    1.2680 c3        1 KTU     -0.043000
     15 O8          3.1430    3.4830    1.0290 oh        1 KTU     -0.349000
     16 C5          0.4210   -0.2010    2.2350 c1        1 KTU     -0.299000
     17 C4         -0.0810   -1.5280    1.9840 c2        1 KTU      0.097000
     18 O1          0.9970   -2.5200    1.9850 oh        1 KTU     -0.359000
     19 H1         -3.7440    1.4690   -3.0820 DU        1 KTU      0.100000
     20 H2         -4.3320    0.4070   -4.2730 ha        1 KTU      0.119500
     21 H4         -2.8900   -1.2600   -3.4810 ha        1 KTU      0.119500
     22 H5         -2.5000    0.2160   -1.1080 h4        1 KTU      0.096500
     23 H7         -1.8030   -1.1240    0.7640 hc        1 KTU      0.102000
     24 H8         -1.1730   -2.5440    0.4380 hc        1 KTU      0.102000
     25 H10         2.3060    1.3660   -0.1570 h1        1 KTU      0.102000
     26 H11         3.8150    0.8550    1.2160 ho        1 KTU      0.271000
     27 H12         1.7310    2.8110    2.2280 h1        1 KTU      0.089500
     28 H13         1.2030    3.2520    0.7870 h1        1 KTU      0.089500
     29 H14         3.0110    4.3620    1.0950 ho        1 KTU      0.218000
     30 H15         0.8820   -0.0030    3.0780 ha        1 KTU      0.131000
     31 H17        -0.6130   -1.8350    2.7430 h4        1 KTU      0.085000
     32 H18         1.0290   -2.9230    2.7810 ho        1 KTU      0.246000
     33 H3         -1.3190    0.5870   -2.1200 h4        1 KTU      0.096500
@<TRIPOS>BOND
     1    1    2 1   
     2    1   20 1   
     3    2   21 1   
     4    3    4 1   
     5    3   22 1   
     6    3   33 1   
     7    4    5 1   
     8    5    6 1   
     9    5    9 1   
    10    5   10 1   
    11    6    7 1   
    12    6    8 1   
    13    9   17 1   
    14    9   23 1   
    15    9   24 1   
    16   10   11 1   
    17   11   12 1   
    18   11   16 1   
    19   12   13 1   
    20   12   14 1   
    21   12   25 1   
    22   13   26 1   
    23   14   15 1   
    24   14   27 1   
    25   14   28 1   
    26   15   29 1   
    27   16   30 1   
    28   17   18 1   
    29   17   31 1   
    30   18   32 1   
@<TRIPOS>SUBSTRUCTURE
     1 KTU         1 TEMP              0 ****  ****    0 ROOT
