@<TRIPOS>MOLECULE
KTU
   33    33     1     0     0
SMALL
bcc


@<TRIPOS>ATOM
      1 C11         2.6950    3.7360   -1.0770 c2        1 KTU     -0.268000
      2 C10         2.2180    2.5030   -1.2280 c2        1 KTU     -0.138200
      3 C9          1.9600    1.5860   -0.0830 c3        1 KTU      0.160600
      4 O2          1.5710    0.3230   -0.6330 os        1 KTU     -0.452600
      5 C2          0.9070   -0.5460    0.2660 c3        1 KTU      0.207600
      6 C1          1.5300   -0.6250    1.7220 c         1 KTU      0.933600
      7 O1A         1.6710    0.4520    2.3490 o         1 KTU     -0.799800
      8 O1B         1.8370   -1.7740    2.1220 o         1 KTU     -0.799800
      9 C3          0.8500   -1.9160   -0.4070 c3        1 KTU     -0.074400
     10 O6         -0.3860    0.0630    0.4300 os        1 KTU     -0.349900
     11 C6         -1.3520   -0.2190   -0.5020 c2        1 KTU      0.087900
     12 C7         -2.5980    0.5790   -0.2290 c3        1 KTU      0.154300
     13 O7         -2.3180    1.9190    0.1450 oh        1 KTU     -0.618800
     14 C8         -3.4160   -0.0860    0.8890 c3        1 KTU      0.101400
     15 O8         -4.5730    0.6730    1.1830 oh        1 KTU     -0.615800
     16 C5         -1.2270   -1.1090   -1.5020 c2        1 KTU     -0.327200
     17 C4          0.0490   -1.8560   -1.7030 c3        1 KTU      0.189300
     18 O1         -0.1740   -3.2010   -2.1260 oh        1 KTU     -0.604800
     19 H1          2.8750    4.4030   -1.9280 ha        1 KTU      0.100000
     20 H2          2.9340    4.1610   -0.0940 ha        1 KTU      0.100000
     21 H4          1.9830    2.0880   -2.2220 ha        1 KTU      0.124000
     22 H5          2.8820    1.4320    0.5410 h1        1 KTU      0.071700
     23 H7          1.8950   -2.2570   -0.6130 hc        1 KTU      0.082700
     24 H8          0.3870   -2.6380    0.3130 hc        1 KTU      0.082700
     25 H10        -3.2190    0.6700   -1.1630 h1        1 KTU      0.073700
     26 H11        -1.5490    1.9080    0.7340 ho        1 KTU      0.437000
     27 H12        -3.7920   -1.0900    0.5620 h1        1 KTU      0.060200
     28 H13        -2.7810   -0.1930    1.8090 h1        1 KTU      0.060200
     29 H14        -4.2840    1.5900    1.2890 ho        1 KTU      0.411000
     30 H15        -2.0440   -1.3010   -2.2060 ha        1 KTU      0.118000
     31 H17         0.6560   -1.3330   -2.5000 h1        1 KTU      0.039700
     32 H18        -0.8500   -3.1660   -2.8110 ho        1 KTU      0.383000
     33 H3          1.1450    1.9810    0.5830 h1        1 KTU      0.071700
@<TRIPOS>BOND
     1    1    2 2   
     2    1   19 1   
     3    1   20 1   
     4    2    3 1   
     5    2   21 1   
     6    3    4 1   
     7    3   22 1   
     8    3   33 1   
     9    4    5 1   
    10    5    6 1   
    11    5    9 1   
    12    5   10 1   
    13    6    7 1   
    14    6    8 1   
    15    9   17 1   
    16    9   23 1   
    17    9   24 1   
    18   10   11 1   
    19   11   12 1   
    20   11   16 2   
    21   12   13 1   
    22   12   14 1   
    23   12   25 1   
    24   13   26 1   
    25   14   15 1   
    26   14   27 1   
    27   14   28 1   
    28   15   29 1   
    29   16   17 1   
    30   16   30 1   
    31   17   18 1   
    32   17   31 1   
    33   18   32 1   
@<TRIPOS>SUBSTRUCTURE
     1 KTU         1 TEMP              0 ****  ****    0 ROOT
