@<TRIPOS>MOLECULE
KTZ
   44    47     1     0     0
SMALL
bcc


@<TRIPOS>ATOM
      1 CAL         0.0500   -0.1650    0.1160 ca        1 KTZ     -0.110000
      2 CAH         1.4420   -0.1510    0.1550 ca        1 KTZ     -0.137500
      3 CAE         2.1090   -0.0250    1.3730 ca        1 KTZ     -0.130000
      4 CAI         1.3770    0.0840    2.5560 ca        1 KTZ     -0.137500
      5 CAM        -0.0160    0.0700    2.5240 ca        1 KTZ     -0.110000
      6 CAS        -0.6920   -0.0510    1.3010 ca        1 KTZ     -0.024800
      7 CAV        -2.1410   -0.0480    1.2650 cc        1 KTZ     -0.019400
      8 C5         -3.0270   -1.0520    1.8040 ca        1 KTZ     -0.346400
      9 C6         -2.9130   -2.3050    2.4780 ca        1 KTZ      0.720200
     10 NAY        -1.6130   -2.8340    2.7560 nh        1 KTZ     -0.726300
     11 CAB        -1.5250   -3.7610    3.8650 c3        1 KTZ      0.165100
     12 CAA        -0.9160   -3.2970    1.5730 c3        1 KTZ      0.165100
     13 N1         -4.0220   -2.9690    2.8850 nb        1 KTZ     -0.812000
     14 C2         -5.2720   -2.3960    2.6480 ca        1 KTZ      0.892900
     15 NAC        -6.3790   -3.0520    3.2140 nv        1 KTZ     -0.918500
     16 N3         -5.5190   -1.2300    1.9550 nb        1 KTZ     -0.779000
     17 C4         -4.3850   -0.5830    1.5620 ca        1 KTZ      0.493800
     18 NAP        -4.3060    0.6230    0.8660 na        1 KTZ     -0.281100
     19 CAT        -2.9460    0.9600    0.7080 cd        1 KTZ     -0.015300
     20 CAR        -2.5570    2.2020    0.0590 ca        1 KTZ     -0.040800
     21 CAJ        -3.2480    2.6690   -1.0690 ca        1 KTZ     -0.113500
     22 CAF        -2.8710    3.8660   -1.6750 ca        1 KTZ     -0.130000
     23 CAD        -1.8050    4.6060   -1.1650 ca        1 KTZ     -0.123000
     24 CAG        -1.1120    4.1450   -0.0460 ca        1 KTZ     -0.130000
     25 CAK        -1.4840    2.9500    0.5670 ca        1 KTZ     -0.113500
     26 HAL        -0.4740   -0.2630   -0.8470 ha        1 KTZ      0.140000
     27 HAH         2.0160   -0.2380   -0.7790 ha        1 KTZ      0.130500
     28 HAE         3.2080   -0.0120    1.4020 ha        1 KTZ      0.129000
     29 HAI         1.9000    0.1790    3.5190 ha        1 KTZ      0.130500
     30 HAM        -0.5920    0.1410    3.4590 ha        1 KTZ      0.140000
     31 HAB1       -2.0420   -3.3260    4.7590 h1        1 KTZ      0.043700
     32 HAB2       -0.4370   -3.8980    4.1040 h1        1 KTZ      0.043700
     33 HAB3       -1.9730   -4.7670    3.6420 h1        1 KTZ      0.043700
     34 HAA1       -0.9740   -2.5120    0.7720 h1        1 KTZ      0.043700
     35 HAA2       -1.3340   -4.2610    1.1750 h1        1 KTZ      0.043700
     36 HAA3        0.1600   -3.4570    1.8470 h1        1 KTZ      0.043700
     37 HAC1       -7.2620   -2.8360    2.8120 hn        1 KTZ      0.419300
     38 HAC2       -6.2400   -4.0090    3.4480 hn        1 KTZ      0.419300
     39 HAP        -5.0670    1.2060    0.6320 hn        1 KTZ      0.311700
     40 HAJ        -4.0820    2.0870   -1.4890 ha        1 KTZ      0.140500
     41 HAK        -0.9350    2.5810    1.4480 ha        1 KTZ      0.140500
     42 HAF        -3.4160    4.2240   -2.5610 ha        1 KTZ      0.134500
     43 HAD        -1.5100    5.5500   -1.6460 ha        1 KTZ      0.133000
     44 HAG        -0.2690    4.7250    0.3580 ha        1 KTZ      0.134500
@<TRIPOS>BOND
     1    1    2 ar  
     2    1    6 ar  
     3    1   26 1   
     4    2    3 ar  
     5    2   27 1   
     6    3    4 ar  
     7    3   28 1   
     8    4    5 ar  
     9    4   29 1   
    10    5    6 ar  
    11    5   30 1   
    12    6    7 1   
    13    7    8 1   
    14    7   19 2   
    15    8    9 ar  
    16    8   17 ar  
    17    9   10 1   
    18    9   13 ar  
    19   10   11 1   
    20   10   12 1   
    21   11   31 1   
    22   11   32 1   
    23   11   33 1   
    24   12   34 1   
    25   12   35 1   
    26   12   36 1   
    27   13   14 ar  
    28   14   15 1   
    29   14   16 ar  
    30   15   37 1   
    31   15   38 1   
    32   16   17 ar  
    33   17   18 1   
    34   18   19 1   
    35   18   39 1   
    36   19   20 1   
    37   20   21 ar  
    38   20   25 ar  
    39   21   22 ar  
    40   21   40 1   
    41   22   23 ar  
    42   22   42 1   
    43   23   24 ar  
    44   23   43 1   
    45   24   25 ar  
    46   24   44 1   
    47   25   41 1   
@<TRIPOS>SUBSTRUCTURE
     1 KTZ         1 TEMP              0 ****  ****    0 ROOT
