@<TRIPOS>MOLECULE
KTZ
   44    47     1     0     0
SMALL
bcc


@<TRIPOS>ATOM
      1 CAL         0.0260   -0.1920    0.0720 ca        1 KTZ     -0.110000
      2 CAH         1.4200   -0.1870    0.0860 ca        1 KTZ     -0.137500
      3 CAE         2.1080   -0.0570    1.2920 ca        1 KTZ     -0.130000
      4 CAI         1.3990    0.0630    2.4870 ca        1 KTZ     -0.137500
      5 CAM         0.0050    0.0590    2.4790 ca        1 KTZ     -0.110000
      6 CAS        -0.6930   -0.0650    1.2700 ca        1 KTZ     -0.024800
      7 CAV        -2.1430   -0.0520    1.2580 cc        1 KTZ     -0.019400
      8 C5         -3.0270   -1.0650    1.7830 ca        1 KTZ     -0.345400
      9 C6         -2.9120   -2.3260    2.4410 ca        1 KTZ      0.719200
     10 NAY        -1.6090   -2.8470    2.7250 nh        1 KTZ     -0.726300
     11 CAB        -1.5230   -3.7760    3.8330 c3        1 KTZ      0.164100
     12 CAA        -0.9120   -3.3150    1.5420 c3        1 KTZ      0.164100
     13 N1         -4.0190   -2.9980    2.8380 nb        1 KTZ     -0.811000
     14 C2         -5.2720   -2.4410    2.5780 ca        1 KTZ      0.892900
     15 NAC        -6.3870   -3.2260    2.9170 nh        1 KTZ     -0.921500
     16 N3         -5.5180   -1.2340    1.9590 nb        1 KTZ     -0.779000
     17 C4         -4.3850   -0.5840    1.5670 ca        1 KTZ      0.493800
     18 NAP        -4.3090    0.6460    0.9140 na        1 KTZ     -0.281100
     19 CAT        -2.9490    0.9760    0.7400 cd        1 KTZ     -0.015300
     20 CAR        -2.5600    2.2320    0.1170 ca        1 KTZ     -0.040800
     21 CAJ        -3.2670    2.7340   -0.9860 ca        1 KTZ     -0.113500
     22 CAF        -2.8890    3.9420   -1.5680 ca        1 KTZ     -0.130000
     23 CAD        -1.8070    4.6590   -1.0580 ca        1 KTZ     -0.123000
     24 CAG        -1.0990    4.1630    0.0360 ca        1 KTZ     -0.130000
     25 CAK        -1.4720    2.9570    0.6250 ca        1 KTZ     -0.113500
     26 HAL        -0.5150   -0.2920   -0.8800 ha        1 KTZ      0.139500
     27 HAH         1.9760   -0.2840   -0.8580 ha        1 KTZ      0.131000
     28 HAE         3.2080   -0.0520    1.3000 ha        1 KTZ      0.129000
     29 HAI         1.9400    0.1610    3.4390 ha        1 KTZ      0.131000
     30 HAM        -0.5530    0.1400    3.4240 ha        1 KTZ      0.139500
     31 HAB1       -0.4350   -3.9150    4.0740 h1        1 KTZ      0.043533
     32 HAB2       -1.9740   -4.7800    3.6110 h1        1 KTZ      0.043533
     33 HAB3       -2.0380   -3.3380    4.7280 h1        1 KTZ      0.043533
     34 HAA1       -0.9700   -2.5320    0.7400 h1        1 KTZ      0.043533
     35 HAA2       -1.3320   -4.2790    1.1460 h1        1 KTZ      0.043533
     36 HAA3        0.1640   -3.4770    1.8160 h1        1 KTZ      0.043533
     37 HAC1       -7.2510   -2.7410    2.9970 hn        1 KTZ      0.419800
     38 HAC2       -6.2270   -3.9310    3.6000 hn        1 KTZ      0.419800
     39 HAP        -5.0710    1.2260    0.6790 hn        1 KTZ      0.312700
     40 HAJ        -4.1120    2.1690   -1.4070 ha        1 KTZ      0.140500
     41 HAK        -0.9100    2.5600    1.4850 ha        1 KTZ      0.140500
     42 HAF        -3.4460    4.3280   -2.4350 ha        1 KTZ      0.134000
     43 HAD        -1.5120    5.6130   -1.5200 ha        1 KTZ      0.133000
     44 HAG        -0.2440    4.7250    0.4390 ha        1 KTZ      0.134000
@<TRIPOS>BOND
     1    1    2 ar  
     2    1    6 ar  
     3    1   26 1   
     4    2    3 ar  
     5    2   27 1   
     6    3    4 ar  
     7    3   28 1   
     8    4    5 ar  
     9    4   29 1   
    10    5    6 ar  
    11    5   30 1   
    12    6    7 1   
    13    7    8 1   
    14    7   19 2   
    15    8    9 ar  
    16    8   17 ar  
    17    9   10 1   
    18    9   13 ar  
    19   10   11 1   
    20   10   12 1   
    21   11   31 1   
    22   11   32 1   
    23   11   33 1   
    24   12   34 1   
    25   12   35 1   
    26   12   36 1   
    27   13   14 ar  
    28   14   15 1   
    29   14   16 ar  
    30   15   37 1   
    31   15   38 1   
    32   16   17 ar  
    33   17   18 1   
    34   18   19 1   
    35   18   39 1   
    36   19   20 1   
    37   20   21 ar  
    38   20   25 ar  
    39   21   22 ar  
    40   21   40 1   
    41   22   23 ar  
    42   22   42 1   
    43   23   24 ar  
    44   23   43 1   
    45   24   25 ar  
    46   24   44 1   
    47   25   41 1   
@<TRIPOS>SUBSTRUCTURE
     1 KTZ         1 TEMP              0 ****  ****    0 ROOT
