@<TRIPOS>MOLECULE
KU8
   49    52     1     0     0
SMALL
bcc


@<TRIPOS>ATOM
      1 C1N         0.2290    0.1480    0.4170 c3        1 KU8      0.092000
      2 C1K         1.6600    0.2670   -0.1000 c3        1 KU8     -0.100400
      3 C1L         2.6820    0.3650    1.0270 c3        1 KU8      0.167800
      4 N1R         2.7360   -0.7970    1.8860 n7        1 KU8     -0.827200
      5 C1M         1.5420   -1.0630    2.6540 c3        1 KU8      0.164800
      6 C1O         0.4760   -1.8650    1.8850 c3        1 KU8      0.098000
      7 N2B        -0.1920   -1.1770    0.8060 n         1 KU8     -0.462800
      8 C1T        -1.0860   -1.8740    0.0030 c         1 KU8      0.675700
      9 O1A        -1.6250   -1.3380   -0.9840 o         1 KU8     -0.589100
     10 C1W        -1.4440   -3.2720    0.3980 ca        1 KU8     -0.163600
     11 C1J        -2.6540   -3.4980    1.0580 ca        1 KU8     -0.065000
     12 C1V        -0.6270   -4.3660    0.0520 ca        1 KU8      0.155900
     13 F1C         0.5480   -4.1780   -0.5920 f         1 KU8     -0.128900
     14 C1G        -1.0320   -5.6750    0.3820 ca        1 KU8     -0.169000
     15 C1F        -2.2350   -5.8770    1.0480 ca        1 KU8     -0.076000
     16 C1U        -3.0530   -4.7950    1.3930 ca        1 KU8     -0.091300
     17 C1P        -4.3300   -5.0210    2.1250 c3        1 KU8     -0.049400
     18 C1X        -5.4660   -5.5290    1.2840 cc        1 KU8      0.342900
     19 C1Z        -6.7550   -5.7330    1.9530 ca        1 KU8     -0.104900
     20 C1H        -6.9690   -5.4880    3.3180 ca        1 KU8     -0.131000
     21 C1D        -8.2230   -5.7050    3.8770 ca        1 KU8     -0.098000
     22 C1E        -9.2840   -6.1690    3.0910 ca        1 KU8     -0.138000
     23 C1I        -9.0900   -6.4180    1.7380 ca        1 KU8     -0.066000
     24 C2A        -7.8290   -6.2030    1.1670 ca        1 KU8     -0.141600
     25 C1Y        -7.6090   -6.4640   -0.2690 c         1 KU8      0.685100
     26 O1B        -8.4670   -6.8750   -1.0680 o         1 KU8     -0.614500
     27 N1S        -6.2970   -6.2200   -0.7350 ns        1 KU8     -0.298900
     28 N1Q        -5.2920   -5.7740   -0.0070 nd        1 KU8     -0.410300
     29 H1N         0.1040    0.8280    1.3100 h1        1 KU8      0.060700
     30 H1NA       -0.4700    0.5140   -0.3920 h1        1 KU8      0.060700
     31 H1K         1.7310    1.2080   -0.7060 hc        1 KU8      0.060700
     32 H1KA        1.9100   -0.5910   -0.7760 hc        1 KU8      0.060700
     33 H1L         2.4650    1.3090    1.6140 h1        1 KU8      0.026700
     34 H1LA        3.7040    0.4830    0.5660 h1        1 KU8      0.026700
     35 HN1R        3.5270   -0.7240    2.4980 hn        1 KU8      0.365800
     36 H1M         1.8300   -1.7080    3.5340 h1        1 KU8      0.035700
     37 H1MA        1.0730   -0.1210    3.0650 h1        1 KU8      0.035700
     38 H1O         0.9550   -2.8080    1.4850 h1        1 KU8      0.045700
     39 H1OA       -0.3090   -2.1690    2.6390 h1        1 KU8      0.045700
     40 H1J        -3.2990   -2.6390    1.3030 ha        1 KU8      0.149000
     41 H1G        -0.3920   -6.5240    0.1020 ha        1 KU8      0.153000
     42 H1F        -2.5520   -6.9020    1.2980 ha        1 KU8      0.142000
     43 H1P        -4.6660   -4.0580    2.6020 hc        1 KU8      0.063700
     44 H1PA       -4.1540   -5.7690    2.9470 hc        1 KU8      0.063700
     45 H1H        -6.1450   -5.1230    3.9500 ha        1 KU8      0.140000
     46 H1D        -8.3840   -5.5100    4.9490 ha        1 KU8      0.139000
     47 H1E       -10.2720   -6.3360    3.5460 ha        1 KU8      0.143000
     48 H1I        -9.9120   -6.7840    1.1000 ha        1 KU8      0.163000
     49 HN1S       -6.0840   -6.3560   -1.7060 hn        1 KU8      0.362500
@<TRIPOS>BOND
     1    1    2 1   
     2    1    7 1   
     3    1   29 1   
     4    1   30 1   
     5    2    3 1   
     6    2   31 1   
     7    2   32 1   
     8    3    4 1   
     9    3   33 1   
    10    3   34 1   
    11    4    5 1   
    12    4   35 1   
    13    5    6 1   
    14    5   36 1   
    15    5   37 1   
    16    6    7 1   
    17    6   38 1   
    18    6   39 1   
    19    7    8 1   
    20    8    9 2   
    21    8   10 1   
    22   10   11 ar  
    23   10   12 ar  
    24   11   16 ar  
    25   11   40 1   
    26   12   13 1   
    27   12   14 ar  
    28   14   15 ar  
    29   14   41 1   
    30   15   16 ar  
    31   15   42 1   
    32   16   17 1   
    33   17   18 1   
    34   17   43 1   
    35   17   44 1   
    36   18   19 1   
    37   18   28 2   
    38   19   20 ar  
    39   19   24 ar  
    40   20   21 ar  
    41   20   45 1   
    42   21   22 ar  
    43   21   46 1   
    44   22   23 ar  
    45   22   47 1   
    46   23   24 ar  
    47   23   48 1   
    48   24   25 1   
    49   25   26 2   
    50   25   27 1   
    51   27   28 1   
    52   27   49 1   
@<TRIPOS>SUBSTRUCTURE
     1 KU8         1 TEMP              0 ****  ****    0 ROOT
