@<TRIPOS>MOLECULE
KU8
   49    52     1     0     0
SMALL
bcc


@<TRIPOS>ATOM
      1 C1N        -0.0150    0.0960    0.3370 c3        1 KU8      0.093000
      2 C1K         1.4440    0.1980   -0.0990 c3        1 KU8     -0.104400
      3 C1L         2.4200    0.2070    1.0710 c3        1 KU8      0.168800
      4 N1R         2.2920   -0.9230    1.9670 n3        1 KU8     -0.825200
      5 C1M         1.0960   -0.9260    2.7770 c3        1 KU8      0.155800
      6 C1O        -0.1060   -1.6330    2.1160 c3        1 KU8      0.095000
      7 N2B        -0.4460   -1.2120    0.7800 n         1 KU8     -0.451800
      8 C1T        -0.8030   -2.1500   -0.1900 c         1 KU8      0.673700
      9 O1A        -0.8740   -1.8310   -1.3920 o         1 KU8     -0.581100
     10 C1W        -1.1950   -3.5210    0.2590 ca        1 KU8     -0.165600
     11 C1J        -2.3880   -3.7030    0.9620 ca        1 KU8     -0.068000
     12 C1V        -0.4140   -4.6430   -0.0850 ca        1 KU8      0.168900
     13 F1C         0.7480   -4.5000   -0.7610 f         1 KU8     -0.123900
     14 C1G        -0.8420   -5.9330    0.2880 ca        1 KU8     -0.173000
     15 C1F        -2.0320   -6.0920    0.9860 ca        1 KU8     -0.078000
     16 C1U        -2.8140   -4.9820    1.3290 ca        1 KU8     -0.094300
     17 C1P        -4.0780   -5.1610    2.0950 c3        1 KU8     -0.048400
     18 C1X        -5.2910   -5.4610    1.2600 cc        1 KU8      0.340900
     19 C1Z        -6.5640   -5.6350    1.9670 ca        1 KU8     -0.104900
     20 C1H        -6.6980   -5.5410    3.3600 ca        1 KU8     -0.131000
     21 C1D        -7.9420   -5.7180    3.9540 ca        1 KU8     -0.098000
     22 C1E        -9.0720   -5.9930    3.1750 ca        1 KU8     -0.138000
     23 C1I        -8.9580   -6.0900    1.7940 ca        1 KU8     -0.066000
     24 C2A        -7.7080   -5.9130    1.1870 ca        1 KU8     -0.141600
     25 C1Y        -7.5720   -6.0130   -0.2790 c         1 KU8      0.685100
     26 O1B        -8.4960   -6.2500   -1.0750 o         1 KU8     -0.614500
     27 N1S        -6.2650   -5.8210   -0.7810 n         1 KU8     -0.298900
     28 N1Q        -5.1940   -5.5580   -0.0580 nd        1 KU8     -0.408300
     29 H1N        -0.2080    0.8230    1.1760 h1        1 KU8      0.058200
     30 H1NA       -0.6640    0.3870   -0.5410 h1        1 KU8      0.058200
     31 H1K         1.6890   -0.6420   -0.8010 hc        1 KU8      0.061700
     32 H1KA        1.5730    1.1600   -0.6610 hc        1 KU8      0.061700
     33 H1L         3.4670    0.1850    0.6520 h1        1 KU8      0.026700
     34 H1LA        2.2980    1.1900    1.6210 h1        1 KU8      0.026700
     35 HN1R        3.1040   -0.9830    2.5510 hn        1 KU8      0.365800
     36 H1M         1.3030   -1.4950    3.7290 h1        1 KU8      0.033200
     37 H1MA        0.7780    0.1170    3.0730 h1        1 KU8      0.033200
     38 H1O         0.0950   -2.7430    2.1260 h1        1 KU8      0.045700
     39 H1OA       -1.0010   -1.4370    2.7770 h1        1 KU8      0.045700
     40 H1J        -3.0000   -2.8230    1.2190 ha        1 KU8      0.147000
     41 H1G        -0.2280   -6.8030    0.0130 ha        1 KU8      0.153000
     42 H1F        -2.3670   -7.1030    1.2650 ha        1 KU8      0.141000
     43 H1P        -3.9520   -6.0080    2.8260 hc        1 KU8      0.062700
     44 H1PA       -4.2960   -4.2280    2.6840 hc        1 KU8      0.062700
     45 H1H        -5.8190   -5.3260    3.9860 ha        1 KU8      0.140000
     46 H1D        -8.0410   -5.6430    5.0480 ha        1 KU8      0.139000
     47 H1E       -10.0510   -6.1310    3.6580 ha        1 KU8      0.143000
     48 H1I        -9.8350   -6.3050    1.1610 ha        1 KU8      0.163000
     49 HN1S       -6.1030   -5.8620   -1.7710 hn        1 KU8      0.363500
@<TRIPOS>BOND
     1    1    2 1   
     2    1    7 1   
     3    1   29 1   
     4    1   30 1   
     5    2    3 1   
     6    2   31 1   
     7    2   32 1   
     8    3    4 1   
     9    3   33 1   
    10    3   34 1   
    11    4    5 1   
    12    4   35 1   
    13    5    6 1   
    14    5   36 1   
    15    5   37 1   
    16    6    7 1   
    17    6   38 1   
    18    6   39 1   
    19    7    8 1   
    20    8    9 2   
    21    8   10 1   
    22   10   11 ar  
    23   10   12 ar  
    24   11   16 ar  
    25   11   40 1   
    26   12   13 1   
    27   12   14 ar  
    28   14   15 ar  
    29   14   41 1   
    30   15   16 ar  
    31   15   42 1   
    32   16   17 1   
    33   17   18 1   
    34   17   43 1   
    35   17   44 1   
    36   18   19 1   
    37   18   28 2   
    38   19   20 ar  
    39   19   24 ar  
    40   20   21 ar  
    41   20   45 1   
    42   21   22 ar  
    43   21   46 1   
    44   22   23 ar  
    45   22   47 1   
    46   23   24 ar  
    47   23   48 1   
    48   24   25 1   
    49   25   26 2   
    50   25   27 1   
    51   27   28 1   
    52   27   49 1   
@<TRIPOS>SUBSTRUCTURE
     1 KU8         1 TEMP              0 ****  ****    0 ROOT
