@<TRIPOS>MOLECULE
KU8
   49    52     1     0     0
SMALL
bcc


@<TRIPOS>ATOM
      1 C1N        -4.7630   -1.6250   -1.7010 c3        1 KU8      0.093000
      2 C1K        -5.8240   -0.5280   -1.7720 c3        1 KU8     -0.142400
      3 C1L        -6.7200   -0.4860   -0.5380 c3        1 KU8      0.159800
      4 N1R        -6.0780   -0.4280    0.7560 n3        1 KU8     -0.815200
      5 C1M        -5.3960   -1.6310    1.1620 c3        1 KU8      0.146800
      6 C1O        -3.9650   -1.8690    0.6200 c3        1 KU8      0.054000
      7 N2B        -3.7230   -1.3970   -0.7190 n         1 KU8     -0.463800
      8 C1T        -2.6810   -0.5360   -1.0430 c         1 KU8      0.672700
      9 O1A        -2.5380   -0.1350   -2.2150 o         1 KU8     -0.586100
     10 C1W        -1.6980   -0.1400    0.0100 ca        1 KU8     -0.163600
     11 C1J        -0.3990   -0.6450   -0.0510 ca        1 KU8     -0.061000
     12 C1V        -2.0310    0.7990    1.0090 ca        1 KU8      0.147900
     13 F1C        -3.2840    1.3060    1.0890 f         1 KU8     -0.137900
     14 C1G        -1.0560    1.2120    1.9370 ca        1 KU8     -0.167000
     15 C1F         0.2290    0.6870    1.8650 ca        1 KU8     -0.075000
     16 C1U         0.5680   -0.2450    0.8760 ca        1 KU8     -0.088300
     17 C1P         1.9400   -0.8180    0.8220 c3        1 KU8     -0.050400
     18 C1X         2.9960    0.1030    0.2780 cc        1 KU8      0.342900
     19 C1Z         4.3570   -0.4310    0.1670 ca        1 KU8     -0.104900
     20 C1H         4.7140   -1.7340    0.5460 ca        1 KU8     -0.131000
     21 C1D         6.0280   -2.1650    0.4060 ca        1 KU8     -0.097000
     22 C1E         7.0080   -1.3100   -0.1110 ca        1 KU8     -0.137000
     23 C1I         6.6740   -0.0160   -0.4900 ca        1 KU8     -0.066000
     24 C2A         5.3520    0.4260   -0.3520 ca        1 KU8     -0.141600
     25 C1Y         4.9820    1.7990   -0.7500 c         1 KU8      0.685100
     26 O1B         5.7570    2.6480   -1.2210 o         1 KU8     -0.613500
     27 N1S         3.6230    2.1400   -0.5580 n         1 KU8     -0.298900
     28 N1Q         2.6890    1.3410   -0.0820 nd        1 KU8     -0.412300
     29 H1N        -5.2580   -2.6080   -1.4600 h1        1 KU8      0.061200
     30 H1NA       -4.2720   -1.7100   -2.7140 h1        1 KU8      0.061200
     31 H1K        -5.3270    0.4660   -1.9240 hc        1 KU8      0.059200
     32 H1KA       -6.4650   -0.7240   -2.6710 hc        1 KU8      0.059200
     33 H1L        -7.3780    0.4270   -0.6120 h1        1 KU8      0.050200
     34 H1LA       -7.3920   -1.3910   -0.5510 h1        1 KU8      0.050200
     35 HN1R       -5.4660    0.3660    0.8170 hn        1 KU8      0.372800
     36 H1M        -5.3140   -1.5990    2.2870 h1        1 KU8      0.054200
     37 H1MA       -6.0320   -2.5190    0.8900 h1        1 KU8      0.054200
     38 H1O        -3.2340   -1.3870    1.3300 h1        1 KU8      0.049200
     39 H1OA       -3.7740   -2.9810    0.6390 h1        1 KU8      0.049200
     40 H1J        -0.1390   -1.3570   -0.8520 ha        1 KU8      0.152000
     41 H1G        -1.3220    1.9510    2.7070 ha        1 KU8      0.154000
     42 H1F         0.9920    1.0160    2.5880 ha        1 KU8      0.144000
     43 H1P         2.2540   -1.1190    1.8610 hc        1 KU8      0.065200
     44 H1PA        1.9380   -1.7440    0.1820 hc        1 KU8      0.065200
     45 H1H         3.9550   -2.4180    0.9540 ha        1 KU8      0.140000
     46 H1D         6.3010   -3.1890    0.7050 ha        1 KU8      0.139000
     47 H1E         8.0450   -1.6650   -0.2160 ha        1 KU8      0.143000
     48 H1I         7.4300    0.6740   -0.8990 ha        1 KU8      0.163000
     49 HN1S        3.2990    3.0500   -0.8300 hn        1 KU8      0.362500
@<TRIPOS>BOND
     1    1    2 1   
     2    1    7 1   
     3    1   29 1   
     4    1   30 1   
     5    2    3 1   
     6    2   31 1   
     7    2   32 1   
     8    3    4 1   
     9    3   33 1   
    10    3   34 1   
    11    4    5 1   
    12    4   35 1   
    13    5    6 1   
    14    5   36 1   
    15    5   37 1   
    16    6    7 1   
    17    6   38 1   
    18    6   39 1   
    19    7    8 1   
    20    8    9 2   
    21    8   10 1   
    22   10   11 ar  
    23   10   12 ar  
    24   11   16 ar  
    25   11   40 1   
    26   12   13 1   
    27   12   14 ar  
    28   14   15 ar  
    29   14   41 1   
    30   15   16 ar  
    31   15   42 1   
    32   16   17 1   
    33   17   18 1   
    34   17   43 1   
    35   17   44 1   
    36   18   19 1   
    37   18   28 2   
    38   19   20 ar  
    39   19   24 ar  
    40   20   21 ar  
    41   20   45 1   
    42   21   22 ar  
    43   21   46 1   
    44   22   23 ar  
    45   22   47 1   
    46   23   24 ar  
    47   23   48 1   
    48   24   25 1   
    49   25   26 2   
    50   25   27 1   
    51   27   28 1   
    52   27   49 1   
@<TRIPOS>SUBSTRUCTURE
     1 KU8         1 TEMP              0 ****  ****    0 ROOT
