@<TRIPOS>MOLECULE
KU8
   49    52     1     0     0
SMALL
bcc


@<TRIPOS>ATOM
      1 C1N         0.2220    0.1550    0.4170 c3        1 KU8      0.092000
      2 C1K         1.6530    0.2750   -0.1000 c3        1 KU8     -0.100400
      3 C1L         2.6740    0.3770    1.0270 c3        1 KU8      0.167800
      4 N1R         2.7310   -0.7850    1.8870 n3        1 KU8     -0.827200
      5 C1M         1.5370   -1.0530    2.6540 c3        1 KU8      0.164800
      6 C1O         0.4720   -1.8570    1.8850 c3        1 KU8      0.098000
      7 N2B        -0.1960   -1.1710    0.8060 n         1 KU8     -0.462800
      8 C1T        -1.0890   -1.8710    0.0030 c         1 KU8      0.675700
      9 O1A        -1.6280   -1.3360   -0.9860 o         1 KU8     -0.589100
     10 C1W        -1.4440   -3.2680    0.3980 ca        1 KU8     -0.163600
     11 C1J        -2.6540   -3.4960    1.0580 ca        1 KU8     -0.065000
     12 C1V        -0.6250   -4.3620    0.0540 ca        1 KU8      0.155900
     13 F1C         0.5510   -4.1720   -0.5890 f         1 KU8     -0.128900
     14 C1G        -1.0280   -5.6710    0.3850 ca        1 KU8     -0.169000
     15 C1F        -2.2310   -5.8750    1.0500 ca        1 KU8     -0.076000
     16 C1U        -3.0510   -4.7930    1.3930 ca        1 KU8     -0.091300
     17 C1P        -4.3280   -5.0210    2.1240 c3        1 KU8     -0.049400
     18 C1X        -5.4620   -5.5360    1.2840 cc        1 KU8      0.342900
     19 C1Z        -6.7510   -5.7410    1.9530 ca        1 KU8     -0.104900
     20 C1H        -6.9670   -5.4920    3.3160 ca        1 KU8     -0.131000
     21 C1D        -8.2210   -5.7100    3.8740 ca        1 KU8     -0.098000
     22 C1E        -9.2800   -6.1810    3.0890 ca        1 KU8     -0.138000
     23 C1I        -9.0840   -6.4340    1.7370 ca        1 KU8     -0.066000
     24 C2A        -7.8230   -6.2180    1.1670 ca        1 KU8     -0.141600
     25 C1Y        -7.6000   -6.4840   -0.2680 c         1 KU8      0.685100
     26 O1B        -8.4560   -6.9000   -1.0670 o         1 KU8     -0.614500
     27 N1S        -6.2880   -6.2380   -0.7330 n         1 KU8     -0.298900
     28 N1Q        -5.2850   -5.7860   -0.0050 nd        1 KU8     -0.410300
     29 H1N         0.0950    0.8340    1.3090 h1        1 KU8      0.060700
     30 H1NA       -0.4770    0.5190   -0.3930 h1        1 KU8      0.060700
     31 H1K         1.7230    1.2170   -0.7070 hc        1 KU8      0.060700
     32 H1KA        1.9050   -0.5830   -0.7750 hc        1 KU8      0.060700
     33 H1L         3.6970    0.4950    0.5660 h1        1 KU8      0.026700
     34 H1LA        2.4560    1.3210    1.6130 h1        1 KU8      0.026700
     35 HN1R        3.5210   -0.7100    2.4990 hn        1 KU8      0.365800
     36 H1M         1.0650   -0.1110    3.0640 h1        1 KU8      0.035700
     37 H1MA        1.8250   -1.6960    3.5360 h1        1 KU8      0.035700
     38 H1O         0.9530   -2.8000    1.4870 h1        1 KU8      0.045700
     39 H1OA       -0.3130   -2.1620    2.6400 h1        1 KU8      0.045700
     40 H1J        -3.3010   -2.6390    1.3020 ha        1 KU8      0.149000
     41 H1G        -0.3860   -6.5190    0.1060 ha        1 KU8      0.153000
     42 H1F        -2.5460   -6.9000    1.3000 ha        1 KU8      0.142000
     43 H1P        -4.6680   -4.0590    2.5980 hc        1 KU8      0.063700
     44 H1PA       -4.1510   -5.7660    2.9500 hc        1 KU8      0.063700
     45 H1H        -6.1450   -5.1220    3.9470 ha        1 KU8      0.140000
     46 H1D        -8.3850   -5.5120    4.9450 ha        1 KU8      0.139000
     47 H1E       -10.2680   -6.3480    3.5430 ha        1 KU8      0.143000
     48 H1I        -9.9030   -6.8050    1.0990 ha        1 KU8      0.163000
     49 HN1S       -6.0730   -6.3770   -1.7040 hn        1 KU8      0.362500
@<TRIPOS>BOND
     1    1    2 1   
     2    1    7 1   
     3    1   29 1   
     4    1   30 1   
     5    2    3 1   
     6    2   31 1   
     7    2   32 1   
     8    3    4 1   
     9    3   33 1   
    10    3   34 1   
    11    4    5 1   
    12    4   35 1   
    13    5    6 1   
    14    5   36 1   
    15    5   37 1   
    16    6    7 1   
    17    6   38 1   
    18    6   39 1   
    19    7    8 1   
    20    8    9 2   
    21    8   10 1   
    22   10   11 ar  
    23   10   12 ar  
    24   11   16 ar  
    25   11   40 1   
    26   12   13 1   
    27   12   14 ar  
    28   14   15 ar  
    29   14   41 1   
    30   15   16 ar  
    31   15   42 1   
    32   16   17 1   
    33   17   18 1   
    34   17   43 1   
    35   17   44 1   
    36   18   19 1   
    37   18   28 2   
    38   19   20 ar  
    39   19   24 ar  
    40   20   21 ar  
    41   20   45 1   
    42   21   22 ar  
    43   21   46 1   
    44   22   23 ar  
    45   22   47 1   
    46   23   24 ar  
    47   23   48 1   
    48   24   25 1   
    49   25   26 2   
    50   25   27 1   
    51   27   28 1   
    52   27   49 1   
@<TRIPOS>SUBSTRUCTURE
     1 KU8         1 TEMP              0 ****  ****    0 ROOT
