@<TRIPOS>MOLECULE
KU8
   49    48     1     0     0
SMALL
bcc


@<TRIPOS>ATOM
      1 C1N         3.2000    3.7390   -0.5810 c3        1 KU8     -0.024000
      2 C1K         4.4070    3.5570   -1.4590 c3        1 KU8     -0.179000
      3 C1L         5.5870    3.0140   -0.6600 c3        1 KU8     -0.069000
      4 N1R         5.2150    1.8990    0.0860 n3        1 KU8     -0.306000
      5 C1M         4.4450    2.2840    1.2520 c3        1 KU8     -0.072000
      6 C1O         2.9860    2.0560    1.0230 c3        1 KU8     -0.018000
      7 N2B         2.6060    2.4900   -0.2680 n         1 KU8     -0.321000
      8 C1T         1.7380    1.7710   -1.1350 c2        1 KU8      0.349000
      9 O1A         1.4660    2.2150   -2.2130 o         1 KU8     -0.350000
     10 C1W         1.1740    0.3910   -0.7000 c2        1 KU8     -0.143000
     11 C1J        -0.1200    0.2990   -0.1840 c2        1 KU8     -0.065000
     12 C1V         1.9270   -0.7300   -0.8510 c1        1 KU8      0.121000
     13 F1C         3.1000   -0.6640   -1.5060 f         1 KU8     -0.094000
     14 C1G         1.3960   -1.9880   -0.4830 c2        1 KU8     -0.169000
     15 C1F         0.1090   -2.0770    0.0310 c1        1 KU8     -0.076000
     16 C1U        -0.6440   -0.9530    0.1810 c1        1 KU8     -0.084000
     17 C1P        -1.9630   -1.0290    0.8840 c3        1 KU8     -0.060000
     18 C1X        -2.9600   -1.8170    0.0110 c2        1 KU8     -0.104000
     19 C1Z        -4.3130   -2.2190    0.5760 c2        1 KU8     -0.021000
     20 C1H        -4.6370   -1.9130    1.9120 c2        1 KU8     -0.131000
     21 C1D        -5.8570   -2.2720    2.4210 c1        1 KU8     -0.098000
     22 C1E        -6.7620   -2.9300    1.6330 c1        1 KU8     -0.102000
     23 C1I        -6.4380   -3.2340    0.3090 c1        1 KU8     -0.102000
     24 C2A        -5.2020   -2.8680   -0.2050 c1        1 KU8     -0.121000
     25 C1Y        -4.8540   -3.1950   -1.6320 c2        1 KU8      0.322000
     26 O1B        -5.6770   -3.6770   -2.3490 o         1 KU8     -0.339000
     27 N1S        -3.5640   -2.8120   -2.1700 n         1 KU8     -0.278000
     28 N1Q        -2.6320   -2.1250   -1.3550 n2        1 KU8      0.010000
     29 H1N         2.5250    4.3130   -1.0620 h1        1 KU8      0.100000
     30 H1NA        3.4850    4.2060    0.2860 h1        1 KU8      0.100000
     31 H1K         4.1860    2.9140   -2.2020 hc        1 KU8      0.100000
     32 H1KA        4.6550    4.4320   -1.8480 hc        1 KU8      0.100000
     33 H1L         6.3070    2.7590   -1.2830 h1        1 KU8      0.066000
     34 H1LA        5.9080    3.6940   -0.0680 h1        1 KU8      0.066000
     35 HN1R        5.9570    1.4550    0.3500 hn        1 KU8      0.161000
     36 H1M         4.5980    3.2240    1.4420 h1        1 KU8      0.075000
     37 H1MA        4.7420    1.7360    2.0380 h1        1 KU8      0.075000
     38 H1O         2.4460    2.5700    1.7240 h1        1 KU8      0.085000
     39 H1OA        2.8010    1.1230    1.1050 h1        1 KU8      0.085000
     40 H1J        -0.6660    1.1140   -0.0760 ha        1 KU8      0.149000
     41 H1G         1.9240   -2.7780   -0.5880 ha        1 KU8      0.153000
     42 H1F        -0.2660   -2.9660    0.2900 ha        1 KU8      0.142000
     43 H1P        -2.3220   -0.0740    1.0450 hc        1 KU8      0.103000
     44 H1PA       -1.8430   -1.5100    1.7950 hc        1 KU8      0.103000
     45 H1H        -4.0190   -1.4650    2.4500 ha        1 KU8      0.140000
     46 H1D        -6.0740   -2.0650    3.3170 ha        1 KU8      0.139000
     47 H1E        -7.6710   -3.1970    2.0110 ha        1 KU8      0.153000
     48 H1I        -7.0560   -3.6840   -0.2330 ha        1 KU8      0.153000
     49 HN1S       -3.3490   -3.0130   -3.0640 hn        1 KU8      0.276000
@<TRIPOS>BOND
     1    1    2 1   
     2    1    7 1   
     3    1   29 1   
     4    1   30 1   
     5    2    3 1   
     6    2   31 1   
     7    2   32 1   
     8    3    4 1   
     9    3   33 1   
    10    3   34 1   
    11    4    5 1   
    12    4   35 1   
    13    5    6 1   
    14    5   36 1   
    15    5   37 1   
    16    6    7 1   
    17    6   38 1   
    18    6   39 1   
    19    7    8 1   
    20    8    9 1   
    21    8   10 1   
    22   10   11 1   
    23   10   12 1   
    24   11   16 1   
    25   11   40 1   
    26   12   14 1   
    27   14   15 1   
    28   14   41 1   
    29   15   42 1   
    30   16   17 1   
    31   17   18 1   
    32   17   43 1   
    33   17   44 1   
    34   18   19 1   
    35   18   28 1   
    36   19   20 1   
    37   19   24 1   
    38   20   21 1   
    39   20   45 1   
    40   21   46 1   
    41   22   23 1   
    42   22   47 1   
    43   23   48 1   
    44   24   25 1   
    45   25   26 1   
    46   25   27 1   
    47   27   28 1   
    48   27   49 1   
@<TRIPOS>SUBSTRUCTURE
     1 KU8         1 TEMP              0 ****  ****    0 ROOT
