@<TRIPOS>MOLECULE
KUF
   21    22     1     0     0
SMALL
bcc


@<TRIPOS>ATOM
      1 C4         -0.0050   -0.0660   -0.0100 ca        1 KUF     -0.141000
      2 C3          1.3800   -0.0590   -0.0150 ca        1 KUF     -0.095000
      3 C12         1.4200    0.0300    2.4000 ca        1 KUF     -0.065000
      4 C5         -0.7100   -0.0250    1.2080 ca        1 KUF      0.010200
      5 C11         0.0170    0.0240    2.4150 ca        1 KUF     -0.152600
      6 C2          2.1070   -0.0110    1.1900 ca        1 KUF     -0.099300
      7 C6         -2.1480   -0.0300    1.2600 cc        1 KUF     -0.213200
      8 C7         -2.7840    0.0110    2.4670 cd        1 KUF      0.002600
      9 C9         -0.6950    0.0680    3.7070 c         1 KUF      0.703100
     10 C1          3.5870   -0.0060    1.1530 c3        1 KUF     -0.052800
     11 N8         -2.0970    0.0590    3.6620 n         1 KUF     -0.456100
     12 O10        -0.1380    0.1120    4.8210 o         1 KUF     -0.638500
     13 H4         -0.5660   -0.1040   -0.9550 ha        1 KUF      0.137000
     14 H3          1.9270   -0.0910   -0.9700 ha        1 KUF      0.134000
     15 H12         1.9620    0.0690    3.3590 ha        1 KUF      0.158000
     16 H6         -2.7180   -0.0680    0.3240 ha        1 KUF      0.149000
     17 H11C        4.0190    0.0670    2.1810 hc        1 KUF      0.046033
     18 H12C        3.9570    0.8620    0.5530 hc        1 KUF      0.046033
     19 H13C        3.9650   -0.9450    0.6770 hc        1 KUF      0.046033
     20 H7         -3.8860    0.0080    2.5500 h4        1 KUF      0.149000
     21 H8         -2.5980    0.0880    4.5220 hn        1 KUF      0.333500
@<TRIPOS>BOND
     1    1    2 ar  
     2    1    4 ar  
     3    1   13 1   
     4    2    6 ar  
     5    2   14 1   
     6    3    5 ar  
     7    3    6 ar  
     8    3   15 1   
     9    4    5 ar  
    10    4    7 1   
    11    5    9 1   
    12    6   10 1   
    13    7    8 2   
    14    7   16 1   
    15    8   11 1   
    16    8   20 1   
    17    9   11 1   
    18    9   12 2   
    19   10   17 1   
    20   10   18 1   
    21   10   19 1   
    22   11   21 1   
@<TRIPOS>SUBSTRUCTURE
     1 KUF         1 TEMP              0 ****  ****    0 ROOT
