@<TRIPOS>MOLECULE
KUF
   21    22     1     0     0
SMALL
bcc


@<TRIPOS>ATOM
      1 C4          0.0010   -0.0630   -0.0110 ca        1 KUF     -0.141000
      2 C3          1.3850   -0.0580   -0.0110 ca        1 KUF     -0.095000
      3 C12         1.4180    0.0280    2.4030 ca        1 KUF     -0.065000
      4 C5         -0.7090   -0.0220    1.2040 ca        1 KUF      0.010200
      5 C11         0.0150    0.0230    2.4140 ca        1 KUF     -0.152600
      6 C2          2.1080   -0.0130    1.1960 ca        1 KUF     -0.099300
      7 C6         -2.1470   -0.0260    1.2520 cc        1 KUF     -0.213200
      8 C7         -2.7860    0.0140    2.4570 cd        1 KUF      0.002600
      9 C9         -0.7010    0.0660    3.7040 c         1 KUF      0.703100
     10 C1          3.5890   -0.0100    1.1630 c3        1 KUF     -0.052800
     11 N8         -2.1030    0.0590    3.6550 ns        1 KUF     -0.456100
     12 O10        -0.1470    0.1070    4.8200 o         1 KUF     -0.638500
     13 H4         -0.5570   -0.0980   -0.9580 ha        1 KUF      0.137000
     14 H3          1.9360   -0.0890   -0.9650 ha        1 KUF      0.134000
     15 H12         1.9570    0.0640    3.3650 ha        1 KUF      0.158000
     16 H6         -2.7140   -0.0610    0.3140 ha        1 KUF      0.149000
     17 H11C        3.9620    0.8580    0.5640 hc        1 KUF      0.046033
     18 H12C        3.9670   -0.9500    0.6890 hc        1 KUF      0.046033
     19 H13C        4.0180    0.0620    2.1930 hc        1 KUF      0.046033
     20 H7         -3.8890    0.0130    2.5370 h4        1 KUF      0.149000
     21 H8         -2.6060    0.0870    4.5130 hn        1 KUF      0.333500
@<TRIPOS>BOND
     1    1    2 ar  
     2    1    4 ar  
     3    1   13 1   
     4    2    6 ar  
     5    2   14 1   
     6    3    5 ar  
     7    3    6 ar  
     8    3   15 1   
     9    4    5 ar  
    10    4    7 1   
    11    5    9 1   
    12    6   10 1   
    13    7    8 2   
    14    7   16 1   
    15    8   11 1   
    16    8   20 1   
    17    9   11 1   
    18    9   12 2   
    19   10   17 1   
    20   10   18 1   
    21   10   19 1   
    22   11   21 1   
@<TRIPOS>SUBSTRUCTURE
     1 KUF         1 TEMP              0 ****  ****    0 ROOT
