@<TRIPOS>MOLECULE
KV1
   61    56     1     0     0
SMALL
bcc


@<TRIPOS>ATOM
      1 C1          0.3440   -2.4120   -2.5730 c3        1 KV1     -0.300000
      2 N1          2.2960   -0.2830    1.0380 n2        1 KV1     -0.118000
      3 O1          3.3380    1.5740    1.8230 o         1 KV1     -0.119000
      4 C2          1.8220   -0.8160    0.1250 c1        1 KV1      0.272000
      5 N2          4.5830   -0.3730    3.8580 nx        1 KV1      0.091000
      6 O2          4.9740   -1.1560    1.6960 o         1 KV1     -0.288000
      7 C3          2.9770    0.4480    2.1030 c2        1 KV1      0.387000
      8 N3          7.2050    4.0440    5.6040 nz        1 KV1     -0.142000
      9 O3          8.2390   -2.6080    4.6670 os        1 KV1     -0.052000
     10 C4          3.1290   -0.2920    3.4120 c3        1 KV1     -0.182000
     11 N4          8.4100    8.6030    5.8270 n2        1 KV1      0.043000
     12 C5          5.2610    2.0190    6.3860 c1        1 KV1     -0.382000
     13 N5          8.0620    7.7140    4.9270 na        1 KV1     -0.012000
     14 C6          5.1970    1.4800    5.3100 c1        1 KV1     -0.053000
     15 C7          5.1970    0.8870    4.0660 c2        1 KV1     -0.556000
     16 C9          6.5240   -1.8920    3.3790 c2        1 KV1     -0.268000
     17 C10         7.1920   -1.7270    4.5940 c2        1 KV1      0.031000
     18 C11         8.2500   -3.3580    3.4790 c2        1 KV1     -0.062000
     19 C12         9.5700   -5.7330    1.9520 c1        1 KV1      0.154000
     20 C13         9.2770   -6.3520    0.8280 c2        1 KV1     -0.367000
     21 C14         8.2300   -5.9960   -0.1020 c2        1 KV1     -0.367000
     22 C15         7.2910   -5.0900    0.0700 c1        1 KV1      0.154000
     23 C16         7.2200   -2.9510    2.6600 c2        1 KV1     -0.154000
     24 C18         7.8020    6.4490    5.5180 c2        1 KV1     -0.254000
     25 C19         8.0200    6.6090    6.9160 c2        1 KV1     -0.130000
     26 C20         8.4010    7.9780    7.0730 c2        1 KV1      0.033000
     27 C21         8.7210    8.6180    8.2720 c1        1 KV1     -0.174000
     28 C22         8.9980    9.1740    9.2960 c1        1 KV1     -0.066000
     29 H1          0.7780   -3.2070   -1.9270 hc        1 KV1      0.077250
     30 H1A        -0.3740   -1.7900   -1.9920 hc        1 KV1      0.077250
     31 H1B         1.3580   -1.3340   -0.7270 ha        1 KV1      0.365000
     32 HN1        -0.6210   -0.3680   -0.1370 ha        1 KV1      0.002000
     33 H2          1.1530   -1.7750   -2.9950 hc        1 KV1      0.077250
     34 H2A        -0.2040   -2.8950   -3.4140 hc        1 KV1      0.077250
     35 HN3         6.5160    4.2150    6.3480 hn        1 KV1      0.269333
     36 H4          2.7040   -1.3320    3.3720 hx        1 KV1      0.169000
     37 H5          5.2390    2.4500    7.3550 ha        1 KV1      0.233000
     38 H5A         2.5760    0.3210    4.1870 hx        1 KV1      0.169000
     39 H6          6.8620    3.2680    5.0150 hn        1 KV1      0.269333
     40 H7          4.5580   -0.8890    4.7500 hn        1 KV1      0.252000
     41 H7A         5.4760    1.4400    3.1620 hx        1 KV1      0.181000
     42 H10         7.0740   -1.0590    5.4490 h4        1 KV1      0.214000
     43 H12         9.0500   -4.1080    3.4260 h4        1 KV1      0.258000
     44 H13         9.8900   -7.2410    0.5510 ha        1 KV1      0.216500
     45 H14         8.2320   -6.5580   -1.0650 ha        1 KV1      0.216500
     46 H15         6.9530   -3.3240    1.6670 ha        1 KV1      0.209000
     47 H19         7.9240    5.8690    7.7070 ha        1 KV1      0.177000
     48 H21         5.9940    4.3420    8.9360 ha        1 KV1      0.002000
     49 H21A        6.3880    4.2130    8.3990 ha        1 KV1      0.002000
     50 H22         8.6070    3.7230    8.0750 ha        1 KV1      0.002000
     51 H22A        9.1010    3.6280    8.5310 ha        1 KV1      0.002000
     52 H22B        9.2440    9.6650   10.2080 ha        1 KV1      0.250000
     53 H23         6.9090    7.7440    3.1710 h1        1 KV1      0.133667
     54 H23A        8.6780    7.3040    2.9600 h1        1 KV1      0.133667
     55 H23B        8.1990    9.0510    3.2810 h1        1 KV1      0.133667
     56 C8          5.3990   -1.1830    2.8500 c2        1 KV1      0.396000
     57 H121       -1.2760   -0.2550   -0.2770 ha        1 KV1      0.002000
     58 H32         8.0930    3.7760    6.0420 hn        1 KV1      0.269333
     59 C17         7.4010    5.2930    4.7740 c2        1 KV1      0.342000
     60 C23         7.9570    7.9750    3.5010 c3        1 KV1     -0.087000
     61 O4          7.1910    5.1570    3.5730 o         1 KV1     -0.212000
@<TRIPOS>BOND
     1    1   29 1   
     2    1   30 1   
     3    1   33 1   
     4    1   34 1   
     5    2    4 1   
     6    2    7 1   
     7    3    7 1   
     8    4   31 1   
     9    5   10 1   
    10    5   15 1   
    11    5   40 1   
    12    5   56 1   
    13    6   56 1   
    14    7   10 1   
    15    8   35 1   
    16    8   39 1   
    17    8   58 1   
    18    8   59 1   
    19    9   17 1   
    20    9   18 1   
    21   10   36 1   
    22   10   38 1   
    23   11   13 1   
    24   11   26 1   
    25   12   14 1   
    26   12   37 1   
    27   13   24 1   
    28   13   60 1   
    29   14   15 1   
    30   15   41 1   
    31   16   17 1   
    32   16   23 1   
    33   16   56 1   
    34   17   42 1   
    35   18   23 1   
    36   18   43 1   
    37   19   20 1   
    38   20   21 1   
    39   20   44 1   
    40   21   22 1   
    41   21   45 1   
    42   23   46 1   
    43   24   25 1   
    44   24   59 1   
    45   25   26 1   
    46   25   47 1   
    47   26   27 1   
    48   27   28 1   
    49   28   52 1   
    50   32   57 1   
    51   48   49 1   
    52   50   51 1   
    53   53   60 1   
    54   54   60 1   
    55   55   60 1   
    56   59   61 1   
@<TRIPOS>SUBSTRUCTURE
     1 KV1         1 TEMP              0 ****  ****    0 ROOT
