@<TRIPOS>MOLECULE
KVC
   52    57     1     0     0
SMALL
bcc


@<TRIPOS>ATOM
      1 C1          0.0000    0.0000    0.0000 c2        1 KVC      0.003000
      2 C2          1.4000    0.0000    0.0000 c2        1 KVC     -0.059000
      3 N3          2.0570    0.0000    1.1490 n2        1 KVC     -0.080000
      4 C4          1.4040   -0.0070    2.3000 c2        1 KVC     -0.062000
      5 C5          0.0130    0.0120    2.3060 c2        1 KVC     -0.085000
      6 N6         -0.6560    0.0360    1.1470 n2        1 KVC     -0.072000
      7 O7         -0.7020   -0.1010   -1.1470 os        1 KVC     -0.192000
      8 C8         -1.3820    1.0310   -1.6670 c3        1 KVC      0.143000
      9 C9         -2.8500    0.7310   -1.8450 ca        1 KVC     -0.032000
     10 C10        -3.7860    0.7800   -0.8260 ca        1 KVC     -0.161000
     11 C11        -5.1250    0.4350   -1.1250 ca        1 KVC     -0.041000
     12 C12        -5.4990    0.0790   -2.3940 ca        1 KVC     -0.086000
     13 C13        -4.5600    0.0620   -3.4150 ca        1 KVC      0.146000
     14 C14        -3.2460    0.3870   -3.1310 ca        1 KVC     -0.125000
     15 C15        -3.5540    1.1970    0.5520 c2        1 KVC      0.286000
     16 F16        -4.9180   -0.2790   -4.6690 f         1 KVC     -0.067000
     17 N17         2.0970    0.0070   -1.2070 nv        1 KVC      0.148000
     18 C18        -1.1510    2.2780   -0.8320 c3        1 KVC     -0.208000
     19 C19         0.9400   -1.7130    6.4130 c2        1 KVC      0.133000
     20 C20        -0.0710   -1.4600    7.3740 c2        1 KVC     -0.114000
     21 C21        -1.1960   -0.8030    7.0030 c2        1 KVC     -0.027000
     22 C22        -1.3480   -0.3700    5.6660 c2        1 KVC     -0.189000
     23 N23        -0.3510   -0.5960    4.7540 na        1 KVC      0.606000
     24 C24         0.7750   -1.2700    5.1190 c2        1 KVC     -0.278000
     25 N25        -2.3360    0.2650    5.0510 n2        1 KVC     -0.054000
     26 C26        -2.0000    0.4870    3.7760 c2        1 KVC     -0.186000
     27 C27        -0.7570   -0.0390    3.5640 c2        1 KVC     -0.273000
     28 C28         2.1270   -2.4250    6.7830 c1        1 KVC     -0.151000
     29 N29         3.0740   -2.9910    7.0580 n1        1 KVC      0.041000
     30 C30        -2.8620    1.2280    2.7990 DU        1 KVC     -0.041000
     31 N31        -3.3000    0.4180    1.6370 nx        1 KVC      0.094000
     32 C32        -3.4650   -1.0390    1.6650 c3        1 KVC     -0.059000
     33 O33        -3.6420    2.4050    0.7800 o         1 KVC     -0.335000
     34 H4          2.1810    0.3010    2.9900 h4        1 KVC      0.160000
     35 H8         -0.9740    1.2260   -2.6510 h1        1 KVC      0.082000
     36 H11        -5.5610    0.6920   -0.1670 ha        1 KVC      0.110000
     37 H12        -6.5350   -0.1430   -2.6220 ha        1 KVC      0.139000
     38 H14        -2.5210    0.8350   -3.8000 ha        1 KVC      0.141000
     39 HN17        1.4520    0.0160   -1.9720 hn        1 KVC      0.081500
     40 HN1A        3.0370   -0.3270   -1.2900 hn        1 KVC      0.081500
     41 H18        -0.2960    2.9120   -1.0310 hc        1 KVC      0.068333
     42 H18A       -2.0240    2.9180   -0.8080 hc        1 KVC      0.068333
     43 H18B       -0.9500    2.1050    0.2190 hc        1 KVC      0.068333
     44 H20        -0.1540   -1.7840    8.4050 ha        1 KVC      0.146000
     45 H21        -1.8110   -0.7890    7.8950 ha        1 KVC      0.148000
     46 H24         1.5750   -1.5720    4.4540 h4        1 KVC      0.172000
     47 H30        -3.0230    2.2210    3.2000 hx        1 KVC      0.219500
     48 H30A       -2.0000    1.2600    2.1430 hx        1 KVC      0.219500
     49 H32        -4.4030   -1.1030    1.1280 hx        1 KVC      0.091667
     50 H32A       -2.6330   -1.5750    1.2230 hx        1 KVC      0.091667
     51 H32B       -3.8680   -1.2630    2.6450 hx        1 KVC      0.091667
     52 H311       -3.3770    0.8990    2.5110 DU        1 KVC      0.194000
@<TRIPOS>BOND
     1    1    2 1   
     2    1    6 1   
     3    1    7 1   
     4    2    3 1   
     5    2   17 1   
     6    3    4 1   
     7    4    5 1   
     8    4   34 1   
     9    5    6 1   
    10    5   27 1   
    11    7    8 1   
    12    8    9 1   
    13    8   18 1   
    14    8   35 1   
    15    9   10 1   
    16    9   14 1   
    17   10   11 1   
    18   10   15 1   
    19   11   12 1   
    20   11   36 1   
    21   12   13 1   
    22   12   37 1   
    23   13   14 1   
    24   13   16 1   
    25   14   38 1   
    26   15   31 1   
    27   15   33 1   
    28   17   39 1   
    29   17   40 1   
    30   18   41 1   
    31   18   42 1   
    32   18   43 1   
    33   19   20 1   
    34   19   24 1   
    35   19   28 1   
    36   20   21 1   
    37   20   44 1   
    38   21   22 1   
    39   21   45 1   
    40   22   23 1   
    41   22   25 1   
    42   23   24 1   
    43   23   27 1   
    44   24   46 1   
    45   25   26 1   
    46   26   27 1   
    47   26   30 1   
    48   28   29 1   
    49   30   31 1   
    50   30   47 1   
    51   30   48 1   
    52   30   52 1   
    53   31   32 1   
    54   31   52 1   
    55   32   49 1   
    56   32   50 1   
    57   32   51 1   
@<TRIPOS>SUBSTRUCTURE
     1 KVC         1 TEMP              0 ****  ****    0 ROOT
