@<TRIPOS>MOLECULE
KVY
   62    63     1     0     0
SMALL
bcc


@<TRIPOS>ATOM
      1 N           0.6070    2.7810    0.1380 n3        1 KVY     -0.261000
      2 C1          1.9930    2.5470    0.1960 c2        1 KVY     -0.258000
      3 N1          4.2920    2.4520   -0.1700 n4        1 KVY      0.059000
      4 O1          6.2000    0.9960    1.3810 o         1 KVY     -0.396000
      5 C2          2.5710    1.5760    1.1250 c2        1 KVY      0.043000
      6 N2          4.5760   -0.1870    2.5300 n         1 KVY     -0.288000
      7 O2          8.8430   -3.2450    5.4930 o         1 KVY     -0.393000
      8 C3          3.9330    1.5140    0.9250 c2        1 KVY     -0.349000
      9 N3          6.1150   -2.5740    4.7660 na        1 KVY     -0.074000
     10 O3         15.0260    0.3530    4.1080 o         1 KVY     -0.381000
     11 C4          3.0100    3.0950   -0.5900 c1        1 KVY     -0.162000
     12 N4          9.6720   -1.7320    3.9790 n         1 KVY     -0.329000
     13 O4         16.9940    3.1650    8.8630 os        1 KVY      0.070000
     14 C5          4.9470    1.7830   -1.3110 c3        1 KVY     -0.145000
     15 N5         12.9980   -1.5300    3.0880 n3        1 KVY     -0.132000
     16 C6          4.9920    0.7660    1.6160 c2        1 KVY      0.388000
     17 N6         14.2700    0.0960    6.2350 n         1 KVY     -0.426000
     18 C7          5.4280   -0.9890    3.2810 c2        1 KVY     -0.018000
     19 N7         18.6500    1.5030    9.2320 n3        1 KVY     -0.313000
     20 C8          6.8640   -0.9930    3.2980 c2        1 KVY     -0.142000
     21 C9          7.2610   -1.9810    4.2220 c2        1 KVY     -0.140000
     22 C10         4.9970   -1.9830    4.2040 c2        1 KVY     -0.161000
     23 C12         8.6270   -2.3840    4.6110 c2        1 KVY      0.377000
     24 C13        11.0250   -2.1490    4.1700 c3        1 KVY     -0.044000
     25 C14        11.8710   -1.2350    5.0670 c2        1 KVY     -0.165000
     26 C15        13.0230   -0.9340    4.4070 c2        1 KVY     -0.117000
     27 C16        11.8750   -2.2150    2.8630 c1        1 KVY     -0.044000
     28 C18        14.1690   -0.1200    4.8850 c2        1 KVY      0.362000
     29 C19        16.6530    2.3940    6.2190 c2        1 KVY     -0.238000
     30 C20        17.3250    1.6430    7.0990 c2        1 KVY     -0.116000
     31 C21        17.5950    2.0130    8.4750 c2        1 KVY     -0.146000
     32 C22        17.2420    3.7760    9.9980 c2        1 KVY     -0.310000
     33 HN          0.3650    3.5460    0.7420 hn        1 KVY      0.150000
     34 HNA         0.3430    3.0180   -0.8010 hn        1 KVY      0.150000
     35 HN7        19.2110    0.8510    8.7310 hn        1 KVY      0.180500
     36 HN2         3.6020   -0.3430    2.6520 hn        1 KVY      0.234000
     37 HN4         9.4830   -1.1620    3.1880 hn        1 KVY      0.243000
     38 HN6        15.0040    0.6730    6.5790 hn        1 KVY      0.236500
     39 H2          1.9910    1.0150    1.8590 ha        1 KVY      0.160000
     40 H4          4.9140    3.1740    0.2040 hn        1 KVY      0.246000
     41 H8          7.5020   -0.3430    2.7010 ha        1 KVY      0.185000
     42 H10         3.9870   -2.2880    4.4760 h4        1 KVY      0.172000
     43 H11         6.6070   -3.2670    6.6810 h1        1 KVY      0.105000
     44 H11A        5.0400   -3.9120    5.9650 h1        1 KVY      0.105000
     45 H11B        6.6690   -4.5070    5.3530 h1        1 KVY      0.105000
     46 H14        11.5460   -0.9300    6.0580 ha        1 KVY      0.167000
     47 H16        11.0460   -3.1880    4.6290 h1        1 KVY      0.167000
     48 H17        14.1980   -0.2760    1.9050 h1        1 KVY      0.106000
     49 H17A       13.8400   -1.9470    1.2240 h1        1 KVY      0.106000
     50 H17B       15.0330   -1.7340    2.6070 h1        1 KVY      0.106000
     51 H19        16.4440    2.0390    5.1980 ha        1 KVY      0.132500
     52 H19A       13.5880   -0.2420    6.8630 hn        1 KVY      0.236500
     53 H20        16.2770    3.3960    6.4620 ha        1 KVY      0.132500
     54 H20A       17.7050    0.6450    6.8140 ha        1 KVY      0.129000
     55 H22        18.3440    1.1470   10.1160 hn        1 KVY      0.180500
     56 H22A       16.4490    4.4780   10.2780 h4        1 KVY      0.152000
     57 H22B       18.1250    3.5900   10.6060 h4        1 KVY      0.152000
     58 H5          4.2640    0.9940   -1.7200 hx        1 KVY      0.122667
     59 H5A         5.9060    1.3140   -0.9620 hx        1 KVY      0.122667
     60 H5B         5.1460    2.5500   -2.1040 hx        1 KVY      0.122667
     61 C11         6.0990   -3.6190    5.7420 c3        1 KVY     -0.080000
     62 C17        14.0750   -1.3650    2.1530 c3        1 KVY     -0.077000
@<TRIPOS>BOND
     1    1    2 1   
     2    1   33 1   
     3    1   34 1   
     4    2    5 1   
     5    2   11 1   
     6    3    8 1   
     7    3   11 1   
     8    3   14 1   
     9    3   40 1   
    10    4   16 1   
    11    5    8 1   
    12    5   39 1   
    13    6   16 1   
    14    6   18 1   
    15    6   36 1   
    16    7   23 1   
    17    8   16 1   
    18    9   21 1   
    19    9   22 1   
    20    9   61 1   
    21   10   28 1   
    22   12   23 1   
    23   12   24 1   
    24   12   37 1   
    25   13   31 1   
    26   13   32 1   
    27   14   58 1   
    28   14   59 1   
    29   14   60 1   
    30   15   26 1   
    31   15   27 1   
    32   15   62 1   
    33   17   28 1   
    34   17   38 1   
    35   17   52 1   
    36   18   20 1   
    37   18   22 1   
    38   19   31 1   
    39   19   35 1   
    40   19   55 1   
    41   20   21 1   
    42   20   41 1   
    43   21   23 1   
    44   22   42 1   
    45   24   25 1   
    46   24   27 1   
    47   24   47 1   
    48   25   26 1   
    49   25   46 1   
    50   26   28 1   
    51   29   30 1   
    52   29   51 1   
    53   29   53 1   
    54   30   31 1   
    55   30   54 1   
    56   32   56 1   
    57   32   57 1   
    58   43   61 1   
    59   44   61 1   
    60   45   61 1   
    61   48   62 1   
    62   49   62 1   
    63   50   62 1   
@<TRIPOS>SUBSTRUCTURE
     1 KVY         1 TEMP              0 ****  ****    0 ROOT
