@<TRIPOS>MOLECULE
KVY
   62    52     1     0     0
SMALL
bcc


@<TRIPOS>ATOM
      1 N         -10.4460   -0.9870   -2.6770 n3        1 KVY     -0.279000
      2 C1         -9.2650   -1.7800   -2.4470 c2        1 KVY     -0.050000
      3 N1         -7.7880   -3.4810   -2.4930 n2        1 KVY     -0.075000
      4 O1         -5.3230   -3.6120   -0.9670 o         1 KVY     -0.389000
      5 C2         -8.1010   -1.3500   -1.8360 c1        1 KVY     -0.188000
      6 N2         -5.3800   -1.3660   -0.3630 n3        1 KVY     -0.286500
      7 O2          0.1600   -1.8170    1.9860 o         1 KVY     -0.389000
      8 C3         -7.1840   -2.4060   -1.8650 c1        1 KVY     -0.132000
      9 N3         -2.7450   -2.5220    1.8260 n2        1 KVY     -0.097500
     10 O3          4.0330    3.6450    0.2880 o         1 KVY     -0.363000
     11 C4         -9.0730   -3.1020   -2.8550 c1        1 KVY     -0.163000
     12 N4         -0.0680    0.1000    0.7550 n3        1 KVY     -0.286500
     13 O4          8.3350    5.3210    1.4260 o         1 KVY     -0.373000
     14 C5         -7.5160   -4.6120   -3.2170 c2        1 KVY     -0.080000
     15 N5          3.5430    0.0560    0.8680 n2        1 KVY     -0.097500
     16 C6         -5.8910   -2.5170   -1.0740 c1        1 KVY      0.381500
     17 N6          5.7450    2.1670    0.7550 n3        1 KVY     -0.390000
     18 C7         -4.2100   -1.4950    0.4670 c2        1 KVY     -0.024000
     19 N7          9.9450    4.7940   -0.1310 n         1 KVY     -0.385000
     20 C8         -3.0240   -0.7970    0.4050 c1        1 KVY     -0.166000
     21 C9         -2.1080   -1.4300    1.2480 c1        1 KVY     -0.136000
     22 C10        -4.0370   -2.5680    1.3500 c1        1 KVY     -0.113500
     23 C11        -2.7370   -2.7880    3.2690 c2        1 KVY     -0.080000
     24 C12        -0.5910   -1.0590    1.4040 c1        1 KVY      0.381500
     25 C13         1.3450    0.3690    0.7930 c2        1 KVY     -0.024000
     26 C14         1.9370    1.5450    0.4760 c1        1 KVY     -0.166000
     27 C15         3.3080    1.3570    0.5210 c1        1 KVY     -0.136000
     28 C16         2.3400   -0.5600    1.0370 c1        1 KVY     -0.113500
     29 C17         4.4820   -0.8930    0.4410 c2        1 KVY     -0.080000
     30 C18         4.3780    2.4750    0.4450 c1        1 KVY      0.377000
     31 C19         6.6320    3.1960    1.1930 c3        1 KVY     -0.017000
     32 C20         7.8650    3.2770    0.2140 c3        1 KVY     -0.211000
     33 C21         8.7470    4.5140    0.5980 c2        1 KVY      0.302000
     34 C22        10.7490    5.8780    0.2440 c3        1 KVY     -0.077000
     35 HN        -11.2250   -1.1150   -2.1290 hn        1 KVY      0.167000
     36 HNA       -10.4730   -0.3980   -3.3880 hn        1 KVY      0.167000
     37 HN7        10.1620    4.3080   -0.8150 hn        1 KVY      0.230000
     38 HN2        -5.7490   -0.5640   -0.4900 hn        1 KVY      0.240500
     39 HN4        -0.6610    0.7160    0.3270 hn        1 KVY      0.240500
     40 HN6         6.0310    1.2710    0.7600 hn        1 KVY      0.228000
     41 H2         -7.9440   -0.4550   -1.4490 DU        1 KVY      0.175333
     42 H4         -9.7410   -3.6720   -3.3260 DU        1 KVY      0.175333
     43 H8         -2.8540   -0.0040   -0.1320 DU        1 KVY      0.175333
     44 H10        -4.7120   -3.2310    1.5860 DU        1 KVY      0.175333
     45 H11        -3.0260   -3.7520    3.4420 ha        1 KVY      0.101333
     46 H11A       -3.3550   -2.1790    3.7140 ha        1 KVY      0.101333
     47 H11B       -1.8400   -2.6510    3.6180 ha        1 KVY      0.101333
     48 H14         1.4750    2.3850    0.2540 DU        1 KVY      0.175333
     49 H16         2.2030   -1.5050    1.2900 DU        1 KVY      0.175333
     50 H17         4.2100   -1.8090    0.7700 ha        1 KVY      0.101333
     51 H17A        5.3680   -0.6640    0.8040 ha        1 KVY      0.101333
     52 H17B        4.5220   -0.8960   -0.5530 ha        1 KVY      0.101333
     53 H19         6.1600    4.0620    1.2010 h1        1 KVY      0.106500
     54 H19A        6.9370    2.9970    2.0610 h1        1 KVY      0.106500
     55 H20         8.4010    2.4510    0.2900 hc        1 KVY      0.114000
     56 H20A        7.5470    3.3750   -0.7040 hc        1 KVY      0.114000
     57 H22        11.5620    5.9420   -0.3900 h1        1 KVY      0.084000
     58 H22A       10.2170    6.7190    0.1900 h1        1 KVY      0.084000
     59 H22B       11.0660    5.7490    1.1750 h1        1 KVY      0.084000
     60 H5         -8.0300   -5.3510   -2.8670 ha        1 KVY      0.101333
     61 H5A        -7.7590   -4.4600   -4.1760 ha        1 KVY      0.101333
     62 H5B        -6.5520   -4.8210   -3.1490 ha        1 KVY      0.101333
@<TRIPOS>BOND
     1    1    2 1   
     2    1   35 1   
     3    1   36 1   
     4    2    5 1   
     5    2   11 1   
     6    3    8 1   
     7    3   11 1   
     8    4   16 1   
     9    5    8 1   
    10    6   16 1   
    11    6   18 1   
    12    6   38 1   
    13    7   24 1   
    14    9   21 1   
    15    9   22 1   
    16   10   30 1   
    17   12   24 1   
    18   12   25 1   
    19   12   39 1   
    20   13   33 1   
    21   14   60 1   
    22   14   61 1   
    23   14   62 1   
    24   15   27 1   
    25   15   28 1   
    26   17   30 1   
    27   17   31 1   
    28   17   40 1   
    29   18   20 1   
    30   18   22 1   
    31   19   33 1   
    32   19   34 1   
    33   19   37 1   
    34   20   21 1   
    35   23   45 1   
    36   23   46 1   
    37   23   47 1   
    38   25   26 1   
    39   25   28 1   
    40   26   27 1   
    41   29   50 1   
    42   29   51 1   
    43   29   52 1   
    44   31   32 1   
    45   31   53 1   
    46   31   54 1   
    47   32   33 1   
    48   32   55 1   
    49   32   56 1   
    50   34   57 1   
    51   34   58 1   
    52   34   59 1   
@<TRIPOS>SUBSTRUCTURE
     1 KVY         1 TEMP              0 ****  ****    0 ROOT
