@<TRIPOS>MOLECULE
KVY
   62    64     1     0     0
SMALL
bcc


@<TRIPOS>ATOM
      1 N         -10.7460    0.5090   -0.2320 nh        1 KVY     -0.770200
      2 C1         -9.4840   -0.0540   -0.0430 cc        1 KVY      0.031600
      3 N1         -7.8270   -1.4500    0.6680 na        1 KVY     -0.007100
      4 O1         -4.9670   -1.1010    0.3250 o         1 KVY     -0.623100
      5 C2         -8.2170    0.5670   -0.3220 cc        1 KVY     -0.189000
      6 N2         -5.2870    1.1050   -0.2770 n         1 KVY     -0.436100
      7 O2          0.6710    1.9120   -0.6500 o         1 KVY     -0.625100
      8 C3         -7.2130   -0.3140    0.1300 cd        1 KVY     -0.178900
      9 N3         -2.0990    2.7430   -0.7390 na        1 KVY     -0.005100
     10 O3          5.8440   -1.8840    0.1290 o         1 KVY     -0.638100
     11 C4         -9.2010   -1.3040    0.5680 cd        1 KVY     -0.187300
     12 N4          0.0480   -0.2460   -0.1130 n         1 KVY     -0.435100
     13 O4          9.3830    2.6460    0.4040 o         1 KVY     -0.612100
     14 C5         -7.1500   -2.5820    1.2200 c3        1 KVY      0.019600
     15 N5          2.9780   -2.3190    0.3030 na        1 KVY     -0.007100
     16 C6         -5.7440   -0.1550    0.0730 c         1 KVY      0.711700
     17 N6          5.5220    0.2720   -0.5870 n         1 KVY     -0.555900
     18 C7         -3.9490    1.4590   -0.3920 cc        1 KVY     -0.018400
     19 N7          9.7980    0.3970    0.5660 n         1 KVY     -0.577900
     20 C8         -2.7890    0.6250   -0.2390 cc        1 KVY     -0.150000
     21 C9         -1.6610    1.4430   -0.4580 cd        1 KVY     -0.186900
     22 C10        -3.4820    2.7680   -0.7020 cd        1 KVY     -0.188300
     23 C12        -0.2300    1.0760   -0.4200 c         1 KVY      0.712700
     24 C13         1.3240   -0.7870   -0.0270 cc        1 KVY     -0.018400
     25 C14         2.5860   -0.1400   -0.2540 cc        1 KVY     -0.147000
     26 C15         3.5890   -1.1080   -0.0430 cd        1 KVY     -0.189900
     27 C16         1.6060   -2.1400    0.3170 cd        1 KVY     -0.186300
     28 C18         5.0530   -0.9510   -0.1410 c         1 KVY      0.701700
     29 C19         6.9250    0.5730   -0.6160 c3        1 KVY      0.096000
     30 C20         7.4630    1.2110    0.6680 c3        1 KVY     -0.187400
     31 C21         8.9500    1.4830    0.5330 c         1 KVY      0.660100
     32 C22        11.2170    0.5120    0.4640 c3        1 KVY      0.079300
     33 HN        -10.7520    1.1570   -0.9940 hn        1 KVY      0.371800
     34 HNA       -11.4540   -0.1870   -0.3470 hn        1 KVY      0.371800
     35 HN7         9.4140   -0.5110    0.6700 hn        1 KVY      0.315500
     36 HN2        -5.9500    1.8310   -0.4240 hn        1 KVY      0.324500
     37 HN4        -0.7090   -0.8670    0.0660 hn        1 KVY      0.328500
     38 HN6         4.8890    1.0330   -0.6600 hn        1 KVY      0.319500
     39 H2         -8.0760    1.5340   -0.7940 ha        1 KVY      0.150000
     40 H4         -9.8870   -2.0660    0.9380 h4        1 KVY      0.173000
     41 H8         -2.8120   -0.4360    0.0030 ha        1 KVY      0.182000
     42 H10        -4.0450    3.6810   -0.8900 h4        1 KVY      0.172000
     43 H11        -0.5640    4.0440   -0.1520 h1        1 KVY      0.065367
     44 H11A       -0.6280    3.6480   -1.9260 h1        1 KVY      0.065367
     45 H11B       -1.8870    4.7740   -1.2000 h1        1 KVY      0.065367
     46 H14         2.7130    0.9040   -0.5360 ha        1 KVY      0.183000
     47 H16         0.9220   -2.9520    0.5600 h4        1 KVY      0.173000
     48 H17         4.3300   -3.3980    1.4860 h1        1 KVY      0.064700
     49 H17A        2.9100   -4.3490    0.8080 h1        1 KVY      0.064700
     50 H17B        4.3020   -3.8360   -0.2790 h1        1 KVY      0.064700
     51 H19         7.4870   -0.3850   -0.8170 h1        1 KVY      0.068200
     52 H19A        7.1090    1.2810   -1.4750 h1        1 KVY      0.068200
     53 H20         6.9550    2.1930    0.8600 hc        1 KVY      0.076700
     54 H20A        7.2700    0.5440    1.5470 hc        1 KVY      0.076700
     55 H22        11.7060    0.0930    1.3850 h1        1 KVY      0.043367
     56 H22A       11.5880   -0.0610   -0.4290 h1        1 KVY      0.043367
     57 H22B       11.5110    1.5900    0.3530 h1        1 KVY      0.043367
     58 H5         -6.5460   -3.0900    0.4190 h1        1 KVY      0.064033
     59 H5A        -6.4420   -2.2450    2.0260 h1        1 KVY      0.064033
     60 H5B        -7.9000   -3.2980    1.6450 h1        1 KVY      0.064033
     61 C11        -1.2570    3.8650   -1.0200 c3        1 KVY      0.018600
     62 C17         3.6590   -3.5430    0.5960 c3        1 KVY      0.020600
@<TRIPOS>BOND
     1    1    2 1   
     2    1   33 1   
     3    1   34 1   
     4    2    5 1   
     5    2   11 2   
     6    3    8 1   
     7    3   11 1   
     8    3   14 1   
     9    4   16 2   
    10    5    8 2   
    11    5   39 1   
    12    6   16 1   
    13    6   18 1   
    14    6   36 1   
    15    7   23 2   
    16    8   16 1   
    17    9   21 1   
    18    9   22 1   
    19    9   61 1   
    20   10   28 2   
    21   11   40 1   
    22   12   23 1   
    23   12   24 1   
    24   12   37 1   
    25   13   31 2   
    26   14   58 1   
    27   14   59 1   
    28   14   60 1   
    29   15   26 1   
    30   15   27 1   
    31   15   62 1   
    32   17   28 1   
    33   17   29 1   
    34   17   38 1   
    35   18   20 1   
    36   18   22 2   
    37   19   31 1   
    38   19   32 1   
    39   19   35 1   
    40   20   21 2   
    41   20   41 1   
    42   21   23 1   
    43   22   42 1   
    44   24   25 1   
    45   24   27 2   
    46   25   26 2   
    47   25   46 1   
    48   26   28 1   
    49   27   47 1   
    50   29   30 1   
    51   29   51 1   
    52   29   52 1   
    53   30   31 1   
    54   30   53 1   
    55   30   54 1   
    56   32   55 1   
    57   32   56 1   
    58   32   57 1   
    59   43   61 1   
    60   44   61 1   
    61   45   61 1   
    62   48   62 1   
    63   49   62 1   
    64   50   62 1   
@<TRIPOS>SUBSTRUCTURE
     1 KVY         1 TEMP              0 ****  ****    0 ROOT
