@<TRIPOS>MOLECULE
KWB
   31    32     1     0     0
SMALL
bcc


@<TRIPOS>ATOM
      1 C1          0.0180    0.0260   -0.1270 ca        1 KWB     -0.107000
      2 C2          1.4070    0.0430   -0.1370 ca        1 KWB     -0.212000
      3 C3          2.1160    0.0660    1.0810 ca        1 KWB      0.179100
      4 C4          1.4240    0.0720    2.3080 ca        1 KWB     -0.215600
      5 C5          0.0290    0.0540    2.2840 ca        1 KWB     -0.060000
      6 C6         -0.6870    0.0320    1.0810 ca        1 KWB     -0.163300
      7 C7         -2.1810    0.0130    1.1040 c3        1 KWB     -0.000400
      8 C8         -2.7580    1.2500    0.4220 c3        1 KWB     -0.072400
      9 C9         -4.2730    1.2300    0.4400 c3        1 KWB     -0.076400
     10 C10        -4.8170   -0.0330   -0.1950 c3        1 KWB     -0.073400
     11 C11        -4.2420   -1.2680    0.4680 c3        1 KWB     -0.076400
     12 C12        -2.7280   -1.2520    0.4510 c3        1 KWB     -0.072400
     13 C13         2.1260    0.0960    3.6520 c         1 KWB      0.917200
     14 O14         1.4210    0.1000    4.6980 o         1 KWB     -0.834800
     15 O15         3.3970    0.1120    3.6730 o         1 KWB     -0.834800
     16 O16         3.4780    0.0810    0.9640 oh        1 KWB     -0.553100
     17 H1         -0.5290    0.0080   -1.0810 ha        1 KWB      0.104000
     18 H2          1.9650    0.0390   -1.0810 ha        1 KWB      0.122000
     19 H5         -0.4970    0.0590    3.2550 ha        1 KWB      0.152000
     20 H7         -2.5260    0.0220    2.1790 hc        1 KWB      0.049700
     21 H8         -2.3870    2.1670    0.9470 hc        1 KWB      0.042200
     22 H8A        -2.3940    1.2960   -0.6370 hc        1 KWB      0.042200
     23 H9         -4.6350    1.2990    1.4990 hc        1 KWB      0.030200
     24 H9A        -4.6660    2.1250   -0.1090 hc        1 KWB      0.030200
     25 H10        -5.9350   -0.0460   -0.1140 hc        1 KWB      0.027700
     26 H10A       -4.5580   -0.0430   -1.2870 hc        1 KWB      0.027700
     27 H11        -4.6140   -2.1850   -0.0600 hc        1 KWB      0.030200
     28 H11A       -4.6030   -1.3220    1.5290 hc        1 KWB      0.030200
     29 H12        -2.3620   -1.3130   -0.6070 hc        1 KWB      0.042200
     30 H12A       -2.3340   -2.1480    0.9970 hc        1 KWB      0.042200
     31 HO16        3.8740    0.0960    1.8630 ho        1 KWB      0.482000
@<TRIPOS>BOND
     1    1    2 ar  
     2    1    6 ar  
     3    1   17 1   
     4    2    3 ar  
     5    2   18 1   
     6    3    4 ar  
     7    3   16 1   
     8    4    5 ar  
     9    4   13 1   
    10    5    6 ar  
    11    5   19 1   
    12    6    7 1   
    13    7    8 1   
    14    7   12 1   
    15    7   20 1   
    16    8    9 1   
    17    8   21 1   
    18    8   22 1   
    19    9   10 1   
    20    9   23 1   
    21    9   24 1   
    22   10   11 1   
    23   10   25 1   
    24   10   26 1   
    25   11   12 1   
    26   11   27 1   
    27   11   28 1   
    28   12   29 1   
    29   12   30 1   
    30   13   14 1   
    31   13   15 1   
    32   16   31 1   
@<TRIPOS>SUBSTRUCTURE
     1 KWB         1 TEMP              0 ****  ****    0 ROOT
