@<TRIPOS>MOLECULE
KWS
   28    28     1     0     0
SMALL
bcc


@<TRIPOS>ATOM
      1 C          -0.1190    2.2480   -0.2250 c         1 KWS      0.894600
      2 N          -2.2480   -1.4090   -1.5240 n3        1 KWS     -0.892800
      3 O          -0.1110    2.3120    1.0320 o         1 KWS     -0.827300
      4 C1         -0.1200   -0.8760   -0.4220 cc        1 KWS      0.506900
      5 C2          2.1420   -0.7110   -0.1700 c         1 KWS      0.667700
      6 N2          0.2030   -2.0950    0.0180 nd        1 KWS     -0.640300
      7 O2          3.3090   -0.3010   -0.1670 o         1 KWS     -0.613500
      8 N3          0.9910   -0.0020   -0.5880 n         1 KWS     -0.385300
      9 CA         -1.5390   -0.4220   -0.7320 c3        1 KWS      0.097200
     10 CB         -2.2150   -0.0190    0.6140 c3        1 KWS      0.095100
     11 CA2         1.6210   -2.0940    0.2160 cd        1 KWS      0.026400
     12 CA3         0.9620    1.3880   -0.9420 c3        1 KWS     -0.035000
     13 CB2         2.3950   -3.0910    0.6560 c2        1 KWS     -0.165000
     14 OG1        -2.7320   -1.1440    1.3050 oh        1 KWS     -0.594800
     15 CG2        -3.2860    1.0240    0.3580 c3        1 KWS     -0.141100
     16 OXT        -0.9490    2.8390   -0.9730 o         1 KWS     -0.827300
     17 HA         -1.4790    0.5270   -1.3600 h1        1 KWS      0.129700
     18 HB         -1.4280    0.4110    1.3060 h1        1 KWS      0.139700
     19 HA3         0.7960    1.4640   -2.0540 h1        1 KWS      0.051700
     20 HA3A        1.9690    1.8240   -0.6920 h1        1 KWS      0.051700
     21 HB2         1.9960   -4.0760    0.9240 ha        1 KWS      0.121000
     22 HB2A        3.4780   -2.9470    0.7680 ha        1 KWS      0.121000
     23 HOG1       -3.5510   -1.4030    0.8660 ho        1 KWS      0.372000
     24 HG2        -4.0240    0.6700   -0.4000 hc        1 KWS      0.052367
     25 HG2A       -3.8290    1.2480    1.3070 hc        1 KWS      0.052367
     26 HG2B       -2.7910    1.9640   -0.0110 hc        1 KWS      0.052367
     27 HN         -2.2530   -2.2990   -1.0610 hn        1 KWS      0.345800
     28 HNA        -3.1970   -1.1040   -1.6370 hn        1 KWS      0.345800
@<TRIPOS>BOND
     1    1    3 1   
     2    1   12 1   
     3    1   16 1   
     4    2    9 1   
     5    2   27 1   
     6    2   28 1   
     7    4    6 2   
     8    4    8 1   
     9    4    9 1   
    10    5    7 2   
    11    5    8 1   
    12    5   11 1   
    13    6   11 1   
    14    8   12 1   
    15    9   10 1   
    16    9   17 1   
    17   10   14 1   
    18   10   15 1   
    19   10   18 1   
    20   11   13 2   
    21   12   19 1   
    22   12   20 1   
    23   13   21 1   
    24   13   22 1   
    25   14   23 1   
    26   15   24 1   
    27   15   25 1   
    28   15   26 1   
@<TRIPOS>SUBSTRUCTURE
     1 KWS         1 TEMP              0 ****  ****    0 ROOT
