@<TRIPOS>MOLECULE
KWT
   55    57     1     0     0
SMALL
bcc


@<TRIPOS>ATOM
      1 C1          1.0550   -2.2790    0.8660 c3        1 KWT      0.022000
      2 O1          2.4500   -2.2920    0.7820 os        1 KWT     -0.244000
      3 C9          0.4340   -1.1830    1.6970 c3        1 KWT      0.006000
      4 C23         0.4830   -2.1610   -0.6020 c3        1 KWT     -0.055000
      5 C2          3.1860   -2.2710    1.9880 c2        1 KWT      0.381000
      6 O2          4.0000   -3.1520    2.2220 o         1 KWT     -0.279000
      7 C3          2.6130   -1.3420    3.2050 c2        1 KWT     -0.224000
      8 C4          1.3120   -0.7360    3.0310 c2        1 KWT     -0.087000
      9 C19         3.4760   -0.3650    3.8160 c1        1 KWT      0.039000
     10 C5          1.4270    0.6700    3.3980 c1        1 KWT     -0.107000
     11 C6          0.7380    1.8230    2.4790 c1        1 KWT      0.333000
     12 O5          2.7350    0.8780    3.9330 os        1 KWT     -0.050000
     13 O3          0.6270    2.9540    2.9080 o         1 KWT     -0.254000
     14 C7          0.2000    1.4820    1.1190 c2        1 KWT     -0.122000
     15 O6         -0.0260   -0.2900   -1.7390 os        1 KWT     -0.290000
     16 C11        -0.8280   -0.3050   -0.5170 c3        1 KWT      0.061000
     17 C21        -0.7300   -0.7280   -2.8960 c2        1 KWT      0.313000
     18 C8          0.0340   -0.0680    0.6910 c2        1 KWT     -0.039000
     19 C15        -0.9400    2.3990    0.7020 c3        1 KWT     -0.066000
     20 C10        -0.8510   -1.7410    2.2290 c3        1 KWT     -0.204000
     21 C12        -2.0020    0.7260   -0.6110 c3        1 KWT     -0.165000
     22 C13        -1.6380    2.0460   -0.4900 c3        1 KWT     -0.093000
     23 C14        -2.9230    2.8340   -0.4730 c3        1 KWT     -0.203000
     24 C18        -0.7400    2.6270   -1.7910 c2        1 KWT      0.254000
     25 C16        -0.1800    3.7820    0.3190 c3        1 KWT     -0.147000
     26 C17        -0.2720    3.9320   -1.4050 c3        1 KWT     -0.213000
     27 O4         -0.7560    2.1840   -2.9260 o         1 KWT     -0.299000
     28 O7         -1.9070   -1.1020   -2.7990 o         1 KWT     -0.348000
     29 C22        -0.0450   -0.6750   -4.2900 c3        1 KWT     -0.225000
     30 O8          1.2810   -2.9590   -1.4950 os        1 KWT     -0.257000
     31 C24         0.8680   -4.3380   -1.5790 c3        1 KWT     -0.081000
     32 HC1         0.7660   -3.1440    1.2400 h1        1 KWT      0.138000
     33 H231       -0.4520   -2.4840   -0.6180 h1        1 KWT      0.108500
     34 H232        0.5110   -1.2260   -0.8880 h1        1 KWT      0.108500
     35 H19         4.4060   -0.5120    4.1020 DU        1 KWT      0.217000
     36 H11        -1.1680   -1.2200   -0.5290 h1        1 KWT      0.130000
     37 H15        -1.5670    2.5420    1.4470 hc        1 KWT      0.126000
     38 H101       -1.3170   -2.2140    1.5200 hc        1 KWT      0.096000
     39 H102       -1.4130   -1.0100    2.5560 hc        1 KWT      0.096000
     40 H103       -0.6570   -2.3660    2.9710 hc        1 KWT      0.096000
     41 H121       -2.6430    0.5210    0.0920 hc        1 KWT      0.113500
     42 H122       -2.4460    0.6060   -1.4790 hc        1 KWT      0.113500
     43 H141       -3.3790    2.7420   -1.3430 hc        1 KWT      0.088000
     44 H142       -2.7240    3.7720   -0.3080 hc        1 KWT      0.088000
     45 H143       -3.5050    2.4930    0.2400 hc        1 KWT      0.088000
     46 H161       -0.6320    4.5450    0.7490 hc        1 KWT      0.098000
     47 H162        0.7620    3.7410    0.6040 hc        1 KWT      0.098000
     48 H171       -0.8560    4.6370   -1.8070 hc        1 KWT      0.119500
     49 H172        0.6070    4.1720   -1.7580 hc        1 KWT      0.119500
     50 H221       -0.0770   -1.5690   -4.7050 hc        1 KWT      0.124333
     51 H222        0.8950   -0.3940   -4.1850 hc        1 KWT      0.124333
     52 H223       -0.5170   -0.0300   -4.8650 hc        1 KWT      0.124333
     53 H241       -0.0340   -4.3870   -1.9660 h1        1 KWT      0.075667
     54 H242        1.5030   -4.8380   -2.1540 h1        1 KWT      0.075667
     55 H243        0.8600   -4.7280   -0.6880 h1        1 KWT      0.075667
@<TRIPOS>BOND
     1    1    2 1   
     2    1    3 1   
     3    1    4 1   
     4    1   32 1   
     5    2    5 1   
     6    3    8 1   
     7    3   18 1   
     8    3   20 1   
     9    4   30 1   
    10    4   33 1   
    11    4   34 1   
    12    5    6 1   
    13    5    7 1   
    14    7    8 1   
    15    7    9 1   
    16    8   10 1   
    17    9   12 1   
    18   10   12 1   
    19   11   13 1   
    20   11   14 1   
    21   14   18 1   
    22   14   19 1   
    23   15   16 1   
    24   15   17 1   
    25   16   18 1   
    26   16   21 1   
    27   16   36 1   
    28   17   28 1   
    29   17   29 1   
    30   19   22 1   
    31   19   25 1   
    32   19   37 1   
    33   20   38 1   
    34   20   39 1   
    35   20   40 1   
    36   21   22 1   
    37   21   41 1   
    38   21   42 1   
    39   22   23 1   
    40   22   24 1   
    41   23   43 1   
    42   23   44 1   
    43   23   45 1   
    44   24   26 1   
    45   24   27 1   
    46   25   26 1   
    47   25   46 1   
    48   25   47 1   
    49   26   48 1   
    50   26   49 1   
    51   29   50 1   
    52   29   51 1   
    53   29   52 1   
    54   30   31 1   
    55   31   53 1   
    56   31   54 1   
    57   31   55 1   
@<TRIPOS>SUBSTRUCTURE
     1 KWT         1 TEMP              0 ****  ****    0 ROOT
