@<TRIPOS>MOLECULE
KWT
   55    59     1     0     0
SMALL
bcc


@<TRIPOS>ATOM
      1 C1          0.9650   -0.2700    2.0030 c3        1 KWT      0.171100
      2 O1          0.7600   -0.7480    3.3450 os        1 KWT     -0.405900
      3 C9         -0.1090   -0.8320    1.0290 c3        1 KWT      0.016500
      4 C23         1.0000    1.2610    1.9940 c3        1 KWT      0.103400
      5 C2         -0.4850   -0.6390    3.9410 c         1 KWT      0.762200
      6 O2         -0.4600   -0.8420    5.1520 o         1 KWT     -0.556500
      7 C3         -1.6120   -0.3550    3.0710 cc        1 KWT     -0.314900
      8 C4         -1.3870   -0.4450    1.6500 cc        1 KWT     -0.161600
      9 C19        -2.9100    0.1080    3.2200 cd        1 KWT      0.368600
     10 C5         -2.5140    0.0250    1.0180 cd        1 KWT      0.177200
     11 C6         -2.5510    0.2940   -0.4150 c         1 KWT      0.510800
     12 O5         -3.4870    0.3440    1.9720 os        1 KWT     -0.308800
     13 O3         -3.5650    0.6400   -1.0220 o         1 KWT     -0.494100
     14 C7         -1.2030    0.1290   -1.0370 ce        1 KWT     -0.147400
     15 O6          2.2040    0.3090   -0.5250 os        1 KWT     -0.448900
     16 C11         1.2180   -0.5490   -1.1330 c3        1 KWT      0.175300
     17 C21         3.4980   -0.1500   -0.4580 c         1 KWT      0.638100
     18 C8         -0.0890   -0.3280   -0.4000 c2        1 KWT     -0.040400
     19 C15        -1.0660    0.5620   -2.4550 c3        1 KWT     -0.030500
     20 C10         0.0230   -2.3600    1.0130 c3        1 KWT     -0.087100
     21 C12         1.2400   -0.2680   -2.6410 c3        1 KWT     -0.080400
     22 C13        -0.1440   -0.4110   -3.2290 c3        1 KWT     -0.153000
     23 C14        -0.6090   -1.8590   -3.1740 c3        1 KWT     -0.085100
     24 C18        -0.3220    0.0610   -4.6690 c         1 KWT      0.579100
     25 C16        -2.2750    0.7370   -3.3720 c3        1 KWT     -0.065400
     26 C17        -1.6860    0.7040   -4.7840 c3        1 KWT     -0.189400
     27 O4          0.4940   -0.0660   -5.5770 o         1 KWT     -0.511100
     28 O7          3.7400   -1.2810   -0.8800 o         1 KWT     -0.537000
     29 C22         4.4210    0.8440    0.1530 c3        1 KWT     -0.159100
     30 O8          2.2620    1.6410    2.5360 os        1 KWT     -0.419600
     31 C24         2.3380    3.0300    2.8160 c3        1 KWT      0.114700
     32 HC1         1.9830   -0.6830    1.7480 h1        1 KWT      0.109700
     33 H231        0.1660    1.6780    2.6190 h1        1 KWT      0.050200
     34 H232        0.9230    1.6420    0.9410 h1        1 KWT      0.050200
     35 H19        -3.5600    0.3230    4.0680 h4        1 KWT      0.079100
     36 H11         1.5140   -1.6310   -0.9720 h1        1 KWT      0.089700
     37 H15        -0.5450    1.5690   -2.4170 hc        1 KWT      0.068700
     38 H101       -0.2060   -2.7620    2.0300 hc        1 KWT      0.058367
     39 H102       -0.6860   -2.8040    0.2750 hc        1 KWT      0.058367
     40 H103        1.0660   -2.6560    0.7470 hc        1 KWT      0.058367
     41 H121        1.6260    0.7700   -2.8230 hc        1 KWT      0.073700
     42 H122        1.9540   -0.9820   -3.1290 hc        1 KWT      0.073700
     43 H141        0.0650   -2.4930   -3.8000 hc        1 KWT      0.047700
     44 H142       -0.5850   -2.2370   -2.1240 hc        1 KWT      0.047700
     45 H143       -1.6530   -1.9490   -3.5610 hc        1 KWT      0.047700
     46 H161       -3.0120   -0.0920   -3.2280 hc        1 KWT      0.067200
     47 H162       -2.8040    1.6990   -3.1650 hc        1 KWT      0.067200
     48 H171       -2.3290    0.1130   -5.4810 hc        1 KWT      0.079200
     49 H172       -1.5800    1.7360   -5.2040 hc        1 KWT      0.079200
     50 H221        5.3830    0.3400    0.4130 hc        1 KWT      0.086033
     51 H222        4.6140    1.6650   -0.5800 hc        1 KWT      0.086033
     52 H223        3.9550    1.2800    1.0750 hc        1 KWT      0.086033
     53 H241        3.3720    3.1740    3.2190 h1        1 KWT      0.037367
     54 H242        2.1920    3.6270    1.8820 h1        1 KWT      0.037367
     55 H243        1.5770    3.3210    3.5800 h1        1 KWT      0.037367
@<TRIPOS>BOND
     1    1    2 1   
     2    1    3 1   
     3    1    4 1   
     4    1   32 1   
     5    2    5 1   
     6    3    8 1   
     7    3   18 1   
     8    3   20 1   
     9    4   30 1   
    10    4   33 1   
    11    4   34 1   
    12    5    6 2   
    13    5    7 1   
    14    7    8 1   
    15    7    9 2   
    16    8   10 2   
    17    9   12 1   
    18    9   35 1   
    19   10   11 1   
    20   10   12 1   
    21   11   13 2   
    22   11   14 1   
    23   14   18 2   
    24   14   19 1   
    25   15   16 1   
    26   15   17 1   
    27   16   18 1   
    28   16   21 1   
    29   16   36 1   
    30   17   28 2   
    31   17   29 1   
    32   19   22 1   
    33   19   25 1   
    34   19   37 1   
    35   20   38 1   
    36   20   39 1   
    37   20   40 1   
    38   21   22 1   
    39   21   41 1   
    40   21   42 1   
    41   22   23 1   
    42   22   24 1   
    43   23   43 1   
    44   23   44 1   
    45   23   45 1   
    46   24   26 1   
    47   24   27 2   
    48   25   26 1   
    49   25   46 1   
    50   25   47 1   
    51   26   48 1   
    52   26   49 1   
    53   29   50 1   
    54   29   51 1   
    55   29   52 1   
    56   30   31 1   
    57   31   53 1   
    58   31   54 1   
    59   31   55 1   
@<TRIPOS>SUBSTRUCTURE
     1 KWT         1 TEMP              0 ****  ****    0 ROOT
