@<TRIPOS>MOLECULE
KWT
   55    59     1     0     0
SMALL
bcc


@<TRIPOS>ATOM
      1 C1          0.0890   -0.0250    0.0270 c3        1 KWT      0.171100
      2 O1          1.5190   -0.1840    0.0520 os        1 KWT     -0.405900
      3 C9         -0.5760   -0.6720    1.2760 c3        1 KWT      0.016500
      4 C23        -0.2690    1.4570   -0.1070 c3        1 KWT      0.103400
      5 C2          2.2410    0.1730    1.1790 c         1 KWT      0.762200
      6 O2          3.4520    0.2310    0.9780 o         1 KWT     -0.556500
      7 C3          1.4940    0.3760    2.4060 cc        1 KWT     -0.313900
      8 C4          0.1120   -0.0370    2.4130 cc        1 KWT     -0.161600
      9 C19         1.7110    0.9870    3.6320 cd        1 KWT      0.368600
     10 C5         -0.4490    0.3970    3.5900 cd        1 KWT      0.177200
     11 C6         -1.8860    0.3570    3.8330 c         1 KWT      0.510800
     12 O5          0.5340    1.0080    4.3790 os        1 KWT     -0.308800
     13 O3         -2.4100    0.6650    4.9040 o         1 KWT     -0.494100
     14 C7         -2.6350   -0.0690    2.6130 ce        1 KWT     -0.147400
     15 O6         -2.6490   -0.1260   -0.8370 os        1 KWT     -0.448900
     16 C11        -2.9080   -0.9910    0.2870 c3        1 KWT      0.175300
     17 C21        -2.6600   -0.6880   -2.0920 c         1 KWT      0.638100
     18 C8         -2.0700   -0.4890    1.4460 c2        1 KWT     -0.040400
     19 C15        -4.1190    0.0370    2.6700 c3        1 KWT     -0.030500
     20 C10        -0.2650   -2.1740    1.2500 c3        1 KWT     -0.087100
     21 C12        -4.4280   -1.0380    0.4820 c3        1 KWT     -0.080400
     22 C13        -4.7730   -1.1650    1.9470 c3        1 KWT     -0.153000
     23 C14        -4.3310   -2.5150    2.4930 c3        1 KWT     -0.085100
     24 C18        -6.2430   -0.9940    2.3150 c         1 KWT      0.579100
     25 C16        -4.8750    0.1320    3.9930 c3        1 KWT     -0.065400
     26 C17        -6.3110   -0.2580    3.6360 c3        1 KWT     -0.189400
     27 O4         -7.2030   -1.3910    1.6620 o         1 KWT     -0.511100
     28 O7         -2.8490   -1.9010   -2.1880 o         1 KWT     -0.537000
     29 C22        -2.4200    0.3150   -3.1640 c3        1 KWT     -0.160100
     30 O8         -0.0060    1.8170   -1.4610 os        1 KWT     -0.419600
     31 C24        -0.0610    3.2180   -1.6730 c3        1 KWT      0.114700
     32 HC1        -0.2040   -0.5820   -0.9080 h1        1 KWT      0.109700
     33 H231        0.3540    2.0790    0.5890 h1        1 KWT      0.050200
     34 H232       -1.3610    1.6110    0.1080 h1        1 KWT      0.050200
     35 H19         2.5700    1.4410    4.1250 h4        1 KWT      0.079100
     36 H11        -2.5500   -2.0370    0.0440 h1        1 KWT      0.089700
     37 H15        -4.3800    0.9720    2.0840 hc        1 KWT      0.068700
     38 H101       -0.5990   -2.6220    0.2840 hc        1 KWT      0.058367
     39 H102       -0.7790   -2.6930    2.0940 hc        1 KWT      0.058367
     40 H103        0.8380   -2.3260    1.3440 hc        1 KWT      0.058367
     41 H121       -4.8380   -1.9060   -0.0990 hc        1 KWT      0.073700
     42 H122       -4.8890   -0.1060    0.0610 hc        1 KWT      0.073700
     43 H141       -4.5400   -2.5810    3.5880 hc        1 KWT      0.047700
     44 H142       -3.2360   -2.6620    2.3310 hc        1 KWT      0.047700
     45 H143       -4.8840   -3.3310    1.9680 hc        1 KWT      0.047700
     46 H161       -4.8200    1.1630    4.4190 hc        1 KWT      0.067200
     47 H162       -4.4490   -0.5710    4.7520 hc        1 KWT      0.067200
     48 H171       -6.7620   -0.9180    4.4180 hc        1 KWT      0.079200
     49 H172       -6.9640    0.6440    3.5290 hc        1 KWT      0.079200
     50 H221       -3.3380    0.9380   -3.2980 hc        1 KWT      0.086033
     51 H222       -1.5650    0.9820   -2.8770 hc        1 KWT      0.086033
     52 H223       -2.1850   -0.2160   -4.1180 hc        1 KWT      0.086033
     53 H241        0.7150    3.7410   -1.0610 h1        1 KWT      0.037367
     54 H242        0.1530    3.3410   -2.7640 h1        1 KWT      0.037367
     55 H243       -1.0760    3.6140   -1.4220 h1        1 KWT      0.037367
@<TRIPOS>BOND
     1    1    2 1   
     2    1    3 1   
     3    1    4 1   
     4    1   32 1   
     5    2    5 1   
     6    3    8 1   
     7    3   18 1   
     8    3   20 1   
     9    4   30 1   
    10    4   33 1   
    11    4   34 1   
    12    5    6 2   
    13    5    7 1   
    14    7    8 1   
    15    7    9 2   
    16    8   10 2   
    17    9   12 1   
    18    9   35 1   
    19   10   11 1   
    20   10   12 1   
    21   11   13 2   
    22   11   14 1   
    23   14   18 2   
    24   14   19 1   
    25   15   16 1   
    26   15   17 1   
    27   16   18 1   
    28   16   21 1   
    29   16   36 1   
    30   17   28 2   
    31   17   29 1   
    32   19   22 1   
    33   19   25 1   
    34   19   37 1   
    35   20   38 1   
    36   20   39 1   
    37   20   40 1   
    38   21   22 1   
    39   21   41 1   
    40   21   42 1   
    41   22   23 1   
    42   22   24 1   
    43   23   43 1   
    44   23   44 1   
    45   23   45 1   
    46   24   26 1   
    47   24   27 2   
    48   25   26 1   
    49   25   46 1   
    50   25   47 1   
    51   26   48 1   
    52   26   49 1   
    53   29   50 1   
    54   29   51 1   
    55   29   52 1   
    56   30   31 1   
    57   31   53 1   
    58   31   54 1   
    59   31   55 1   
@<TRIPOS>SUBSTRUCTURE
     1 KWT         1 TEMP              0 ****  ****    0 ROOT
