@<TRIPOS>MOLECULE
KWT
   55    59     1     0     0
SMALL
bcc


@<TRIPOS>ATOM
      1 C1          0.0870   -0.0220    0.0240 c3        1 KWT      0.171100
      2 O1          1.5170   -0.1810    0.0470 os        1 KWT     -0.405900
      3 C9         -0.5770   -0.6720    1.2710 c3        1 KWT      0.016500
      4 C23        -0.2710    1.4610   -0.1070 c3        1 KWT      0.103400
      5 C2          2.2400    0.1740    1.1730 c         1 KWT      0.762200
      6 O2          3.4510    0.2320    0.9710 o         1 KWT     -0.556500
      7 C3          1.4940    0.3730    2.4020 cc        1 KWT     -0.314900
      8 C4          0.1130   -0.0390    2.4090 cc        1 KWT     -0.161600
      9 C19         1.7140    0.9820    3.6280 cd        1 KWT      0.368600
     10 C5         -0.4470    0.3930    3.5880 cd        1 KWT      0.177200
     11 C6         -1.8830    0.3520    3.8330 c         1 KWT      0.510800
     12 O5          0.5370    1.0010    4.3770 os        1 KWT     -0.308800
     13 O3         -2.4060    0.6580    4.9050 o         1 KWT     -0.494100
     14 C7         -2.6340   -0.0720    2.6130 ce        1 KWT     -0.147400
     15 O6         -2.6540   -0.1190   -0.8370 os        1 KWT     -0.448900
     16 C11        -2.9090   -0.9880    0.2850 c3        1 KWT      0.175300
     17 C21        -2.6650   -0.6780   -2.0930 c         1 KWT      0.638100
     18 C8         -2.0700   -0.4890    1.4440 c2        1 KWT     -0.040400
     19 C15        -4.1170    0.0330    2.6720 c3        1 KWT     -0.030500
     20 C10        -0.2660   -2.1740    1.2420 c3        1 KWT     -0.087100
     21 C12        -4.4290   -1.0380    0.4820 c3        1 KWT     -0.080400
     22 C13        -4.7720   -1.1680    1.9470 c3        1 KWT     -0.153000
     23 C14        -4.3280   -2.5180    2.4900 c3        1 KWT     -0.085100
     24 C18        -6.2420   -0.9990    2.3180 c         1 KWT      0.579100
     25 C16        -4.8730    0.1250    3.9960 c3        1 KWT     -0.065400
     26 C17        -6.3090   -0.2650    3.6400 c3        1 KWT     -0.189400
     27 O4         -7.2030   -1.3950    1.6650 o         1 KWT     -0.511100
     28 O7         -2.8510   -1.8910   -2.1930 o         1 KWT     -0.537000
     29 C22        -2.4280    0.3290   -3.1630 c3        1 KWT     -0.159100
     30 O8         -0.0100    1.8230   -1.4610 os        1 KWT     -0.419600
     31 C24        -0.0650    3.2250   -1.6690 c3        1 KWT      0.114700
     32 HC1        -0.2070   -0.5770   -0.9120 h1        1 KWT      0.109700
     33 H231       -1.3630    1.6140    0.1100 h1        1 KWT      0.050200
     34 H232        0.3530    2.0800    0.5900 h1        1 KWT      0.050200
     35 H19         2.5730    1.4350    4.1220 h4        1 KWT      0.079100
     36 H11        -2.5510   -2.0330    0.0380 h1        1 KWT      0.089700
     37 H15        -4.3800    0.9690    2.0880 hc        1 KWT      0.068700
     38 H101        0.8380   -2.3250    1.3340 hc        1 KWT      0.058367
     39 H102       -0.6010   -2.6200    0.2750 hc        1 KWT      0.058367
     40 H103       -0.7790   -2.6940    2.0850 hc        1 KWT      0.058367
     41 H121       -4.8390   -1.9050   -0.0990 hc        1 KWT      0.073700
     42 H122       -4.8930   -0.1050    0.0630 hc        1 KWT      0.073700
     43 H141       -4.8830   -3.3340    1.9650 hc        1 KWT      0.047700
     44 H142       -3.2330   -2.6650    2.3250 hc        1 KWT      0.047700
     45 H143       -4.5360   -2.5870    3.5850 hc        1 KWT      0.047700
     46 H161       -4.4450   -0.5790    4.7530 hc        1 KWT      0.067200
     47 H162       -4.8170    1.1550    4.4240 hc        1 KWT      0.067200
     48 H171       -6.9620    0.6370    3.5350 hc        1 KWT      0.079200
     49 H172       -6.7580   -0.9270    4.4210 hc        1 KWT      0.079200
     50 H221       -3.3470    0.9520   -3.2910 hc        1 KWT      0.086033
     51 H222       -2.1970   -0.1990   -4.1200 hc        1 KWT      0.086033
     52 H223       -1.5730    0.9950   -2.8770 hc        1 KWT      0.086033
     53 H241        0.7120    3.7460   -1.0560 h1        1 KWT      0.037367
     54 H242       -1.0790    3.6210   -1.4160 h1        1 KWT      0.037367
     55 H243        0.1480    3.3500   -2.7600 h1        1 KWT      0.037367
@<TRIPOS>BOND
     1    1    2 1   
     2    1    3 1   
     3    1    4 1   
     4    1   32 1   
     5    2    5 1   
     6    3    8 1   
     7    3   18 1   
     8    3   20 1   
     9    4   30 1   
    10    4   33 1   
    11    4   34 1   
    12    5    6 2   
    13    5    7 1   
    14    7    8 1   
    15    7    9 2   
    16    8   10 2   
    17    9   12 1   
    18    9   35 1   
    19   10   11 1   
    20   10   12 1   
    21   11   13 2   
    22   11   14 1   
    23   14   18 2   
    24   14   19 1   
    25   15   16 1   
    26   15   17 1   
    27   16   18 1   
    28   16   21 1   
    29   16   36 1   
    30   17   28 2   
    31   17   29 1   
    32   19   22 1   
    33   19   25 1   
    34   19   37 1   
    35   20   38 1   
    36   20   39 1   
    37   20   40 1   
    38   21   22 1   
    39   21   41 1   
    40   21   42 1   
    41   22   23 1   
    42   22   24 1   
    43   23   43 1   
    44   23   44 1   
    45   23   45 1   
    46   24   26 1   
    47   24   27 2   
    48   25   26 1   
    49   25   46 1   
    50   25   47 1   
    51   26   48 1   
    52   26   49 1   
    53   29   50 1   
    54   29   51 1   
    55   29   52 1   
    56   30   31 1   
    57   31   53 1   
    58   31   54 1   
    59   31   55 1   
@<TRIPOS>SUBSTRUCTURE
     1 KWT         1 TEMP              0 ****  ****    0 ROOT
