@<TRIPOS>MOLECULE
KWZ
   48    50     1     0     0
SMALL
bcc


@<TRIPOS>ATOM
      1 N1         -1.4080    1.3970    1.2720 nb        1 KWZ     -0.660000
      2 C2         -1.2910    0.0700    1.0000 cp        1 KWZ      0.497800
      3 C3         -0.0560   -0.6050    1.1300 ca        1 KWZ     -0.341600
      4 C4          1.0660    0.1400    1.5600 ca        1 KWZ      0.453600
      5 N5          0.9730    1.4620    1.8430 nb        1 KWZ     -0.662000
      6 C6         -0.2650    2.0270    1.6810 ca        1 KWZ      0.746000
      7 C7         -2.4810   -0.6780    0.5590 cp        1 KWZ     -0.165500
      8 C8          2.3910   -0.5520    1.7090 c3        1 KWZ     -0.136700
      9 C9          3.3530   -0.1370    0.6130 c3        1 KWZ     -0.080400
     10 C10         4.6890   -0.8530    0.8130 c3        1 KWZ      0.172800
     11 N11         5.5910   -0.7450   -0.3270 n3        1 KWZ     -0.728600
     12 C12        -3.4000   -0.0960   -0.3230 ca        1 KWZ     -0.037000
     13 C13        -4.5100   -0.8330   -0.7420 ca        1 KWZ     -0.174300
     14 C14        -4.7210   -2.1350   -0.2810 ca        1 KWZ     -0.065000
     15 C15        -3.8090   -2.7040    0.6060 ca        1 KWZ     -0.138000
     16 C16        -2.6920   -1.9830    1.0250 ca        1 KWZ     -0.081000
     17 C17        -5.4970   -0.2150   -1.7260 c3        1 KWZ      0.688200
     18 F18        -5.1990   -0.4620   -3.0450 f         1 KWZ     -0.234300
     19 F19        -6.7900   -0.6580   -1.5870 f         1 KWZ     -0.234300
     20 F20        -5.5980    1.1520   -1.6550 f         1 KWZ     -0.234300
     21 C21         6.7350   -1.6380   -0.1780 c3        1 KWZ      0.168800
     22 C22         7.7220   -1.5570   -1.3400 c3        1 KWZ     -0.077400
     23 C23         8.1610   -0.1300   -1.5850 c3        1 KWZ     -0.078400
     24 C24         6.9540    0.7620   -1.7780 c3        1 KWZ     -0.077400
     25 C25         5.9770    0.6310   -0.6110 c3        1 KWZ      0.168800
     26 C26        -0.3740    3.4370    1.9760 cg        1 KWZ      0.146800
     27 N27        -0.4610    4.5690    2.2130 n1        1 KWZ     -0.317800
     28 H3          0.0320   -1.6720    0.8920 ha        1 KWZ      0.163000
     29 H8          2.8330   -0.3080    2.7130 hc        1 KWZ      0.063700
     30 H8A         2.2260   -1.6620    1.6730 hc        1 KWZ      0.063700
     31 H9          2.9210   -0.3920   -0.3890 hc        1 KWZ      0.061700
     32 H9A         3.5050    0.9740    0.6470 hc        1 KWZ      0.061700
     33 H10         5.1640   -0.4580    1.7610 h1        1 KWZ      0.029700
     34 H10A        4.4840   -1.9500    0.9720 h1        1 KWZ      0.029700
     35 H12        -3.2590    0.9360   -0.6840 ha        1 KWZ      0.171000
     36 H14        -5.6060   -2.7000   -0.6140 ha        1 KWZ      0.156000
     37 H15        -3.9730   -3.7270    0.9780 ha        1 KWZ      0.148000
     38 H16        -1.9810   -2.4370    1.7330 ha        1 KWZ      0.143000
     39 H21         7.2960   -1.4300    0.7810 h1        1 KWZ      0.029700
     40 H21A        6.3360   -2.6890   -0.1170 h1        1 KWZ      0.029700
     41 H22         8.6080   -2.1980   -1.0950 hc        1 KWZ      0.047700
     42 H22A        7.2470   -1.9690   -2.2680 hc        1 KWZ      0.047700
     43 H23         8.7640    0.2340   -0.7120 hc        1 KWZ      0.040700
     44 H23A        8.8180   -0.0830   -2.4910 hc        1 KWZ      0.040700
     45 H24         7.2730    1.8330   -1.8510 hc        1 KWZ      0.047700
     46 H24A        6.4360    0.4920   -2.7350 hc        1 KWZ      0.047700
     47 H25         5.0370    1.1970   -0.8690 h1        1 KWZ      0.029700
     48 H25A        6.4350    1.1260    0.2960 h1        1 KWZ      0.029700
@<TRIPOS>BOND
     1    1    2 ar  
     2    1    6 ar  
     3    2    3 ar  
     4    2    7 1   
     5    3    4 ar  
     6    3   28 1   
     7    4    5 ar  
     8    4    8 1   
     9    5    6 ar  
    10    6   26 1   
    11    7   12 ar  
    12    7   16 ar  
    13    8    9 1   
    14    8   29 1   
    15    8   30 1   
    16    9   10 1   
    17    9   31 1   
    18    9   32 1   
    19   10   11 1   
    20   10   33 1   
    21   10   34 1   
    22   11   21 1   
    23   11   25 1   
    24   12   13 ar  
    25   12   35 1   
    26   13   14 ar  
    27   13   17 1   
    28   14   15 ar  
    29   14   36 1   
    30   15   16 ar  
    31   15   37 1   
    32   16   38 1   
    33   17   18 1   
    34   17   19 1   
    35   17   20 1   
    36   21   22 1   
    37   21   39 1   
    38   21   40 1   
    39   22   23 1   
    40   22   41 1   
    41   22   42 1   
    42   23   24 1   
    43   23   43 1   
    44   23   44 1   
    45   24   25 1   
    46   24   45 1   
    47   24   46 1   
    48   25   47 1   
    49   25   48 1   
    50   26   27 3   
@<TRIPOS>SUBSTRUCTURE
     1 KWZ         1 TEMP              0 ****  ****    0 ROOT
