@<TRIPOS>MOLECULE
KWZ
   48    50     1     0     0
SMALL
bcc


@<TRIPOS>ATOM
      1 N1         -0.0130   -0.8720    0.0120 nb        1 KWZ     -0.660000
      2 C2          1.2710   -0.4330    0.1000 cp        1 KWZ      0.497800
      3 C3          1.8930   -0.2140    1.3490 ca        1 KWZ     -0.341600
      4 C4          1.1430   -0.4720    2.5190 ca        1 KWZ      0.453600
      5 N5         -0.1360   -0.9160    2.4580 nb        1 KWZ     -0.662000
      6 C6         -0.6530   -1.0920    1.2010 ca        1 KWZ      0.746000
      7 C7          2.0260   -0.1780   -1.1390 cp        1 KWZ     -0.165500
      8 C8          1.7810   -0.2520    3.8610 c3        1 KWZ     -0.136700
      9 C9          1.1970    0.9650    4.5530 c3        1 KWZ     -0.080400
     10 C10         1.8650    1.1420    5.9170 c3        1 KWZ      0.172800
     11 N11         1.5830    2.4250    6.5480 n3        1 KWZ     -0.728600
     12 C12         1.4020    0.4130   -2.2450 ca        1 KWZ     -0.037000
     13 C13         2.1440    0.6610   -3.4010 ca        1 KWZ     -0.174300
     14 C14         3.4960    0.3150   -3.4720 ca        1 KWZ     -0.065000
     15 C15         4.1090   -0.2830   -2.3720 ca        1 KWZ     -0.138000
     16 C16         3.3810   -0.5290   -1.2100 ca        1 KWZ     -0.081000
     17 C17         1.4770    1.3320   -4.5960 c3        1 KWZ      0.688200
     18 F18         1.5720    2.7040   -4.5910 f         1 KWZ     -0.234300
     19 F19         1.9940    0.9660   -5.8150 f         1 KWZ     -0.234300
     20 F20         0.1310    1.0890   -4.7120 f         1 KWZ     -0.234300
     21 C21         2.4300    2.6330    7.7180 c3        1 KWZ      0.168800
     22 C22         2.1680    3.9580    8.4280 c3        1 KWZ     -0.077400
     23 C23         0.7030    4.1120    8.7710 c3        1 KWZ     -0.078400
     24 C24        -0.1460    3.9340    7.5320 c3        1 KWZ     -0.077400
     25 C25         0.1660    2.6120    6.8330 c3        1 KWZ      0.168800
     26 C26        -2.0170   -1.5610    1.1230 cg        1 KWZ      0.146800
     27 N27        -3.1120   -1.9380    1.0630 n1        1 KWZ     -0.317800
     28 H3          2.9240    0.1560    1.4100 ha        1 KWZ      0.163000
     29 H8          1.6300   -1.1610    4.5050 hc        1 KWZ      0.063700
     30 H8A         2.8860   -0.1180    3.7200 hc        1 KWZ      0.063700
     31 H9          1.3570    1.8760    3.9210 hc        1 KWZ      0.061700
     32 H9A         0.0910    0.8300    4.6830 hc        1 KWZ      0.061700
     33 H10         2.9830    1.0790    5.7770 h1        1 KWZ      0.029700
     34 H10A        1.5590    0.2750    6.5760 h1        1 KWZ      0.029700
     35 H12         0.3310    0.6770   -2.2130 ha        1 KWZ      0.171000
     36 H14         4.0660    0.5100   -4.3940 ha        1 KWZ      0.156000
     37 H15         5.1720   -0.5650   -2.4250 ha        1 KWZ      0.148000
     38 H16         3.8710   -1.0100   -0.3490 ha        1 KWZ      0.143000
     39 H21         3.5000    2.6190    7.3650 h1        1 KWZ      0.029700
     40 H21A        2.3080    1.7960    8.4680 h1        1 KWZ      0.029700
     41 H22         2.4930    4.8090    7.7740 hc        1 KWZ      0.047700
     42 H22A        2.7890    3.9870    9.3600 hc        1 KWZ      0.047700
     43 H23         0.4130    3.3490    9.5400 hc        1 KWZ      0.040700
     44 H23A        0.5200    5.1240    9.2170 hc        1 KWZ      0.040700
     45 H24         0.0370    4.7860    6.8260 hc        1 KWZ      0.047700
     46 H24A       -1.2330    3.9410    7.8030 hc        1 KWZ      0.047700
     47 H25        -0.3800    2.5940    5.8470 h1        1 KWZ      0.029700
     48 H25A       -0.2420    1.7690    7.4650 h1        1 KWZ      0.029700
@<TRIPOS>BOND
     1    1    2 ar  
     2    1    6 ar  
     3    2    3 ar  
     4    2    7 1   
     5    3    4 ar  
     6    3   28 1   
     7    4    5 ar  
     8    4    8 1   
     9    5    6 ar  
    10    6   26 1   
    11    7   12 ar  
    12    7   16 ar  
    13    8    9 1   
    14    8   29 1   
    15    8   30 1   
    16    9   10 1   
    17    9   31 1   
    18    9   32 1   
    19   10   11 1   
    20   10   33 1   
    21   10   34 1   
    22   11   21 1   
    23   11   25 1   
    24   12   13 ar  
    25   12   35 1   
    26   13   14 ar  
    27   13   17 1   
    28   14   15 ar  
    29   14   36 1   
    30   15   16 ar  
    31   15   37 1   
    32   16   38 1   
    33   17   18 1   
    34   17   19 1   
    35   17   20 1   
    36   21   22 1   
    37   21   39 1   
    38   21   40 1   
    39   22   23 1   
    40   22   41 1   
    41   22   42 1   
    42   23   24 1   
    43   23   43 1   
    44   23   44 1   
    45   24   25 1   
    46   24   45 1   
    47   24   46 1   
    48   25   47 1   
    49   25   48 1   
    50   26   27 3   
@<TRIPOS>SUBSTRUCTURE
     1 KWZ         1 TEMP              0 ****  ****    0 ROOT
