@<TRIPOS>MOLECULE
KWZ
   48    49     1     0     0
SMALL
bcc


@<TRIPOS>ATOM
      1 N1         -0.0650   -0.8570    0.0370 nb        1 KWZ     -0.660000
      2 C2          1.2400   -0.4930    0.1530 cp        1 KWZ      0.497800
      3 C3          1.8490   -0.3200    1.4160 ca        1 KWZ     -0.341600
      4 C4          1.0630   -0.5410    2.5690 ca        1 KWZ      0.453600
      5 N5         -0.2380   -0.9100    2.4800 nb        1 KWZ     -0.662000
      6 C6         -0.7400   -1.0470    1.2130 ca        1 KWZ      0.746000
      7 C7          2.0330   -0.2740   -1.0690 cp        1 KWZ     -0.165500
      8 C8          1.6850   -0.3660    3.9250 c3        1 KWZ     -0.136700
      9 C9          1.1670    0.8840    4.6090 c3        1 KWZ     -0.081400
     10 C10         1.8310    1.0260    5.9790 c3        1 KWZ      0.181800
     11 N11         1.5070    2.2700    6.6590 n3        1 KWZ     -0.747600
     12 C12         1.4650    0.3580   -2.1820 ca        1 KWZ     -0.037000
     13 C13         2.2430    0.5710   -3.3220 ca        1 KWZ     -0.174300
     14 C14         3.5730    0.1490   -3.3690 ca        1 KWZ     -0.065000
     15 C15         4.1300   -0.4920   -2.2630 ca        1 KWZ     -0.138000
     16 C16         3.3670   -0.7030   -1.1160 ca        1 KWZ     -0.081000
     17 C17         1.6390    1.2870   -4.5240 c3        1 KWZ      0.688200
     18 F18         1.8090    2.6510   -4.5050 f         1 KWZ     -0.234300
     19 F19         2.1590    0.9020   -5.7360 f         1 KWZ     -0.234300
     20 F20         0.2830    1.1200   -4.6700 f         1 KWZ     -0.234300
     21 C21         2.3640    2.4830    7.8190 c3        1 KWZ      0.207000
     22 C22         2.1870    3.8200    8.4690 c2        1 KWZ     -0.165200
     23 C23         2.3600    4.0100    9.7740 c2        1 KWZ     -0.226000
     24 C24        -0.5910    3.4090    5.9730 c3        1 KWZ     -0.092100
     25 C25         0.0860    2.4440    6.9360 c3        1 KWZ      0.169800
     26 C26        -2.1260   -1.4370    1.1050 cg        1 KWZ      0.146800
     27 N27        -3.2400   -1.7500    1.0210 n1        1 KWZ     -0.316800
     28 H3          2.8980   -0.0090    1.4990 ha        1 KWZ      0.163000
     29 H8          2.8000   -0.3030    3.8070 hc        1 KWZ      0.063200
     30 H8A         1.4630   -1.2650    4.5620 hc        1 KWZ      0.063200
     31 H9          1.3890    1.7840    3.9790 hc        1 KWZ      0.062700
     32 H9A         0.0530    0.8190    4.7270 hc        1 KWZ      0.062700
     33 H10         2.9500    0.9990    5.8340 h1        1 KWZ      0.027700
     34 H10A        1.5510    0.1250    6.6030 h1        1 KWZ      0.027700
     35 H12         0.4110    0.6840   -2.1680 ha        1 KWZ      0.171000
     36 H14         4.1720    0.3160   -4.2790 ha        1 KWZ      0.156000
     37 H15         5.1760   -0.8340   -2.2970 ha        1 KWZ      0.148000
     38 H16         3.8110   -1.2170   -0.2500 ha        1 KWZ      0.143000
     39 H21         3.4340    2.4240    7.4590 h1        1 KWZ      0.035700
     40 H21A        2.2250    1.6680    8.5910 h1        1 KWZ      0.035700
     41 H22         2.6050    3.1960   10.4700 ha        1 KWZ      0.112500
     42 H22A        1.9340    4.6540    7.7920 ha        1 KWZ      0.136000
     43 H23        -0.1290    4.4230    6.0350 hc        1 KWZ      0.037033
     44 H23A        2.2700    5.0010   10.2370 ha        1 KWZ      0.112500
     45 H24        -0.0550    2.8440    7.9820 h1        1 KWZ      0.035200
     46 H24A       -1.6710    3.4890    6.2440 hc        1 KWZ      0.037033
     47 H25        -0.4580    1.4550    6.8910 h1        1 KWZ      0.035200
     48 H25A       -0.5110    3.0510    4.9180 hc        1 KWZ      0.037033
@<TRIPOS>BOND
     1    1    2 ar  
     2    1    6 ar  
     3    2    3 ar  
     4    2    7 1   
     5    3    4 ar  
     6    3   28 1   
     7    4    5 ar  
     8    4    8 1   
     9    5    6 ar  
    10    6   26 1   
    11    7   12 ar  
    12    7   16 ar  
    13    8    9 1   
    14    8   29 1   
    15    8   30 1   
    16    9   10 1   
    17    9   31 1   
    18    9   32 1   
    19   10   11 1   
    20   10   33 1   
    21   10   34 1   
    22   11   21 1   
    23   11   25 1   
    24   12   13 ar  
    25   12   35 1   
    26   13   14 ar  
    27   13   17 1   
    28   14   15 ar  
    29   14   36 1   
    30   15   16 ar  
    31   15   37 1   
    32   16   38 1   
    33   17   18 1   
    34   17   19 1   
    35   17   20 1   
    36   21   22 1   
    37   21   39 1   
    38   21   40 1   
    39   22   23 2   
    40   22   42 1   
    41   23   41 1   
    42   23   44 1   
    43   24   25 1   
    44   24   43 1   
    45   24   46 1   
    46   24   48 1   
    47   25   45 1   
    48   25   47 1   
    49   26   27 3   
@<TRIPOS>SUBSTRUCTURE
     1 KWZ         1 TEMP              0 ****  ****    0 ROOT
