@<TRIPOS>MOLECULE
KWZ
   48    50     1     0     0
SMALL
bcc


@<TRIPOS>ATOM
      1 N1         -0.0000   -0.9170    0.0060 nb        1 KWZ     -0.660000
      2 C2          1.2890   -0.4950    0.0990 cp        1 KWZ      0.497800
      3 C3          1.9090   -0.2860    1.3510 ca        1 KWZ     -0.341600
      4 C4          1.1520   -0.5330    2.5170 ca        1 KWZ      0.453600
      5 N5         -0.1330   -0.9590    2.4520 nb        1 KWZ     -0.662000
      6 C6         -0.6480   -1.1280    1.1930 ca        1 KWZ      0.746000
      7 C7          2.0520   -0.2510   -1.1370 cp        1 KWZ     -0.165500
      8 C8          1.7870   -0.3210    3.8620 c3        1 KWZ     -0.136700
      9 C9          1.2270    0.9130    4.5440 c3        1 KWZ     -0.080400
     10 C10         1.8900    1.0810    5.9120 c3        1 KWZ      0.172800
     11 N11         1.6360    2.3740    6.5340 n3        1 KWZ     -0.728600
     12 C12         1.4400    0.3470   -2.2460 ca        1 KWZ     -0.037000
     13 C13         2.1900    0.5860   -3.3990 ca        1 KWZ     -0.174300
     14 C14         3.5370    0.2230   -3.4640 ca        1 KWZ     -0.065000
     15 C15         4.1390   -0.3840   -2.3620 ca        1 KWZ     -0.138000
     16 C16         3.4030   -0.6200   -1.2020 ca        1 KWZ     -0.081000
     17 C17         1.5360    1.2650   -4.5970 c3        1 KWZ      0.688200
     18 F18         1.6460    2.6350   -4.5910 f         1 KWZ     -0.234300
     19 F19         2.0540    0.8930   -5.8140 f         1 KWZ     -0.234300
     20 F20         0.1870    1.0370   -4.7190 f         1 KWZ     -0.234300
     21 C21         2.4800    2.5670    7.7090 c3        1 KWZ      0.168800
     22 C22         2.2470    3.9030    8.4090 c3        1 KWZ     -0.077400
     23 C23         0.7830    4.0980    8.7400 c3        1 KWZ     -0.078400
     24 C24        -0.0600    3.9340    7.4940 c3        1 KWZ     -0.077400
     25 C25         0.2230    2.6010    6.8050 c3        1 KWZ      0.168800
     26 C26        -2.0170   -1.5790    1.1100 cg        1 KWZ      0.146800
     27 N27        -3.1180   -1.9410    1.0450 n1        1 KWZ     -0.317800
     28 H3          2.9450    0.0710    1.4150 ha        1 KWZ      0.163000
     29 H8          2.8960   -0.2120    3.7260 hc        1 KWZ      0.063700
     30 H8A         1.6120   -1.2220    4.5100 hc        1 KWZ      0.063700
     31 H9          0.1180    0.8050    4.6670 hc        1 KWZ      0.061700
     32 H9A         1.4140    1.8170    3.9080 hc        1 KWZ      0.061700
     33 H10         3.0070    0.9890    5.7800 h1        1 KWZ      0.029700
     34 H10A        1.5580    0.2260    6.5730 h1        1 KWZ      0.029700
     35 H12         0.3730    0.6250   -2.2180 ha        1 KWZ      0.171000
     36 H14         4.1130    0.4090   -4.3850 ha        1 KWZ      0.156000
     37 H15         5.1980   -0.6790   -2.4110 ha        1 KWZ      0.148000
     38 H16         3.8830   -1.1070   -0.3390 ha        1 KWZ      0.143000
     39 H21         3.5520    2.5230    7.3650 h1        1 KWZ      0.029700
     40 H21A        2.3290    1.7380    8.4630 h1        1 KWZ      0.029700
     41 H22         2.5990    4.7410    7.7530 hc        1 KWZ      0.047700
     42 H22A        2.8610    3.9210    9.3460 hc        1 KWZ      0.047700
     43 H23         0.4680    3.3460    9.5110 hc        1 KWZ      0.040700
     44 H23A        0.6240    5.1170    9.1770 hc        1 KWZ      0.040700
     45 H24         0.1500    4.7770    6.7850 hc        1 KWZ      0.047700
     46 H24A       -1.1480    3.9710    7.7570 hc        1 KWZ      0.047700
     47 H25        -0.3150    2.5910    5.8160 h1        1 KWZ      0.029700
     48 H25A       -0.2120    1.7720    7.4390 h1        1 KWZ      0.029700
@<TRIPOS>BOND
     1    1    2 ar  
     2    1    6 ar  
     3    2    3 ar  
     4    2    7 1   
     5    3    4 ar  
     6    3   28 1   
     7    4    5 ar  
     8    4    8 1   
     9    5    6 ar  
    10    6   26 1   
    11    7   12 ar  
    12    7   16 ar  
    13    8    9 1   
    14    8   29 1   
    15    8   30 1   
    16    9   10 1   
    17    9   31 1   
    18    9   32 1   
    19   10   11 1   
    20   10   33 1   
    21   10   34 1   
    22   11   21 1   
    23   11   25 1   
    24   12   13 ar  
    25   12   35 1   
    26   13   14 ar  
    27   13   17 1   
    28   14   15 ar  
    29   14   36 1   
    30   15   16 ar  
    31   15   37 1   
    32   16   38 1   
    33   17   18 1   
    34   17   19 1   
    35   17   20 1   
    36   21   22 1   
    37   21   39 1   
    38   21   40 1   
    39   22   23 1   
    40   22   41 1   
    41   22   42 1   
    42   23   24 1   
    43   23   43 1   
    44   23   44 1   
    45   24   25 1   
    46   24   45 1   
    47   24   46 1   
    48   25   47 1   
    49   25   48 1   
    50   26   27 3   
@<TRIPOS>SUBSTRUCTURE
     1 KWZ         1 TEMP              0 ****  ****    0 ROOT
