@<TRIPOS>MOLECULE
KX1
   54    53     1     0     0
SMALL
bcc


@<TRIPOS>ATOM
      1 N1          0.6310   -0.4680   -0.4520 n2        1 KX1     -0.142000
      2 C2          1.8920   -0.0250   -0.2270 c2        1 KX1      0.032000
      3 C3          2.4410    0.0050    1.0750 c2        1 KX1     -0.215000
      4 C4          1.6400   -0.4440    2.1460 c2        1 KX1      0.024000
      5 N5          0.3750   -0.8950    1.9470 n2        1 KX1     -0.140000
      6 C6         -0.0670   -0.8830    0.6520 c2        1 KX1      0.106000
      7 C7          2.2000   -0.4270    3.5400 c3        1 KX1     -0.120000
      8 C8          1.5620    0.6670    4.3740 c3        1 KX1     -0.157000
      9 C9          2.1470    0.6370    5.7850 c3        1 KX1     -0.069000
     10 C10         2.7210    0.4530   -1.4000 c3        1 KX1     -0.070000
     11 C11         3.1370    1.9010   -1.1550 c3        1 KX1     -0.135000
     12 C12         3.5530    2.5990   -2.4380 c3        1 KX1     -0.244000
     13 C13         3.9340   -0.4500   -1.5930 c3        1 KX1     -0.158000
     14 C14         4.8860    2.2370   -2.8800 c1        1 KX1     -0.057000
     15 C15         3.5850   -1.7820   -2.2230 c3        1 KX1     -0.162000
     16 C16         3.3900   -1.6890   -3.7150 c3        1 KX1     -0.211000
     17 C17        -1.4120   -1.3590    0.4240 c1        1 KX1     -0.068000
     18 N18         1.7920    1.7980    6.5930 n3        1 KX1     -0.247000
     19 N19        -2.4920   -1.7410    0.2400 n1        1 KX1     -0.001000
     20 C20         2.5320    1.8000    7.8480 c3        1 KX1     -0.152000
     21 C21         2.0960    2.7690    8.8500 c1        1 KX1     -0.042000
     22 C22        -1.0990    5.5410   10.1840 c2        1 KX1     -0.229000
     23 C23        -0.6360    4.8860    9.1290 c2        1 KX1     -0.229000
     24 C24         0.3670    1.9850    6.7410 c3        1 KX1     -0.131000
     25 H3          3.4620    0.3710    1.2440 ha        1 KX1      0.163000
     26 H7          2.0270   -1.4250    4.0290 hc        1 KX1      0.102000
     27 H7A         3.3090   -0.2670    3.4830 hc        1 KX1      0.102000
     28 H8          0.4520    0.5100    4.4190 hc        1 KX1      0.102000
     29 H8A         1.7460    1.6650    3.8980 hc        1 KX1      0.102000
     30 H9          3.2720    0.6170    5.7050 h1        1 KX1      0.066000
     31 H9A         1.8280   -0.3280    6.2800 h1        1 KX1      0.066000
     32 H10         2.0970    0.4140   -2.3400 hc        1 KX1      0.121000
     33 H11         2.2720    2.4590   -0.7090 hc        1 KX1      0.093000
     34 H11A        3.9850    1.9300   -0.4230 hc        1 KX1      0.093000
     35 H12         3.6290    3.7130   -2.2320 hc        1 KX1      0.116000
     36 H12A        2.7480    2.4700   -3.2140 hc        1 KX1      0.116000
     37 H13         4.6850    0.0880   -2.2370 hc        1 KX1      0.096500
     38 H13A        4.4270   -0.6250   -0.6000 hc        1 KX1      0.096500
     39 H14         4.3140   -1.3080   -4.2120 hc        1 KX1      0.073333
     40 H14A        5.0790    2.3690   -3.9570 ha        1 KX1      0.038000
     41 H15         4.4150   -2.5070   -2.0080 hc        1 KX1      0.084500
     42 H15A        2.6550   -2.1920   -1.7480 hc        1 KX1      0.084500
     43 H16         2.5460   -1.0020   -3.9650 hc        1 KX1      0.073333
     44 H16A        3.1550   -2.6970   -4.1350 hc        1 KX1      0.073333
     45 H20         3.6210    1.9520    7.5720 h1        1 KX1      0.105000
     46 H20A        2.4710    0.7930    8.3860 h1        1 KX1      0.105000
     47 H21         2.8270    2.9200    9.6620 ha        1 KX1      0.041000
     48 H21A       -0.6160    5.4930   11.1690 ha        1 KX1      0.113250
     49 H22        -1.9950    6.1750   10.1470 ha        1 KX1      0.113250
     50 H22A        0.2640    4.2480    9.1620 ha        1 KX1      0.113250
     51 H23        -0.0610    2.2260    5.7320 h1        1 KX1      0.082667
     52 H23A       -1.1220    4.9370    8.1450 ha        1 KX1      0.113250
     53 H24         0.1730    2.8500    7.4320 h1        1 KX1      0.082667
     54 H24A       -0.1580    1.0760    7.1440 h1        1 KX1      0.082667
@<TRIPOS>BOND
     1    1    2 1   
     2    1    6 1   
     3    2    3 1   
     4    2   10 1   
     5    3    4 1   
     6    3   25 1   
     7    4    5 1   
     8    4    7 1   
     9    5    6 1   
    10    6   17 1   
    11    7    8 1   
    12    7   26 1   
    13    7   27 1   
    14    8    9 1   
    15    8   28 1   
    16    8   29 1   
    17    9   18 1   
    18    9   30 1   
    19    9   31 1   
    20   10   11 1   
    21   10   13 1   
    22   10   32 1   
    23   11   12 1   
    24   11   33 1   
    25   11   34 1   
    26   12   14 1   
    27   12   35 1   
    28   12   36 1   
    29   13   15 1   
    30   13   37 1   
    31   13   38 1   
    32   14   40 1   
    33   15   16 1   
    34   15   41 1   
    35   15   42 1   
    36   16   39 1   
    37   16   43 1   
    38   16   44 1   
    39   17   19 1   
    40   18   20 1   
    41   18   24 1   
    42   20   21 1   
    43   20   45 1   
    44   20   46 1   
    45   21   47 1   
    46   22   23 1   
    47   22   48 1   
    48   22   49 1   
    49   23   50 1   
    50   23   52 1   
    51   24   51 1   
    52   24   53 1   
    53   24   54 1   
@<TRIPOS>SUBSTRUCTURE
     1 KX1         1 TEMP              0 ****  ****    0 ROOT
