@<TRIPOS>MOLECULE
KX1
   54    56     1     0     0
SMALL
bcc


@<TRIPOS>ATOM
      1 N1         -2.4370    2.1860    0.3550 nb        1 KX1     -0.667000
      2 C2         -2.4780    0.8310    0.3500 ca        1 KX1      0.451600
      3 C3         -1.3610    0.0590    0.7410 ca        1 KX1     -0.346600
      4 C4         -0.1900    0.7370    1.1430 ca        1 KX1      0.447600
      5 N5         -0.1250    2.0920    1.1580 nb        1 KX1     -0.667000
      6 C6         -1.2570    2.7510    0.7610 ca        1 KX1      0.739000
      7 C7          1.0110   -0.0590    1.5690 c3        1 KX1     -0.135700
      8 C8          2.1220    0.0270    0.5390 c3        1 KX1     -0.080400
      9 C9          3.3230   -0.7880    1.0180 c3        1 KX1      0.171800
     10 C10        -3.7490    0.1400   -0.0930 c3        1 KX1     -0.121000
     11 C11        -3.4900   -0.5650   -1.4180 c3        1 KX1     -0.071400
     12 C12        -4.7020   -1.3080   -1.9400 c3        1 KX1     -0.073400
     13 C13        -4.2230   -0.8090    1.0030 c3        1 KX1     -0.071400
     14 C14        -4.9610   -2.6050   -1.2030 c3        1 KX1     -0.075900
     15 C15        -5.6720   -1.2130    0.8230 c3        1 KX1     -0.073400
     16 C16        -5.8710   -2.4670   -0.0010 c3        1 KX1     -0.075900
     17 C17        -1.2020    4.1940    0.7710 cg        1 KX1      0.150800
     18 N18         4.3380   -1.0010   -0.0050 n3        1 KX1     -0.728600
     19 N19        -1.1580    5.3540    0.7790 n1        1 KX1     -0.327800
     20 C20         5.3370   -1.9670    0.4390 c3        1 KX1      0.168800
     21 C21         6.4350   -2.2200   -0.5910 c3        1 KX1     -0.077400
     22 C22         7.0770   -0.9230   -1.0320 c3        1 KX1     -0.078400
     23 C23         6.0220    0.0410   -1.5270 c3        1 KX1     -0.077400
     24 C24         4.9260    0.2440   -0.4830 c3        1 KX1      0.168800
     25 H3         -1.4050   -1.0370    0.7300 ha        1 KX1      0.161000
     26 H7          1.3840    0.3200    2.5590 hc        1 KX1      0.062200
     27 H7A         0.7040   -1.1290    1.7110 hc        1 KX1      0.062200
     28 H8          1.7570   -0.3600   -0.4470 hc        1 KX1      0.060700
     29 H8A         2.4190    1.0990    0.3960 hc        1 KX1      0.060700
     30 H9          3.7520   -0.2810    1.9340 h1        1 KX1      0.029700
     31 H9A         2.9570   -1.8060    1.3390 h1        1 KX1      0.029700
     32 H10        -4.5560    0.9130   -0.2620 hc        1 KX1      0.083700
     33 H11        -3.1850    0.2080   -2.1740 hc        1 KX1      0.045450
     34 H11A       -2.6310   -1.2780   -1.3030 hc        1 KX1      0.045450
     35 H12        -5.6070   -0.6490   -1.8880 hc        1 KX1      0.043950
     36 H12A       -4.5230   -1.5410   -3.0250 hc        1 KX1      0.043950
     37 H13        -3.5710   -1.7200    1.0270 hc        1 KX1      0.045450
     38 H13A       -4.1130   -0.2910    1.9930 hc        1 KX1      0.045450
     39 H14        -5.4290   -3.3400   -1.9120 hc        1 KX1      0.038450
     40 H14A       -3.9820   -3.0510   -0.8790 hc        1 KX1      0.038450
     41 H15        -6.1250   -1.3850    1.8370 hc        1 KX1      0.043950
     42 H15A       -6.2430   -0.3660    0.3560 hc        1 KX1      0.043950
     43 H16        -6.9400   -2.4910   -0.3450 hc        1 KX1      0.038450
     44 H16A       -5.7200   -3.3660    0.6560 hc        1 KX1      0.038450
     45 H20         5.8230   -1.6410    1.4060 h1        1 KX1      0.029950
     46 H20A        4.8000   -2.9380    0.6380 h1        1 KX1      0.029950
     47 H21         7.2020   -2.8950   -0.1300 hc        1 KX1      0.046950
     48 H21A        6.0050   -2.7490   -1.4810 hc        1 KX1      0.046950
     49 H22         7.6330   -0.4660   -0.1720 hc        1 KX1      0.040700
     50 H22A        7.8210   -1.1240   -1.8460 hc        1 KX1      0.040700
     51 H23         6.4830    1.0370   -1.7520 hc        1 KX1      0.046950
     52 H23A        5.5710   -0.3500   -2.4760 hc        1 KX1      0.046950
     53 H24         4.0980    0.8490   -0.9500 h1        1 KX1      0.029950
     54 H24A        5.3520    0.8520    0.3700 h1        1 KX1      0.029950
@<TRIPOS>BOND
     1    1    2 ar  
     2    1    6 ar  
     3    2    3 ar  
     4    2   10 1   
     5    3    4 ar  
     6    3   25 1   
     7    4    5 ar  
     8    4    7 1   
     9    5    6 ar  
    10    6   17 1   
    11    7    8 1   
    12    7   26 1   
    13    7   27 1   
    14    8    9 1   
    15    8   28 1   
    16    8   29 1   
    17    9   18 1   
    18    9   30 1   
    19    9   31 1   
    20   10   11 1   
    21   10   13 1   
    22   10   32 1   
    23   11   12 1   
    24   11   33 1   
    25   11   34 1   
    26   12   14 1   
    27   12   35 1   
    28   12   36 1   
    29   13   15 1   
    30   13   37 1   
    31   13   38 1   
    32   14   16 1   
    33   14   39 1   
    34   14   40 1   
    35   15   16 1   
    36   15   41 1   
    37   15   42 1   
    38   16   43 1   
    39   16   44 1   
    40   17   19 3   
    41   18   20 1   
    42   18   24 1   
    43   20   21 1   
    44   20   45 1   
    45   20   46 1   
    46   21   22 1   
    47   21   47 1   
    48   21   48 1   
    49   22   23 1   
    50   22   49 1   
    51   22   50 1   
    52   23   24 1   
    53   23   51 1   
    54   23   52 1   
    55   24   53 1   
    56   24   54 1   
@<TRIPOS>SUBSTRUCTURE
     1 KX1         1 TEMP              0 ****  ****    0 ROOT
