@<TRIPOS>MOLECULE
KX1
   54    54     1     0     0
SMALL
bcc


@<TRIPOS>ATOM
      1 N1          0.4860   -0.0450   -0.3440 n2        1 KX1     -0.133000
      2 C2          1.8180   -0.0550   -0.0960 c2        1 KX1      0.038000
      3 C3          2.3220   -0.0250    1.2260 c2        1 KX1     -0.218000
      4 C4          1.3990    0.0110    2.2910 c2        1 KX1      0.022000
      5 N5          0.0590    0.0200    2.0680 n2        1 KX1     -0.145000
      6 C6         -0.3300   -0.0070    0.7570 c2        1 KX1      0.106000
      7 C7          1.9050    0.0310    3.7040 c3        1 KX1     -0.116000
      8 C8          1.5650    1.3360    4.3970 c3        1 KX1     -0.176000
      9 C9          2.1350    1.3170    5.8160 c3        1 KX1     -0.039000
     10 C10         2.7860   -0.0940   -1.2560 c3        1 KX1     -0.083000
     11 C11         3.7760    1.0650   -1.1430 c3        1 KX1     -0.156000
     12 C12         4.0020    1.7750   -2.4620 c3        1 KX1     -0.137000
     13 C13         3.5100   -1.4370   -1.2780 c3        1 KX1     -0.148000
     14 C14         4.7210    0.9160   -3.4860 c3        1 KX1     -0.247000
     15 C15         2.6070   -2.5680   -1.6970 c3        1 KX1     -0.218000
     16 C16         3.8660   -0.0950   -4.0790 c1        1 KX1     -0.052000
     17 C17        -1.7530    0.0040    0.5050 c1        1 KX1     -0.068000
     18 N18         1.9300    2.5590    6.5570 n3        1 KX1     -0.143000
     19 N19        -2.8960    0.0140    0.3040 n1        1 KX1     -0.001000
     20 C20         2.9740    3.2630    6.8960 c1        1 KX1     -0.186000
     21 C21         0.2340    4.2120   10.4160 c3        1 KX1     -0.211000
     22 C22         0.6300    3.2790    9.3010 c3        1 KX1     -0.163000
     23 C23         0.2490    3.8430    7.9500 c3        1 KX1     -0.168000
     24 C24         0.5240    2.8740    6.8080 c3        1 KX1     -0.110000
     25 H3          3.4040   -0.0280    1.4090 ha        1 KX1      0.161000
     26 H7          1.4570   -0.8280    4.2730 hc        1 KX1      0.104000
     27 H7A         3.0180   -0.1140    3.6940 hc        1 KX1      0.104000
     28 H8          0.4520    1.4710    4.4300 hc        1 KX1      0.101000
     29 H8A         1.9950    2.1950    3.8210 hc        1 KX1      0.101000
     30 H9          1.6540    0.4770    6.3940 h1        1 KX1      0.105500
     31 H9A         3.2450    1.1250    5.7680 h1        1 KX1      0.105500
     32 H10         2.2220    0.0070   -2.2340 hc        1 KX1      0.158000
     33 H11         4.7540    0.6910   -0.7410 hc        1 KX1      0.083500
     34 H11A        3.3890    1.8220   -0.4080 hc        1 KX1      0.083500
     35 H12         4.6190    2.6930   -2.2680 hc        1 KX1      0.093000
     36 H12A        3.0170    2.1070   -2.8850 hc        1 KX1      0.093000
     37 H13         3.9500   -1.6480   -0.2680 hc        1 KX1      0.076000
     38 H13A        4.3660   -1.3600   -2.0050 hc        1 KX1      0.076000
     39 H14         5.0140    1.5710   -4.3660 hc        1 KX1      0.110500
     40 H14A        5.6780    0.5230   -3.0420 hc        1 KX1      0.110500
     41 H15         1.7400   -2.6610   -1.0000 hc        1 KX1      0.082000
     42 H15A        3.1710   -3.5320   -1.6920 hc        1 KX1      0.082000
     43 H16         4.3880   -0.9790   -4.4820 ha        1 KX1      0.034000
     44 H16A        2.2110   -2.3920   -2.7270 hc        1 KX1      0.082000
     45 H20         2.7920    4.2000    7.4610 ha        1 KX1      0.049000
     46 H20A        0.7360    5.2030   10.3000 hc        1 KX1      0.074667
     47 H21         0.5280    3.7810   11.4040 hc        1 KX1      0.074667
     48 H21A       -0.8710    4.3780   10.4200 hc        1 KX1      0.074667
     49 H22         0.1310    2.2850    9.4470 hc        1 KX1      0.084000
     50 H22A        1.7390    3.1020    9.3380 hc        1 KX1      0.084000
     51 H23         0.7800    4.8170    7.7800 hc        1 KX1      0.091500
     52 H23A       -0.8520    4.0640    7.9360 hc        1 KX1      0.091500
     53 H24         0.0940    3.3100    5.8600 h1        1 KX1      0.090500
     54 H24A       -0.0260    1.9120    7.0190 h1        1 KX1      0.090500
@<TRIPOS>BOND
     1    1    2 1   
     2    1    6 1   
     3    2    3 1   
     4    2   10 1   
     5    3    4 1   
     6    3   25 1   
     7    4    5 1   
     8    4    7 1   
     9    5    6 1   
    10    6   17 1   
    11    7    8 1   
    12    7   26 1   
    13    7   27 1   
    14    8    9 1   
    15    8   28 1   
    16    8   29 1   
    17    9   18 1   
    18    9   30 1   
    19    9   31 1   
    20   10   11 1   
    21   10   13 1   
    22   10   32 1   
    23   11   12 1   
    24   11   33 1   
    25   11   34 1   
    26   12   14 1   
    27   12   35 1   
    28   12   36 1   
    29   13   15 1   
    30   13   37 1   
    31   13   38 1   
    32   14   16 1   
    33   14   39 1   
    34   14   40 1   
    35   15   41 1   
    36   15   42 1   
    37   15   44 1   
    38   16   43 1   
    39   17   19 1   
    40   18   20 1   
    41   18   24 1   
    42   20   45 1   
    43   21   22 1   
    44   21   46 1   
    45   21   47 1   
    46   21   48 1   
    47   22   23 1   
    48   22   49 1   
    49   22   50 1   
    50   23   24 1   
    51   23   51 1   
    52   23   52 1   
    53   24   53 1   
    54   24   54 1   
@<TRIPOS>SUBSTRUCTURE
     1 KX1         1 TEMP              0 ****  ****    0 ROOT
