@<TRIPOS>MOLECULE
KX1
   54    53     1     0     0
SMALL
bcc


@<TRIPOS>ATOM
      1 N1         -1.3600   -0.1520   -2.5770 n1        1 KX1     -0.395800
      2 C2         -0.0250   -0.0940   -2.5510 c1        1 KX1      0.053900
      3 C3          0.6320   -0.0020   -1.3570 c1        1 KX1     -0.162500
      4 C4         -0.0800    0.0310   -0.1870 c1        1 KX1      0.378700
      5 N5         -1.4150   -0.0280   -0.2150 n1        1 KX1     -0.463800
      6 C6         -2.0690   -0.1200   -1.4080 cg        1 KX1      0.345300
      7 C7          0.6450    0.2280    1.1390 c3        1 KX1     -0.068300
      8 C8         -0.3320   -0.0400    2.3050 c3        1 KX1     -0.079400
      9 C9          0.3880    0.1930    3.6370 c3        1 KX1      0.172800
     10 C10         0.7650   -0.0520   -3.8640 c3        1 KX1     -0.041600
     11 C11         0.4080   -1.2680   -4.7010 c3        1 KX1     -0.069400
     12 C12         1.6190   -1.7760   -5.4600 c3        1 KX1     -0.075900
     13 C13         0.4350    1.2190   -4.5980 c3        1 KX1     -0.069400
     14 C14         1.8090   -1.0060   -6.7520 c3        1 KX1     -0.076400
     15 C15         0.5150    1.0130   -6.0910 c3        1 KX1     -0.075900
     16 C16         1.8710    0.4800   -6.4880 c3        1 KX1     -0.076400
     17 C17        -3.5790   -0.1210   -1.4410 cg        1 KX1      0.345300
     18 N18        -0.5810    0.2020    4.7160 n3        1 KX1     -0.727600
     19 N19        -4.7180   -0.1220   -1.4660 n1        1 KX1     -0.395800
     20 C20        -0.4300   -1.0130    5.5170 c3        1 KX1      0.170300
     21 C21        -1.3130   -1.0070    6.7520 c3        1 KX1     -0.077400
     22 C22        -1.1520    0.2190    7.5510 c3        1 KX1     -0.078400
     23 C23        -1.3040    1.4390    6.7380 c3        1 KX1     -0.077400
     24 C24        -0.4210    1.4250    5.5050 c3        1 KX1      0.170300
     25 H3          1.6100    0.0410   -1.3380 ha        1 KX1      0.101500
     26 H7          1.3980   -0.3950    1.1940 hc        1 KX1      0.062200
     27 H7A         0.9770    1.1490    1.1960 hc        1 KX1      0.062200
     28 H8         -0.6460   -0.9680    2.2620 hc        1 KX1      0.061700
     29 H8A        -1.0960    0.5670    2.2370 hc        1 KX1      0.061700
     30 H9          1.0350   -0.5220    3.7860 h1        1 KX1      0.028200
     31 H9A         0.8530    1.0530    3.6090 h1        1 KX1      0.028200
     32 H10         1.7210   -0.0690   -3.6650 hc        1 KX1      0.056700
     33 H11         0.0780   -1.9730   -4.1170 hc        1 KX1      0.051200
     34 H11A       -0.2910   -1.0250   -5.3380 hc        1 KX1      0.051200
     35 H12         1.4950   -2.7250   -5.6670 hc        1 KX1      0.040950
     36 H12A        2.4150   -1.6700   -4.9040 hc        1 KX1      0.040950
     37 H13        -0.4700    1.5020   -4.3610 hc        1 KX1      0.051200
     38 H13A        1.0680    1.9150   -4.3360 hc        1 KX1      0.051200
     39 H14         1.0610   -1.1950   -7.3510 hc        1 KX1      0.039700
     40 H14A        2.6420   -1.2920   -7.1770 hc        1 KX1      0.039700
     41 H15        -0.1750    0.3730   -6.3650 hc        1 KX1      0.040950
     42 H15A        0.3610    1.8630   -6.5410 hc        1 KX1      0.040950
     43 H16         2.1710    0.9370   -7.2970 hc        1 KX1      0.039700
     44 H16A        2.5070    0.6520   -5.7680 hc        1 KX1      0.039700
     45 H20         0.5020   -1.0940    5.7960 h1        1 KX1      0.028700
     46 H20A       -0.6630   -1.7850    4.9650 h1        1 KX1      0.028700
     47 H21        -1.0840   -1.7810    7.3090 hc        1 KX1      0.047700
     48 H21A       -2.2480   -1.0830    6.4730 hc        1 KX1      0.047700
     49 H22        -1.8250    0.2250    8.2610 hc        1 KX1      0.040200
     50 H22A       -0.2620    0.2180    7.9570 hc        1 KX1      0.040200
     51 H23        -2.2360    1.5190    6.4590 hc        1 KX1      0.047700
     52 H23A       -1.0690    2.2180    7.2880 hc        1 KX1      0.047700
     53 H24        -0.6490    2.1930    4.9460 h1        1 KX1      0.028700
     54 H24A        0.5100    1.5020    5.7830 h1        1 KX1      0.028700
@<TRIPOS>BOND
     1    1    6 3   
     2    2    3 3   
     3    2   10 1   
     4    3   25 1   
     5    4    5 3   
     6    4    7 1   
     7    6   17 1   
     8    7    8 1   
     9    7   26 1   
    10    7   27 1   
    11    8    9 1   
    12    8   28 1   
    13    8   29 1   
    14    9   18 1   
    15    9   30 1   
    16    9   31 1   
    17   10   11 1   
    18   10   13 1   
    19   10   32 1   
    20   11   12 1   
    21   11   33 1   
    22   11   34 1   
    23   12   14 1   
    24   12   35 1   
    25   12   36 1   
    26   13   15 1   
    27   13   37 1   
    28   13   38 1   
    29   14   16 1   
    30   14   39 1   
    31   14   40 1   
    32   15   16 1   
    33   15   41 1   
    34   15   42 1   
    35   16   43 1   
    36   16   44 1   
    37   17   19 3   
    38   18   20 1   
    39   18   24 1   
    40   20   21 1   
    41   20   45 1   
    42   20   46 1   
    43   21   22 1   
    44   21   47 1   
    45   21   48 1   
    46   22   23 1   
    47   22   49 1   
    48   22   50 1   
    49   23   24 1   
    50   23   51 1   
    51   23   52 1   
    52   24   53 1   
    53   24   54 1   
@<TRIPOS>SUBSTRUCTURE
     1 KX1         1 TEMP              0 ****  ****    0 ROOT
