@<TRIPOS>MOLECULE
KX1
   54    56     1     0     0
SMALL
bcc


@<TRIPOS>ATOM
      1 N1         -0.1060   -0.5340   -0.1330 nb        1 KX1     -0.667000
      2 C2          1.2100   -0.2340   -0.0110 ca        1 KX1      0.451600
      3 C3          1.8280   -0.1350    1.2560 ca        1 KX1     -0.346600
      4 C4          1.0370   -0.3560    2.4040 ca        1 KX1      0.447600
      5 N5         -0.2830   -0.6580    2.3070 nb        1 KX1     -0.667000
      6 C6         -0.7890   -0.7310    1.0380 ca        1 KX1      0.739000
      7 C7          1.6700   -0.2620    3.7630 c3        1 KX1     -0.135700
      8 C8          1.2000    0.9760    4.5030 c3        1 KX1     -0.080400
      9 C9          1.8620    1.0260    5.8800 c3        1 KX1      0.171800
     10 C10         2.0250    0.0020   -1.2640 c3        1 KX1     -0.121000
     11 C11         2.4190    1.4720   -1.3240 c3        1 KX1     -0.071400
     12 C12         3.2600    1.8110   -2.5370 c3        1 KX1     -0.073400
     13 C13         3.2260   -0.9370   -1.2770 c3        1 KX1     -0.071400
     14 C14         4.6940    1.3420   -2.4100 c3        1 KX1     -0.075900
     15 C15         3.8430   -1.0580   -2.6550 c3        1 KX1     -0.073400
     16 C16         4.9420   -0.0560   -2.9360 c3        1 KX1     -0.075900
     17 C17        -2.1930   -1.0510    0.9200 cg        1 KX1      0.150800
     18 N18         1.6990    2.3000    6.5680 n3        1 KX1     -0.728600
     19 N19        -3.3210   -1.3070    0.8260 n1        1 KX1     -0.327800
     20 C20         2.5370    2.3640    7.7610 c3        1 KX1      0.168800
     21 C21         2.3980    3.6750    8.5310 c3        1 KX1     -0.077400
     22 C22         0.9490    3.9650    8.8540 c3        1 KX1     -0.078400
     23 C23         0.1150    3.9350    7.5930 c3        1 KX1     -0.077400
     24 C24         0.3040    2.6220    6.8350 c3        1 KX1      0.168800
     25 H3          2.8950    0.1100    1.3420 ha        1 KX1      0.161000
     26 H7          2.7850   -0.2340    3.6420 hc        1 KX1      0.062200
     27 H7A         1.4170   -1.1780    4.3620 hc        1 KX1      0.062200
     28 H8          0.0850    0.9480    4.6140 hc        1 KX1      0.060700
     29 H8A         1.4610    1.8930    3.9140 hc        1 KX1      0.060700
     30 H9          2.9700    0.8580    5.7500 h1        1 KX1      0.029700
     31 H9A         1.4620    0.1650    6.4960 h1        1 KX1      0.029700
     32 H10         1.3910   -0.2260   -2.1710 hc        1 KX1      0.083700
     33 H11         2.9760    1.7500   -0.3900 hc        1 KX1      0.045450
     34 H11A        1.4800    2.0880   -1.3490 hc        1 KX1      0.045450
     35 H12         2.7930    1.3750   -3.4590 hc        1 KX1      0.043950
     36 H12A        3.2560    2.9280   -2.6590 hc        1 KX1      0.043950
     37 H13         3.9950   -0.5840   -0.5420 hc        1 KX1      0.045450
     38 H13A        2.8860   -1.9540   -0.9430 hc        1 KX1      0.045450
     39 H14         5.3590    2.0500   -2.9750 hc        1 KX1      0.038450
     40 H14A        5.0090    1.3960   -1.3340 hc        1 KX1      0.038450
     41 H15         3.0410   -0.9610   -3.4350 hc        1 KX1      0.043950
     42 H15A        4.2740   -2.0900   -2.7660 hc        1 KX1      0.043950
     43 H16         5.9030   -0.4310   -2.4920 hc        1 KX1      0.038450
     44 H16A        5.0930   -0.0090   -4.0480 hc        1 KX1      0.038450
     45 H20         2.3110    1.5100    8.4670 h1        1 KX1      0.029950
     46 H20A        3.6070    2.2540    7.4280 h1        1 KX1      0.029950
     47 H21         2.8240    4.5160    7.9240 hc        1 KX1      0.046950
     48 H21A        2.9970    3.5950    9.4740 hc        1 KX1      0.046950
     49 H22         0.5640    3.2010    9.5800 hc        1 KX1      0.040700
     50 H22A        0.8620    4.9690    9.3450 hc        1 KX1      0.040700
     51 H23         0.4010    4.7950    6.9330 hc        1 KX1      0.046950
     52 H23A       -0.9720    4.0430    7.8440 hc        1 KX1      0.046950
     53 H24        -0.2180    2.7070    5.8400 h1        1 KX1      0.029950
     54 H24A       -0.2040    1.7970    7.4180 h1        1 KX1      0.029950
@<TRIPOS>BOND
     1    1    2 ar  
     2    1    6 ar  
     3    2    3 ar  
     4    2   10 1   
     5    3    4 ar  
     6    3   25 1   
     7    4    5 ar  
     8    4    7 1   
     9    5    6 ar  
    10    6   17 1   
    11    7    8 1   
    12    7   26 1   
    13    7   27 1   
    14    8    9 1   
    15    8   28 1   
    16    8   29 1   
    17    9   18 1   
    18    9   30 1   
    19    9   31 1   
    20   10   11 1   
    21   10   13 1   
    22   10   32 1   
    23   11   12 1   
    24   11   33 1   
    25   11   34 1   
    26   12   14 1   
    27   12   35 1   
    28   12   36 1   
    29   13   15 1   
    30   13   37 1   
    31   13   38 1   
    32   14   16 1   
    33   14   39 1   
    34   14   40 1   
    35   15   16 1   
    36   15   41 1   
    37   15   42 1   
    38   16   43 1   
    39   16   44 1   
    40   17   19 3   
    41   18   20 1   
    42   18   24 1   
    43   20   21 1   
    44   20   45 1   
    45   20   46 1   
    46   21   22 1   
    47   21   47 1   
    48   21   48 1   
    49   22   23 1   
    50   22   49 1   
    51   22   50 1   
    52   23   24 1   
    53   23   51 1   
    54   23   52 1   
    55   24   53 1   
    56   24   54 1   
@<TRIPOS>SUBSTRUCTURE
     1 KX1         1 TEMP              0 ****  ****    0 ROOT
