@<TRIPOS>MOLECULE
KXA
   48    43     1     0     0
SMALL
bcc


@<TRIPOS>ATOM
      1 C01         1.7740   -0.3850   -5.3710 c1        1 KXA     -0.132000
      2 C02         3.0920    0.0390   -5.3430 c1        1 KXA     -0.132000
      3 C03        -3.4060    1.0640    0.7860 c1        1 KXA     -0.132000
      4 C04         1.0790   -0.5780   -4.1790 c1        1 KXA     -0.132000
      5 C05         3.7210    0.2720   -4.1280 c1        1 KXA     -0.132000
      6 C06        -4.1850    2.2170    0.7880 c1        1 KXA     -0.132000
      7 C07        -2.3860    3.4320    1.8240 c1        1 KXA     -0.122000
      8 C08        -2.1140    1.0960    1.3040 c1        1 KXA     -0.046000
      9 C09        -1.2330   -0.1820    1.2690 c2        1 KXA      0.013000
     10 C10        -0.3000   -0.4960    0.2920 c1        1 KXA     -0.117000
     11 C11        -1.3430   -0.9710    2.3920 c2        1 KXA     -0.134000
     12 C12         1.7080   -0.3440   -2.9610 c1        1 KXA      0.070000
     13 C13         3.0240    0.0790   -2.9340 c1        1 KXA      0.040000
     14 C14        -3.6740    3.4000    1.3070 c1        1 KXA     -0.048000
     15 C15        -1.6040    2.2760    1.8220 c1        1 KXA     -0.041000
     16 C16         0.5200   -1.6020    0.4480 c1        1 KXA     -0.062000
     17 C17        -0.5150   -2.0850    2.5450 c1        1 KXA     -0.013000
     18 C18         1.3280   -1.7780   -0.8470 c2        1 KXA      0.364000
     19 C19        -0.0230    0.1030   -1.0920 c3        1 KXA      0.025000
     20 C20         0.0030   -3.2700    3.3800 c2        1 KXA     -0.175000
     21 C21         4.5020    1.3050   -1.5600 c3        1 KXA     -0.073000
     22 C22        -1.8940   -0.7570    3.7870 c3        1 KXA     -0.051000
     23 N23         0.4080   -2.3940    1.5770 n2        1 KXA     -0.063000
     24 N24         1.0240   -0.6710   -1.7120 n         1 KXA     -0.286000
     25 N25        -3.0010   -1.6330    4.0020 n3        1 KXA     -0.329000
     26 O26         2.0330   -2.7190   -1.1210 o         1 KXA     -0.297000
     27 O27         3.5920    0.2300   -1.6570 os        1 KXA     -0.229000
     28 CL1        -4.6520    4.8520    1.3030 cl        1 KXA      0.003000
     29 CL2        -0.2120    2.7280    2.7560 cl        1 KXA      0.010000
     30 H01         1.3320   -0.5500   -6.2260 ha        1 KXA      0.147167
     31 H02         3.5820    0.1740   -6.1820 ha        1 KXA      0.147167
     32 H03        -3.7660    0.2330    0.4210 ha        1 KXA      0.147167
     33 H04         0.1520   -0.8760   -4.1980 ha        1 KXA      0.147167
     34 H05         4.6520    0.5710   -4.1090 ha        1 KXA      0.147167
     35 H06        -5.0990    2.1950    0.4210 ha        1 KXA      0.147167
     36 H07        -2.0270    4.2640    2.1900 ha        1 KXA      0.166000
     37 H19        -0.8400    0.0610   -1.6430 h1        1 KXA      0.126000
     38 H19A        0.2670    1.0390   -0.9980 h1        1 KXA      0.126000
     39 H20         0.7570   -2.9750    3.9350 ha        1 KXA      0.098667
     40 H20A        0.2990   -3.9860    2.7820 ha        1 KXA      0.098667
     41 H20B       -0.7160   -3.6020    3.9570 ha        1 KXA      0.098667
     42 H21         4.7100    1.4750   -0.6120 h1        1 KXA      0.084333
     43 H21A        4.1030    2.1060   -1.9540 h1        1 KXA      0.084333
     44 H21B        5.3270    1.0810   -2.0400 h1        1 KXA      0.084333
     45 H22        -2.1890    0.1700    3.8810 h1        1 KXA      0.108000
     46 H22A       -1.1920   -0.9470    4.4480 h1        1 KXA      0.108000
     47 HN25       -2.8570   -2.4190    3.5650 hn        1 KXA      0.144000
     48 HN2A       -3.7650   -1.2420    3.6840 hn        1 KXA      0.144000
@<TRIPOS>BOND
     1    1    4 1   
     2    1   30 1   
     3    2    5 1   
     4    2   31 1   
     5    3    6 1   
     6    3   32 1   
     7    4   33 1   
     8    5   34 1   
     9    6   35 1   
    10    7   14 1   
    11    7   36 1   
    12    8    9 1   
    13    8   15 1   
    14    9   10 1   
    15    9   11 1   
    16   10   19 1   
    17   11   17 1   
    18   11   22 1   
    19   12   13 1   
    20   12   24 1   
    21   13   27 1   
    22   14   28 1   
    23   15   29 1   
    24   16   18 1   
    25   16   23 1   
    26   17   23 1   
    27   18   24 1   
    28   18   26 1   
    29   19   24 1   
    30   19   37 1   
    31   19   38 1   
    32   20   39 1   
    33   20   40 1   
    34   20   41 1   
    35   21   27 1   
    36   21   42 1   
    37   21   43 1   
    38   21   44 1   
    39   22   25 1   
    40   22   45 1   
    41   22   46 1   
    42   25   47 1   
    43   25   48 1   
@<TRIPOS>SUBSTRUCTURE
     1 KXA         1 TEMP              0 ****  ****    0 ROOT
