@<TRIPOS>MOLECULE
KXA
   49    50     1     0     0
SMALL
bcc


@<TRIPOS>ATOM
      1 C01         0.5180   -1.8960   -0.2990 c1        1 KXA     -0.102000
      2 C02         0.8580   -0.8560    0.1990 c1        1 KXA     -0.192000
      3 C03        -2.2950    3.4550    6.2280 ca        1 KXA     -0.134000
      4 C04        -0.3390   -1.7750    2.0020 c1        1 KXA      0.027000
      5 C05         1.2190    0.3880    0.8170 c3        1 KXA     -0.009000
      6 C06        -1.9590    4.8010    6.3100 ca        1 KXA     -0.113000
      7 C07        -0.6110    4.3330    8.2740 ca        1 KXA     -0.112000
      8 C08        -1.8130    2.5250    7.1660 ca        1 KXA     -0.112000
      9 C09        -2.1610    1.1130    6.9930 c2        1 KXA     -0.093000
     10 C10        -1.7400    0.3980    5.9360 c2        1 KXA     -0.062000
     11 C11        -2.9130    0.4010    8.0800 c3        1 KXA     -0.139000
     12 C12        -0.0890   -0.5410    2.7470 c2        1 KXA      0.034000
     13 C13         0.5910    0.4940    2.1620 c2        1 KXA     -0.240000
     14 C14        -1.1190    5.2440    7.3420 ca        1 KXA     -0.036000
     15 C15        -0.9550    2.9800    8.1810 ca        1 KXA     -0.047000
     16 C16        -2.1040   -1.0360    5.8060 c2        1 KXA     -0.030000
     17 C17        -3.5200   -0.9960    7.6880 c3        1 KXA     -0.041000
     18 C18        -1.3990   -1.5540    4.5670 c2        1 KXA      0.349000
     19 C19        -0.8690    0.7660    4.7650 c3        1 KXA      0.017000
     20 C20        -5.0320   -0.8920    7.4680 c3        1 KXA     -0.238000
     21 C22        -3.9900    1.1980    8.7410 c2        1 KXA      0.181000
     22 N23        -2.8900   -1.6900    6.5820 n2        1 KXA     -0.053000
     23 N24        -0.6790   -0.4770    4.0200 n         1 KXA     -0.272000
     24 N25        -4.5290    2.2950    8.2870 n3        1 KXA     -0.168000
     25 O27         0.6630    1.7420    2.8360 os        1 KXA     -0.047000
     26 CL1        -0.7060    6.8760    7.4520 cl        1 KXA      0.057000
     27 CL2        -0.2780    1.9100    9.3140 cl        1 KXA      0.017000
     28 H01         0.3100   -2.6380    2.2020 ha        1 KXA      0.099000
     29 H02         2.3410    0.4600    0.9140 hc        1 KXA      0.119000
     30 H03        -2.9160    3.1030    5.3870 ha        1 KXA      0.150000
     31 H04         0.2160   -2.8100   -0.7530 ha        1 KXA      0.245000
     32 H05         0.8790    1.2470    0.1700 hc        1 KXA      0.119000
     33 H06        -2.3340    5.5130    5.5550 ha        1 KXA      0.175000
     34 H07         0.0730    4.6760    9.0690 ha        1 KXA      0.184000
     35 H19        -1.3550    1.5510    4.1180 h1        1 KXA      0.143000
     36 H19A        0.1320    1.1610    5.1050 h1        1 KXA      0.143000
     37 H20        -3.3440   -1.6760    8.5800 h1        1 KXA      0.150000
     38 H20A       -5.4400   -1.8690    7.0990 hc        1 KXA      0.102333
     39 H20B       -5.5430   -0.6630    8.4340 hc        1 KXA      0.102333
     40 H21         3.2080    2.4930    4.0470 ha        1 KXA      0.004500
     41 H21A        3.4780    2.0740    3.5870 ha        1 KXA      0.004500
     42 H21B        2.0780    2.6630    1.6100 ha        1 KXA      0.044000
     43 H22        -2.1470    0.1950    8.9000 hc        1 KXA      0.180000
     44 H22A       -4.3530    0.7980    9.7220 h4        1 KXA      0.202000
     45 HN25       -5.2800   -0.1100    6.7120 hc        1 KXA      0.102333
     46 HN2A       -5.2450    2.7840    8.7970 hn        1 KXA      0.286500
     47 H253       -4.2300    2.7160    7.4190 hn        1 KXA      0.286500
     48 O26        -1.4180   -2.6960    4.1050 o         1 KXA     -0.249000
     49 C21         1.4110    2.7160    2.4950 c1        1 KXA     -0.037000
@<TRIPOS>BOND
     1    1    2 1   
     2    1   31 1   
     3    2    5 1   
     4    3    6 1   
     5    3    8 1   
     6    3   30 1   
     7    4   12 1   
     8    4   28 1   
     9    5   13 1   
    10    5   29 1   
    11    5   32 1   
    12    6   14 1   
    13    6   33 1   
    14    7   14 1   
    15    7   15 1   
    16    7   34 1   
    17    8    9 1   
    18    8   15 1   
    19    9   10 1   
    20    9   11 1   
    21   10   16 1   
    22   10   19 1   
    23   11   17 1   
    24   11   21 1   
    25   11   43 1   
    26   12   13 1   
    27   12   23 1   
    28   13   25 1   
    29   14   26 1   
    30   15   27 1   
    31   16   18 1   
    32   16   22 1   
    33   17   20 1   
    34   17   22 1   
    35   17   37 1   
    36   18   23 1   
    37   18   48 1   
    38   19   23 1   
    39   19   35 1   
    40   19   36 1   
    41   20   38 1   
    42   20   39 1   
    43   20   45 1   
    44   21   24 1   
    45   21   44 1   
    46   24   46 1   
    47   24   47 1   
    48   25   49 1   
    49   40   41 1   
    50   42   49 1   
@<TRIPOS>SUBSTRUCTURE
     1 KXA         1 TEMP              0 ****  ****    0 ROOT
