@<TRIPOS>MOLECULE
KXA
   49    50     1     0     0
SMALL
bcc


@<TRIPOS>ATOM
      1 C01         1.4510   -1.3710    0.6020 c2        1 KXA     -0.073000
      2 C02         1.4520   -0.1790    0.0140 c1        1 KXA     -0.104000
      3 C03        -2.8210    3.5180    5.9150 ca        1 KXA     -0.109000
      4 C04         0.3550   -1.4640    1.5680 c2        1 KXA     -0.153000
      5 C05         0.9230    1.0020    0.2690 c2        1 KXA     -0.182000
      6 C06        -2.5210    4.8750    5.9810 ca        1 KXA     -0.126000
      7 C07        -0.5900    4.3770    7.3670 ca        1 KXA     -0.119000
      8 C08        -2.0210    2.5730    6.5750 ca        1 KXA     -0.147000
      9 C09        -2.3190    1.1460    6.4200 c2        1 KXA      0.098000
     10 C10        -1.8630    0.4680    5.3050 c2        1 KXA     -0.132000
     11 C11        -3.0610    0.3900    7.3810 c2        1 KXA     -0.232000
     12 C12        -0.0450   -0.2970    2.1740 c2        1 KXA      0.018000
     13 C13         0.4330    1.0890    1.6890 c3        1 KXA     -0.036000
     14 C14        -1.4020    5.3050    6.7060 ca        1 KXA     -0.033000
     15 C15        -0.9010    3.0150    7.3030 ca        1 KXA     -0.047000
     16 C16        -2.1500   -0.9270    5.1630 c2        1 KXA      0.034000
     17 C17        -3.2990   -1.0040    7.1450 c2        1 KXA      0.103000
     18 C18        -1.5150   -1.4100    3.8650 c2        1 KXA      0.347000
     19 C19        -1.0510    0.9150    4.1170 c3        1 KXA      0.007000
     20 C20        -4.0850   -1.8180    8.1240 c3        1 KXA     -0.215000
     21 C22        -3.5650    0.9510    8.6060 c2        1 KXA      0.208000
     22 N23        -2.8430   -1.6540    6.0380 n2        1 KXA     -0.068000
     23 N24        -0.9140   -0.2810    3.2760 n         1 KXA     -0.269000
     24 N25        -3.6980    2.2220    8.9080 n8        1 KXA     -0.207000
     25 O27         1.3760    1.6210    2.6870 os        1 KXA     -0.093000
     26 Cl1        -1.0260    6.9480    6.7790 cl        1 KXA      0.061000
     27 Cl2         0.0990    1.9090    8.1070 cl        1 KXA      0.036000
     28 H01        -0.0170   -2.4610    1.8480 ha        1 KXA      0.184000
     29 H02         0.6800    1.8000   -0.4370 ha        1 KXA      0.174000
     30 H03        -3.6850    3.1800    5.3190 ha        1 KXA      0.159000
     31 H04         2.1850   -2.1770    0.5120 ha        1 KXA      0.182000
     32 H05        -0.4190    1.8250    1.7030 h1        1 KXA      0.137000
     33 H06        -3.1540    5.6060    5.4500 ha        1 KXA      0.177000
     34 H07         0.3030    4.7140    7.9240 ha        1 KXA      0.188000
     35 H19        -1.5890    1.7240    3.5460 h1        1 KXA      0.142500
     36 H19A       -0.0380    1.3030    4.4350 h1        1 KXA      0.142500
     37 H20        -4.2670   -2.8600    7.7480 hc        1 KXA      0.124000
     38 H20A       -5.0820   -1.3450    8.3060 hc        1 KXA      0.124000
     39 H20B       -3.5200   -1.9020    9.0870 hc        1 KXA      0.124000
     40 H21         2.1250    2.0890    4.9670 ha        1 KXA      0.001000
     41 H21A        1.7380    2.0770    5.5250 ha        1 KXA      0.001000
     42 H21B        3.1190    1.4670    1.5560 ha        1 KXA      0.066000
     43 H22        -4.8890    1.0940   11.9920 ha        1 KXA      0.001000
     44 H22A       -4.6570    1.0790   11.3550 ha        1 KXA      0.001000
     45 HN25       -3.8950    0.2280    9.3990 h4        1 KXA      0.198000
     46 HN2A       -4.0500    2.4970    9.8080 hn        1 KXA      0.280000
     47 H253       -3.4380    2.9620    8.2790 hn        1 KXA      0.280000
     48 O26        -1.5580   -2.5580    3.4290 o         1 KXA     -0.242000
     49 C21         2.6220    1.7570    2.5050 c1        1 KXA     -0.010000
@<TRIPOS>BOND
     1    1    2 1   
     2    1    4 1   
     3    1   31 1   
     4    2    5 1   
     5    3    6 1   
     6    3    8 1   
     7    3   30 1   
     8    4   12 1   
     9    4   28 1   
    10    5   13 1   
    11    5   29 1   
    12    6   14 1   
    13    6   33 1   
    14    7   14 1   
    15    7   15 1   
    16    7   34 1   
    17    8    9 1   
    18    8   15 1   
    19    9   10 1   
    20    9   11 1   
    21   10   16 1   
    22   10   19 1   
    23   11   17 1   
    24   11   21 1   
    25   12   13 1   
    26   12   23 1   
    27   13   25 1   
    28   13   32 1   
    29   14   26 1   
    30   15   27 1   
    31   16   18 1   
    32   16   22 1   
    33   17   20 1   
    34   17   22 1   
    35   18   23 1   
    36   18   48 1   
    37   19   23 1   
    38   19   35 1   
    39   19   36 1   
    40   20   37 1   
    41   20   38 1   
    42   20   39 1   
    43   21   24 1   
    44   21   45 1   
    45   24   46 1   
    46   24   47 1   
    47   25   49 1   
    48   40   41 1   
    49   42   49 1   
    50   43   44 1   
@<TRIPOS>SUBSTRUCTURE
     1 KXA         1 TEMP              0 ****  ****    0 ROOT
