@<TRIPOS>MOLECULE
KXA
   49    50     1     0     0
SMALL
bcc


@<TRIPOS>ATOM
      1 C01        -1.3390   -0.4030    0.5220 c1        1 KXA     -0.037000
      2 C02        -1.4010   -1.7370    0.9680 c2        1 KXA     -0.546000
      3 C03        -2.8150    3.9620    6.0000 ca        1 KXA     -0.080000
      4 C04        -0.5990    0.6480    1.1950 c3        1 KXA     -0.143000
      5 C05        -2.0640   -2.6780    0.3020 c1        1 KXA      0.397000
      6 C06        -2.9550    5.3450    6.0080 ca        1 KXA     -0.120000
      7 C07        -1.2900    5.4970    7.7690 ca        1 KXA     -0.117000
      8 C08        -1.9320    3.3210    6.8860 ca        1 KXA     -0.135000
      9 C09        -1.8460    1.8670    6.8540 c2        1 KXA      0.147000
     10 C10        -1.4300    1.1530    5.7670 c2        1 KXA     -0.198000
     11 C11        -2.2830    1.1100    8.0570 c3        1 KXA     -0.240000
     12 C12         0.0870    0.3550    2.5040 c2        1 KXA     -0.117000
     13 C13         1.4310    0.1450    2.5230 c2        1 KXA      0.002000
     14 C14        -2.1920    6.1150    6.8960 ca        1 KXA     -0.020000
     15 C15        -1.1630    4.1050    7.7630 ca        1 KXA     -0.026000
     16 C16        -1.4070   -0.2920    5.8230 c2        1 KXA      0.158000
     17 C17        -2.1540   -0.3740    7.9850 c2        1 KXA      0.234000
     18 C18        -0.9000   -0.7990    4.4650 c2        1 KXA      0.335000
     19 C19        -0.9360    1.5810    4.4080 c3        1 KXA      0.010000
     20 C20        -2.5090   -1.1320    9.2090 c3        1 KXA     -0.237000
     21 C22        -5.9480   -0.1620    6.7650 c2        1 KXA     -0.072000
     22 N23        -1.7340   -1.0370    6.8840 n2        1 KXA     -0.137000
     23 N24        -0.7370    0.3340    3.6580 n         1 KXA     -0.239000
     24 N25        -4.7540   -0.6000    6.7960 n2        1 KXA     -0.324000
     25 O27         2.0830   -0.0750    3.7120 os        1 KXA     -0.231000
     26 CL1        -2.3550    7.7940    6.9110 cl        1 KXA      0.058000
     27 CL2        -0.0260    3.4000    8.8100 cl        1 KXA      0.015000
     28 H01        -1.3220    1.5070    1.3270 hc        1 KXA      0.143000
     29 H02        -0.8880   -2.0570    1.9090 ha        1 KXA      0.193000
     30 H03        -3.4120    3.3600    5.2960 ha        1 KXA      0.152000
     31 H04         0.1720    1.0030    0.4470 hc        1 KXA      0.143000
     32 H05         2.0370    0.1440    1.6020 h4        1 KXA      0.164000
     33 H06        -3.6610    5.8320    5.3140 ha        1 KXA      0.175000
     34 H07        -0.6770    6.1050    8.4580 ha        1 KXA      0.185000
     35 H19        -1.7010    2.2090    3.8730 h1        1 KXA      0.133500
     36 H19A        0.0240    2.1640    4.4940 h1        1 KXA      0.133500
     37 H20        -1.6440   -1.7660    9.5440 hc        1 KXA      0.148333
     38 H20A       -3.3630   -1.8310    8.9910 hc        1 KXA      0.148333
     39 H20B       -2.8050   -0.4440   10.0390 hc        1 KXA      0.148333
     40 H21         3.8030   -0.5900    4.6210 h1        1 KXA      0.096667
     41 H21A        3.5080   -1.4480    3.0200 h1        1 KXA      0.096667
     42 H21B        4.0300    0.3140    3.0330 h1        1 KXA      0.096667
     43 H22        -1.7390    1.4920    8.9760 hc        1 KXA      0.215000
     44 H22A       -3.3830    1.3460    8.2420 hc        1 KXA      0.215000
     45 HN25       -6.8270   -0.6600    6.3100 h4        1 KXA      0.122000
     46 HN2A       -6.1650    0.8180    7.2340 h4        1 KXA      0.122000
     47 H253       -4.5950   -1.4880    6.3660 hn        1 KXA      0.156000
     48 O26        -0.7600   -1.9840    4.1660 o         1 KXA     -0.243000
     49 C21         3.4490   -0.4770    3.5660 c3        1 KXA     -0.078000
@<TRIPOS>BOND
     1    1    2 1   
     2    1    4 1   
     3    2    5 1   
     4    2   29 1   
     5    3    6 1   
     6    3    8 1   
     7    3   30 1   
     8    4   12 1   
     9    4   28 1   
    10    4   31 1   
    11    6   14 1   
    12    6   33 1   
    13    7   14 1   
    14    7   15 1   
    15    7   34 1   
    16    8    9 1   
    17    8   15 1   
    18    9   10 1   
    19    9   11 1   
    20   10   16 1   
    21   10   19 1   
    22   11   17 1   
    23   11   43 1   
    24   11   44 1   
    25   12   13 1   
    26   12   23 1   
    27   13   25 1   
    28   13   32 1   
    29   14   26 1   
    30   15   27 1   
    31   16   18 1   
    32   16   22 1   
    33   17   20 1   
    34   17   22 1   
    35   18   23 1   
    36   18   48 1   
    37   19   23 1   
    38   19   35 1   
    39   19   36 1   
    40   20   37 1   
    41   20   38 1   
    42   20   39 1   
    43   21   24 1   
    44   21   45 1   
    45   21   46 1   
    46   24   47 1   
    47   25   49 1   
    48   40   49 1   
    49   41   49 1   
    50   42   49 1   
@<TRIPOS>SUBSTRUCTURE
     1 KXA         1 TEMP              0 ****  ****    0 ROOT
