@<TRIPOS>MOLECULE
KXA
   48    51     1     0     0
SMALL
bcc


@<TRIPOS>ATOM
      1 C01         5.9470   -0.5520    1.4220 ca        1 KXA     -0.134000
      2 C02         6.0330   -1.8210    0.8600 ca        1 KXA     -0.121000
      3 C03        -2.6170   -0.5630    0.8500 ca        1 KXA     -0.076000
      4 C04         4.8070    0.2260    1.2420 ca        1 KXA     -0.133000
      5 C05         4.9710   -2.3160    0.1070 ca        1 KXA     -0.180000
      6 C06        -3.3760   -1.7100    0.6360 ca        1 KXA     -0.129000
      7 C07        -2.7280   -1.6970   -1.7040 ca        1 KXA     -0.130000
      8 C08        -1.8980    0.0290   -0.1980 cp        1 KXA     -0.049000
      9 C09        -1.0870    1.2210    0.0720 cp        1 KXA      0.029000
     10 C10         0.2950    1.1430    0.1780 ca        1 KXA     -0.188600
     11 C11        -1.6740    2.4940    0.2540 ca        1 KXA     -0.158600
     12 C12         3.7140   -0.2370    0.4770 ca        1 KXA      0.062600
     13 C13         3.8250   -1.5420   -0.0930 ca        1 KXA      0.086100
     14 C14        -3.4260   -2.2760   -0.6420 ca        1 KXA      0.030400
     15 C15        -1.9670   -0.5460   -1.4780 ca        1 KXA      0.035400
     16 C16         1.0380    2.3280    0.4560 ca        1 KXA      0.354800
     17 C17        -0.8520    3.6170    0.5220 ca        1 KXA      0.402600
     18 C18         2.5020    1.9580    0.5360 c         1 KXA      0.617000
     19 C19         1.2540   -0.0090    0.0390 c3        1 KXA      0.147300
     20 C20        -1.4750    4.9670    0.6900 c3        1 KXA     -0.149400
     21 C21         2.9580   -3.1600   -1.6180 c3        1 KXA      0.116700
     22 C22        -3.1650    2.6490    0.1540 c3        1 KXA      0.198100
     23 N23         0.5070    3.5410    0.6240 nb        1 KXA     -0.590000
     24 N24         2.5800    0.5700    0.2900 n         1 KXA     -0.382000
     25 N25        -3.8330    2.4940    1.4270 n3        1 KXA     -0.913800
     26 O27         2.7350   -2.0090   -0.8120 os        1 KXA     -0.343900
     27 CL1        -4.3480   -3.6770   -0.9110 cl        1 KXA     -0.081400
     28 CL2        -1.1360    0.1410   -2.7920 cl        1 KXA     -0.076400
     29 H01         6.7820   -0.1530    2.0170 ha        1 KXA      0.138000
     30 H02         6.9330   -2.4360    1.0050 ha        1 KXA      0.135000
     31 H03        -2.5920   -0.1000    1.8500 ha        1 KXA      0.163000
     32 H04         4.7750    1.2300    1.6990 ha        1 KXA      0.168000
     33 H05         5.0450   -3.3220   -0.3300 ha        1 KXA      0.138000
     34 H06        -3.9340   -2.1640    1.4700 ha        1 KXA      0.155000
     35 H07        -2.7760   -2.1410   -2.7110 ha        1 KXA      0.163000
     36 H19         1.0380   -0.8320    0.7720 h1        1 KXA      0.087200
     37 H19A        1.2110   -0.4300   -1.0060 h1        1 KXA      0.087200
     38 H20        -2.2870    4.9200    1.4560 hc        1 KXA      0.056033
     39 H20A       -0.7300    5.7360    1.0160 hc        1 KXA      0.056033
     40 H20B       -1.9130    5.2970   -0.2850 hc        1 KXA      0.056033
     41 H21         3.8410   -3.0200   -2.2860 h1        1 KXA      0.044700
     42 H21A        3.0890   -4.0650   -0.9760 h1        1 KXA      0.044700
     43 H21B        2.0160   -3.2410   -2.2190 h1        1 KXA      0.044700
     44 H22        -3.3860    3.6450   -0.3380 h1        1 KXA      0.043200
     45 H22A       -3.5730    1.8510   -0.5340 h1        1 KXA      0.043200
     46 HN25       -3.4430    3.1040    2.1180 hn        1 KXA      0.353800
     47 HN2A       -4.8090    2.6870    1.3280 hn        1 KXA      0.353800
     48 O26         3.4470    2.7210    0.7550 o         1 KXA     -0.574500
@<TRIPOS>BOND
     1    1    2 ar  
     2    1    4 ar  
     3    1   29 1   
     4    2    5 ar  
     5    2   30 1   
     6    3    6 ar  
     7    3    8 ar  
     8    3   31 1   
     9    4   12 ar  
    10    4   32 1   
    11    5   13 ar  
    12    5   33 1   
    13    6   14 ar  
    14    6   34 1   
    15    7   14 ar  
    16    7   15 ar  
    17    7   35 1   
    18    8    9 1   
    19    8   15 ar  
    20    9   10 ar  
    21    9   11 ar  
    22   10   16 ar  
    23   10   19 1   
    24   11   17 ar  
    25   11   22 1   
    26   12   13 ar  
    27   12   24 1   
    28   13   26 1   
    29   14   27 1   
    30   15   28 1   
    31   16   18 1   
    32   16   23 ar  
    33   17   20 1   
    34   17   23 ar  
    35   18   24 1   
    36   18   48 2   
    37   19   24 1   
    38   19   36 1   
    39   19   37 1   
    40   20   38 1   
    41   20   39 1   
    42   20   40 1   
    43   21   26 1   
    44   21   41 1   
    45   21   42 1   
    46   21   43 1   
    47   22   25 1   
    48   22   44 1   
    49   22   45 1   
    50   25   46 1   
    51   25   47 1   
@<TRIPOS>SUBSTRUCTURE
     1 KXA         1 TEMP              0 ****  ****    0 ROOT
