@<TRIPOS>MOLECULE
KXB
   44    41     1     0     0
SMALL
bcc


@<TRIPOS>ATOM
      1 C01         2.5460    2.1150   -0.0360 c1        1 KXB      0.065500
      2 C02         3.9310    2.2590   -0.0600 c1        1 KXB     -0.087500
      3 C03         4.1530    0.3460    1.3870 c1        1 KXB     -0.087500
      4 C04         1.9650    1.0860    0.6990 cg        1 KXB     -0.182300
      5 C05         0.4400    0.9910    0.8100 ce        1 KXB      0.001200
      6 C06        -0.3070   -0.0210    0.2330 ce        1 KXB     -0.171300
      7 C07        -0.1330    1.8190    1.7410 c1        1 KXB      0.013200
      8 C08         4.7330    1.3760    0.6510 c1        1 KXB      0.043900
      9 C09         2.7690    0.2020    1.4110 c1        1 KXB      0.043900
     10 C10        -1.6270   -0.1960    0.5950 c1        1 KXB      0.221500
     11 C11        -1.4670    1.6410    2.1050 ce        1 KXB      0.078300
     12 C12        -2.1680   -1.4080   -0.1690 c1        1 KXB      0.583500
     13 C13         0.0410   -1.0890   -0.8050 c3        1 KXB      0.070500
     14 C14        -2.7120    2.1370    2.8310 c3        1 KXB     -0.052900
     15 C15        -2.2920   -4.0940   -5.0210 c3        1 KXB      0.117700
     16 C16         0.5160    2.7420    2.7780 c2        1 KXB      0.272100
     17 C17        -1.1150   -3.2100   -1.6600 c3        1 KXB      0.041300
     18 C18        -2.0160   -3.0950   -2.8890 c3        1 KXB      0.094400
     19 N19        -2.2040    0.6410    1.5340 ne        1 KXB     -0.432000
     20 N20        -1.0960   -1.9490   -0.9570 n3        1 KXB     -0.294400
     21 N21        -0.2670    3.9360    2.9120 nh        1 KXB     -0.504100
     22 O22        -3.2900   -1.8740   -0.0700 o         1 KXB     -0.536500
     23 O23        -1.8940   -4.2650   -3.6740 os        1 KXB     -0.420600
     24 CL1         6.4700    1.5410    0.6000 cl        1 KXB     -0.082900
     25 CL2         3.5670   -0.7650    0.1900 cl        1 KXB     -0.082900
     26 H01         1.9800    2.7390   -0.5380 ha        1 KXB      0.086500
     27 H02         4.3400    2.9840   -0.5780 ha        1 KXB      0.118500
     28 H03         4.7210   -0.2790    1.8890 ha        1 KXB      0.118500
     29 H13         0.2500   -0.6610   -1.6640 h1        1 KXB      0.081700
     30 H13A        0.8130   -1.6110   -0.4980 h1        1 KXB      0.081700
     31 H14        -3.5000    1.6610    2.4920 hc        1 KXB      0.062033
     32 H14A       -2.8190    3.1010    2.6760 hc        1 KXB      0.062033
     33 H14B       -2.6180    1.9690    3.7950 hc        1 KXB      0.062033
     34 H15        -3.1500   -3.6190   -5.0520 h1        1 KXB      0.034033
     35 H15A       -2.3900   -4.9750   -5.4490 h1        1 KXB      0.034033
     36 H15B       -1.6120   -3.5720   -5.5000 h1        1 KXB      0.034033
     37 H16         1.4210    2.9760    2.4860 h4        1 KXB     -0.051700
     38 H16A        0.5600    2.2810    3.6450 h4        1 KXB     -0.051700
     39 H17        -0.2040   -3.4420   -1.9420 h1        1 KXB      0.077200
     40 H17A       -1.4630   -3.9140   -1.0630 h1        1 KXB      0.077200
     41 H18        -1.7460   -2.3150   -3.4200 h1        1 KXB      0.032700
     42 H18A       -2.9510   -2.9890   -2.6020 h1        1 KXB      0.032700
     43 HN21        0.0990    4.6000    2.3960 hn        1 KXB      0.197200
     44 HN2A       -0.2750    4.2010    3.7910 hn        1 KXB      0.197200
@<TRIPOS>BOND
     1    1    4 3   
     2    1   26 1   
     3    2    8 3   
     4    2   27 1   
     5    3    9 3   
     6    3   28 1   
     7    4    5 1   
     8    5    6 1   
     9    5    7 2   
    10    6   10 2   
    11    6   13 1   
    12    7   11 2   
    13    8   24 1   
    14    9   25 1   
    15   10   19 2   
    16   11   14 1   
    17   11   19 1   
    18   12   20 2   
    19   12   22 2   
    20   13   20 1   
    21   13   29 1   
    22   13   30 1   
    23   14   31 1   
    24   14   32 1   
    25   14   33 1   
    26   15   23 1   
    27   15   34 1   
    28   15   35 1   
    29   15   36 1   
    30   16   21 2   
    31   16   37 1   
    32   16   38 1   
    33   17   18 1   
    34   17   20 1   
    35   17   39 1   
    36   17   40 1   
    37   18   23 1   
    38   18   41 1   
    39   18   42 1   
    40   21   43 1   
    41   21   44 1   
@<TRIPOS>SUBSTRUCTURE
     1 KXB         1 TEMP              0 ****  ****    0 ROOT
