@<TRIPOS>MOLECULE
KXB
   45    44     1     0     0
SMALL
bcc


@<TRIPOS>ATOM
      1 C01        -0.8580   -0.0740   -1.1220 c2        1 KXB     -0.098000
      2 C02         0.4170   -0.5310   -1.6570 c2        1 KXB     -0.178000
      3 C03         1.1910   -0.9610    0.5820 c1        1 KXB      0.272000
      4 C04        -1.1190   -0.2090    0.1980 c2        1 KXB     -0.042000
      5 C05        -2.3970    0.2110    0.7890 c2        1 KXB     -0.119000
      6 C06        -3.4290   -0.6340    0.9450 c2        1 KXB     -0.049000
      7 C07        -2.4600    1.6340    1.1200 c2        1 KXB      0.002000
      8 C08         1.5750    0.1430   -1.4920 c2        1 KXB     -0.078000
      9 C09        -0.0650   -0.7710    1.0390 c2        1 KXB     -0.397000
     10 C10        -4.7630   -0.3940    1.5600 c2        1 KXB     -0.045000
     11 C11        -5.4250    1.8730    1.0950 c2        1 KXB     -0.125000
     12 C12        -5.1910   -1.7800    2.0890 c2        1 KXB      0.327000
     13 C13        -3.3500   -2.1280    0.6680 c3        1 KXB     -0.015000
     14 C14        -5.2130    2.1980   -0.1910 c2        1 KXB     -0.229000
     15 C15        -4.7320   -4.7720    4.3780 c3        1 KXB     -0.089000
     16 C16        -2.0930    2.1800    2.2910 c2        1 KXB     -0.227000
     17 C18        -2.4870   -5.3000    3.8650 c2        1 KXB     -0.027000
     18 N19        -5.5590    0.6020    1.6480 n2        1 KXB     -0.059000
     19 N20        -4.4400   -2.7400    1.4080 n         1 KXB     -0.348000
     20 N21        -1.6080    1.4110    3.4240 n4        1 KXB     -0.042000
     21 O22        -6.0540   -2.0000    2.9390 o         1 KXB     -0.278000
     22 O23        -3.5310   -4.4010    3.7010 os        1 KXB     -0.270000
     23 CL1         3.0310   -0.3610   -2.1560 cl        1 KXB      0.059000
     24 CL2        -0.4280   -1.3020    2.6260 cl        1 KXB      0.024000
     25 H01        -1.5880    0.3340   -1.8390 ha        1 KXB      0.170000
     26 H02         0.3690   -1.4670   -2.2470 ha        1 KXB      0.183000
     27 H03         1.6490    1.1060   -0.9610 h4        1 KXB      0.160000
     28 H13        -2.3510   -2.5460    0.9760 h1        1 KXB      0.122000
     29 H13A       -3.4940   -2.3200   -0.4340 h1        1 KXB      0.122000
     30 H14        -5.6950    2.6510    1.8420 h4        1 KXB      0.166000
     31 H14A       -5.3020    3.2400   -0.5290 ha        1 KXB      0.136500
     32 H14B       -5.0140    1.4620   -0.9820 ha        1 KXB      0.136500
     33 H15        -5.4520   -3.9540    4.1140 h1        1 KXB      0.095333
     34 H15A       -4.5590   -4.8100    5.4810 h1        1 KXB      0.095333
     35 H15B       -5.0980   -5.7600    4.0080 h1        1 KXB      0.095333
     36 H16        -2.8320    2.3040    0.3140 ha        1 KXB      0.196000
     37 H16A       -2.1420    3.2680    2.4910 hx        1 KXB      0.200000
     38 H17        -4.3080   -3.6450    1.8050 hn        1 KXB      0.268000
     39 H17A       -0.4780   -5.7330    3.3420 ha        1 KXB      0.123500
     40 H18        -1.1790   -4.1740    2.6040 ha        1 KXB      0.123500
     41 H18A       -2.6840   -6.1700    4.5100 h4        1 KXB      0.146000
     42 HN21       -0.8180    1.8990    3.8560 hn        1 KXB      0.260000
     43 HN2A       -2.3570    1.3100    4.1170 hn        1 KXB      0.260000
     44 C17        -1.3310   -5.0520    3.2420 c2        1 KXB     -0.291000
     45 H213       -1.2900    0.4540    3.1190 hn        1 KXB      0.260000
@<TRIPOS>BOND
     1    1    2 1   
     2    1    4 1   
     3    1   25 1   
     4    2    8 1   
     5    2   26 1   
     6    3    9 1   
     7    4    5 1   
     8    4    9 1   
     9    5    6 1   
    10    5    7 1   
    11    6   10 1   
    12    6   13 1   
    13    7   16 1   
    14    7   36 1   
    15    8   23 1   
    16    8   27 1   
    17    9   24 1   
    18   10   12 1   
    19   10   18 1   
    20   11   14 1   
    21   11   18 1   
    22   11   30 1   
    23   12   19 1   
    24   12   21 1   
    25   13   19 1   
    26   13   28 1   
    27   13   29 1   
    28   14   31 1   
    29   14   32 1   
    30   15   22 1   
    31   15   33 1   
    32   15   34 1   
    33   15   35 1   
    34   16   20 1   
    35   16   37 1   
    36   17   22 1   
    37   17   41 1   
    38   17   44 1   
    39   19   38 1   
    40   20   42 1   
    41   20   43 1   
    42   20   45 1   
    43   39   44 1   
    44   40   44 1   
@<TRIPOS>SUBSTRUCTURE
     1 KXB         1 TEMP              0 ****  ****    0 ROOT
