@<TRIPOS>MOLECULE
KXB
   45    45     1     0     0
SMALL
bcc


@<TRIPOS>ATOM
      1 C01        -0.3800    0.0920   -0.3370 c2        1 KXB     -0.172000
      2 C02         1.0600    0.0890   -0.5580 c2        1 KXB     -0.211000
      3 C03         1.3830    0.1800    1.8520 c1        1 KXB      0.271000
      4 C04        -0.8790    0.2620    0.9100 c2        1 KXB     -0.025000
      5 C05        -2.3220    0.2730    1.1710 c2        1 KXB      0.024000
      6 C06        -3.0440   -0.8950    1.3200 c2        1 KXB     -0.110000
      7 C07        -3.0420    1.4960    1.2670 c2        1 KXB     -0.217000
      8 C08         1.8550   -0.9500   -0.2310 c2        1 KXB     -0.054000
      9 C09         0.0620    0.3940    2.0160 c2        1 KXB     -0.400000
     10 C10        -4.4630   -0.8090    1.5350 c2        1 KXB     -0.012000
     11 C11        -4.4400    1.4840    1.4730 c2        1 KXB      0.041000
     12 C12        -4.9900   -2.2320    1.6650 c2        1 KXB      0.344000
     13 C13        -2.6510   -2.3520    1.3020 c3        1 KXB      0.006000
     14 C14        -5.2040    2.7670    1.5680 c3        1 KXB     -0.193000
     15 C15        -5.7580   -5.6290    3.3680 c3        1 KXB     -0.084000
     16 C16        -2.2840    2.7760    1.2240 c3        1 KXB     -0.071000
     17 C18        -3.6120   -6.5560    3.7130 c2        1 KXB     -0.026000
     18 N19        -5.1540    0.3230    1.6070 n2        1 KXB     -0.052000
     19 N20        -3.9060   -3.0830    1.4260 n         1 KXB     -0.363000
     20 N21        -1.8300    3.0940   -0.1700 n4        1 KXB     -0.073000
     21 O22        -6.1510   -2.5730    1.8950 o         1 KXB     -0.270000
     22 O23        -4.3440   -5.4760    3.2410 os        1 KXB     -0.269000
     23 CL1         3.5020   -0.9730   -0.5470 cl        1 KXB      0.060000
     24 CL2        -0.5000    0.7740    3.5750 cl        1 KXB      0.055000
     25 H01        -1.0200   -0.0730   -1.2190 ha        1 KXB      0.160000
     26 H02         1.4670    0.9830   -1.0650 ha        1 KXB      0.157000
     27 H03         1.4840   -1.8800    0.2310 h4        1 KXB      0.172000
     28 H13        -1.9470   -2.5870    2.1490 h1        1 KXB      0.118500
     29 H13A       -2.1550   -2.6270    0.3300 h1        1 KXB      0.118500
     30 H14        -4.9600    3.2780    2.5330 hc        1 KXB      0.109333
     31 H14A       -6.3120    2.5940    1.5450 hc        1 KXB      0.109333
     32 H14B       -4.9400    3.4360    0.7140 hc        1 KXB      0.109333
     33 H15        -6.1710   -4.6850    2.9270 h1        1 KXB      0.092667
     34 H15A       -6.1050   -6.5210    2.7940 h1        1 KXB      0.092667
     35 H15B       -6.0410   -5.7230    4.4440 h1        1 KXB      0.092667
     36 H16        -1.3570    2.6960    1.8700 hx        1 KXB      0.160500
     37 H16A       -2.9030    3.6460    1.5900 hx        1 KXB      0.160500
     38 H17        -3.9030   -4.0200    1.7640 hn        1 KXB      0.282000
     39 H17A       -1.6620   -7.3380    3.9870 ha        1 KXB      0.123500
     40 H18        -1.7430   -5.6570    3.1940 ha        1 KXB      0.123500
     41 H18A       -4.1900   -7.3890    4.1390 h4        1 KXB      0.142000
     42 HN21       -1.2410    2.3220   -0.5170 hn        1 KXB      0.253667
     43 HN2A       -2.6390    3.1930   -0.7900 hn        1 KXB      0.253667
     44 C17        -2.2800   -6.5100    3.6240 c2        1 KXB     -0.284000
     45 H213       -1.2900    3.9630   -0.1770 hn        1 KXB      0.253667
@<TRIPOS>BOND
     1    1    2 1   
     2    1    4 1   
     3    1   25 1   
     4    2    8 1   
     5    2   26 1   
     6    3    9 1   
     7    4    5 1   
     8    4    9 1   
     9    5    6 1   
    10    5    7 1   
    11    6   10 1   
    12    6   13 1   
    13    7   11 1   
    14    7   16 1   
    15    8   23 1   
    16    8   27 1   
    17    9   24 1   
    18   10   12 1   
    19   10   18 1   
    20   11   14 1   
    21   11   18 1   
    22   12   19 1   
    23   12   21 1   
    24   13   19 1   
    25   13   28 1   
    26   13   29 1   
    27   14   30 1   
    28   14   31 1   
    29   14   32 1   
    30   15   22 1   
    31   15   33 1   
    32   15   34 1   
    33   15   35 1   
    34   16   20 1   
    35   16   36 1   
    36   16   37 1   
    37   17   22 1   
    38   17   41 1   
    39   17   44 1   
    40   19   38 1   
    41   20   42 1   
    42   20   43 1   
    43   20   45 1   
    44   39   44 1   
    45   40   44 1   
@<TRIPOS>SUBSTRUCTURE
     1 KXB         1 TEMP              0 ****  ****    0 ROOT
