@<TRIPOS>MOLECULE
KXB
   45    45     1     0     0
SMALL
bcc


@<TRIPOS>ATOM
      1 C01        -0.3170   -0.3550    0.2790 c2        1 KXB     -0.146000
      2 C02         1.1320   -0.4360    0.1510 c2        1 KXB     -0.207000
      3 C03         1.3570    0.3880    2.3950 c1        1 KXB      0.275000
      4 C04        -0.8670    0.2150    1.3790 c2        1 KXB     -0.021000
      5 C05        -2.3130    0.3840    1.5110 c2        1 KXB      0.073000
      6 C06        -3.1740   -0.6730    1.5850 c2        1 KXB     -0.200000
      7 C07        -2.8660    1.7720    1.5600 c3        1 KXB     -0.031000
      8 C08         1.8800   -1.3650    0.7800 c2        1 KXB     -0.056000
      9 C09         0.0310    0.6370    2.4470 c2        1 KXB     -0.375000
     10 C10        -4.6000   -0.4370    1.6450 c2        1 KXB      0.124000
     11 C11        -4.3770    1.8410    1.6290 c2        1 KXB      0.180000
     12 C12        -5.2890   -1.8080    1.6680 c2        1 KXB      0.327000
     13 C13        -2.9460   -2.1670    1.5860 c3        1 KXB      0.009000
     14 C14        -4.9520    3.2020    1.7060 c3        1 KXB     -0.232000
     15 C15        -5.5720   -5.9610    3.6490 c3        1 KXB     -0.075000
     16 C16        -2.2790    2.7170    0.6180 c2        1 KXB     -0.700000
     17 C18        -3.3210   -6.2380    2.9890 c2        1 KXB     -0.018000
     18 N19        -5.1860    0.7600    1.6870 n2        1 KXB     -0.137000
     19 N20        -4.2770   -2.7550    1.5460 ns        1 KXB     -0.359000
     20 N21        -1.9820    2.3760   -0.7250 nz        1 KXB      0.102000
     21 O22        -6.5000   -2.0040    1.7380 o         1 KXB     -0.237000
     22 O23        -4.3960   -5.3690    3.0980 os        1 KXB     -0.272000
     23 Cl1         3.5400   -1.4900    0.5800 cl        1 KXB      0.061000
     24 Cl2        -0.5570    1.4310    3.8330 cl        1 KXB      0.045000
     25 H01        -0.9160   -0.7590   -0.5510 ha        1 KXB      0.151000
     26 H02         1.5870    0.3010   -0.5360 ha        1 KXB      0.169000
     27 H03         1.4600   -2.1350    1.4480 h4        1 KXB      0.167000
     28 H13        -2.3650   -2.4920    0.6770 h1        1 KXB      0.124500
     29 H13A       -2.3820   -2.4860    2.5080 h1        1 KXB      0.124500
     30 H14        -6.0420    3.2270    1.4480 hc        1 KXB      0.148333
     31 H14A       -4.3740    3.8730    1.0120 hc        1 KXB      0.148333
     32 H14B       -4.8340    3.6000    2.7490 hc        1 KXB      0.148333
     33 H15        -6.3190   -5.1290    3.6490 h1        1 KXB      0.091667
     34 H15A       -5.3740   -6.3170    4.6890 h1        1 KXB      0.091667
     35 H15B       -5.9190   -6.8060    3.0060 h1        1 KXB      0.091667
     36 H16        -2.5510    2.1710    2.6020 hc        1 KXB      0.230000
     37 H16A       -1.8340    3.6450    0.9820 hx        1 KXB      0.182000
     38 H17        -4.4150   -3.7090    1.8030 hn        1 KXB      0.295000
     39 H17A       -2.1230   -4.7920    1.9700 ha        1 KXB      0.120000
     40 H18        -1.3300   -6.4460    2.2880 ha        1 KXB      0.120000
     41 H18A       -3.4550   -7.2420    3.4180 h4        1 KXB      0.148000
     42 HN21       -1.2490    1.6540   -0.7970 hn        1 KXB      0.204333
     43 HN2A       -1.6580    3.2180   -1.2060 hn        1 KXB      0.204333
     44 C17        -2.2100   -5.8010    2.3880 c2        1 KXB     -0.293000
     45 H213       -2.8140    2.0210   -1.2040 hn        1 KXB      0.204333
@<TRIPOS>BOND
     1    1    2 1   
     2    1    4 1   
     3    1   25 1   
     4    2    8 1   
     5    2   26 1   
     6    3    9 1   
     7    4    5 1   
     8    4    9 1   
     9    5    6 1   
    10    5    7 1   
    11    6   10 1   
    12    6   13 1   
    13    7   11 1   
    14    7   16 1   
    15    7   36 1   
    16    8   23 1   
    17    8   27 1   
    18    9   24 1   
    19   10   12 1   
    20   10   18 1   
    21   11   14 1   
    22   11   18 1   
    23   12   19 1   
    24   12   21 1   
    25   13   19 1   
    26   13   28 1   
    27   13   29 1   
    28   14   30 1   
    29   14   31 1   
    30   14   32 1   
    31   15   22 1   
    32   15   33 1   
    33   15   34 1   
    34   15   35 1   
    35   16   20 1   
    36   16   37 1   
    37   17   22 1   
    38   17   41 1   
    39   17   44 1   
    40   19   38 1   
    41   20   42 1   
    42   20   43 1   
    43   20   45 1   
    44   39   44 1   
    45   40   44 1   
@<TRIPOS>SUBSTRUCTURE
     1 KXB         1 TEMP              0 ****  ****    0 ROOT
