@<TRIPOS>MOLECULE
KXB
   44    46     1     0     0
SMALL
bcc


@<TRIPOS>ATOM
      1 C01        -2.2200    0.0200   -1.3390 ca        1 KXB     -0.108000
      2 C02        -3.3260    0.8630   -1.3560 ca        1 KXB     -0.127000
      3 C03        -2.8500    1.5250    0.9310 ca        1 KXB     -0.124000
      4 C04        -1.4120   -0.0860   -0.1970 cp        1 KXB     -0.043000
      5 C05        -0.2460   -0.9750   -0.2270 cp        1 KXB      0.006000
      6 C06         0.9980   -0.5180   -0.6350 ca        1 KXB     -0.189600
      7 C07        -0.3480   -2.3380    0.1360 ca        1 KXB     -0.161600
      8 C08        -3.6390    1.6140   -0.2180 ca        1 KXB      0.027400
      9 C09        -1.7390    0.6750    0.9370 ca        1 KXB      0.034400
     10 C10         2.0890   -1.4390   -0.6870 ca        1 KXB      0.361800
     11 C11         0.7870   -3.1790    0.0350 ca        1 KXB      0.425600
     12 C12         3.3110   -0.6780   -1.1550 c         1 KXB      0.610000
     13 C13         1.4830    0.8380   -1.0730 c3        1 KXB      0.131300
     14 C14         0.6630   -4.6300    0.3810 c3        1 KXB     -0.155400
     15 C15         4.5730    2.6750    1.9580 c3        1 KXB      0.114700
     16 C16        -1.6590   -2.8700    0.6400 c3        1 KXB      0.199100
     17 C18         3.8750    2.6650   -0.3000 c3        1 KXB      0.095400
     18 N19         2.0120   -2.7320   -0.3720 nb        1 KXB     -0.592000
     19 N20         2.8810    0.6370   -1.4570 n         1 KXB     -0.463800
     20 N21        -2.5300   -3.3230   -0.4220 n3        1 KXB     -0.907800
     21 O22         4.4540   -1.1080   -1.3160 o         1 KXB     -0.564500
     22 O23         4.3590    1.8950    0.7930 os        1 KXB     -0.412600
     23 CL1        -4.9870    2.6450   -0.2310 cl        1 KXB     -0.075400
     24 CL2        -0.7970    0.5870    2.3470 cl        1 KXB     -0.068400
     25 H01        -1.9670   -0.5700   -2.2350 ha        1 KXB      0.154000
     26 H02        -3.9490    0.9370   -2.2610 ha        1 KXB      0.156000
     27 H03        -3.0990    2.1180    1.8250 ha        1 KXB      0.165000
     28 H13         0.9080    1.2120   -1.9640 h1        1 KXB      0.066200
     29 H13A        1.3830    1.5830   -0.2360 h1        1 KXB      0.066200
     30 H14        -0.2220   -5.0650   -0.1460 hc        1 KXB      0.062367
     31 H14A        1.5730   -5.2100    0.0860 hc        1 KXB      0.062367
     32 H14B        0.5210   -4.7370    1.4850 hc        1 KXB      0.062367
     33 H15         4.9470    1.9420    2.7160 h1        1 KXB      0.034700
     34 H15A        5.3370    3.4680    1.7680 h1        1 KXB      0.034700
     35 H15B        3.6170    3.1420    2.3010 h1        1 KXB      0.034700
     36 H16        -1.4770   -3.7490    1.3250 h1        1 KXB      0.041700
     37 H16A       -2.1340   -2.0590    1.2760 h1        1 KXB      0.041700
     38 H17         3.4830    2.3850   -2.3960 h1        1 KXB      0.072700
     39 H17A        4.8200    1.3180   -1.7190 h1        1 KXB      0.072700
     40 H18         4.5930    3.4980   -0.5310 h1        1 KXB      0.030700
     41 H18A        2.8780    3.1080   -0.0390 h1        1 KXB      0.030700
     42 HN21       -3.4220   -3.5790   -0.0470 hn        1 KXB      0.351800
     43 HN2A       -2.6550   -2.6050   -1.1090 hn        1 KXB      0.351800
     44 C17         3.7910    1.7400   -1.5220 c3        1 KXB      0.096000
@<TRIPOS>BOND
     1    1    2 ar  
     2    1    4 ar  
     3    1   25 1   
     4    2    8 ar  
     5    2   26 1   
     6    3    8 ar  
     7    3    9 ar  
     8    3   27 1   
     9    4    5 1   
    10    4    9 ar  
    11    5    6 ar  
    12    5    7 ar  
    13    6   10 ar  
    14    6   13 1   
    15    7   11 ar  
    16    7   16 1   
    17    8   23 1   
    18    9   24 1   
    19   10   12 1   
    20   10   18 ar  
    21   11   14 1   
    22   11   18 ar  
    23   12   19 1   
    24   12   21 2   
    25   13   19 1   
    26   13   28 1   
    27   13   29 1   
    28   14   30 1   
    29   14   31 1   
    30   14   32 1   
    31   15   22 1   
    32   15   33 1   
    33   15   34 1   
    34   15   35 1   
    35   16   20 1   
    36   16   36 1   
    37   16   37 1   
    38   17   22 1   
    39   17   40 1   
    40   17   41 1   
    41   17   44 1   
    42   19   44 1   
    43   20   42 1   
    44   20   43 1   
    45   38   44 1   
    46   39   44 1   
@<TRIPOS>SUBSTRUCTURE
     1 KXB         1 TEMP              0 ****  ****    0 ROOT
