@<TRIPOS>MOLECULE
KXN
   35    37     1     0     0
SMALL
bcc


@<TRIPOS>ATOM
      1 O94        -0.0290   -0.2450    0.1430 oh        1 KXN     -0.517100
      2 C94         1.3470   -0.2150    0.0380 ca        1 KXN      0.045100
      3 C93         2.0570    0.0870    1.2200 ca        1 KXN      0.103100
      4 O93         1.4340    0.3420    2.4200 oh        1 KXN     -0.494100
      5 C92         3.4550    0.1360    1.1990 ca        1 KXN     -0.106000
      6 C95         2.0360   -0.4610   -1.1520 ca        1 KXN     -0.178000
      7 C96         3.4280   -0.4090   -1.1650 ca        1 KXN     -0.103000
      8 C91         4.1370   -0.1140    0.0030 ca        1 KXN     -0.088300
      9 C2          5.6370   -0.0700    0.0270 c3        1 KXN      0.200400
     10 O1          6.0900   -0.7500   -1.1610 os        1 KXN     -0.320900
     11 C3          6.1830    1.3690    0.0710 c3        1 KXN      0.117100
     12 O3          5.7120    1.9470    1.2810 oh        1 KXN     -0.592800
     13 C4          7.7090    1.3600    0.0610 c3        1 KXN     -0.053100
     14 C10         8.2430    0.3810   -0.9110 ca        1 KXN     -0.203300
     15 C9          7.4320   -0.6290   -1.4530 ca        1 KXN      0.191100
     16 C8          7.9230   -1.5670   -2.3740 ca        1 KXN     -0.215000
     17 C5          9.5890    0.4280   -1.3170 ca        1 KXN      0.193100
     18 O51        10.3590    1.4280   -0.7690 oh        1 KXN     -0.494100
     19 C6         10.1150   -0.4890   -2.2350 ca        1 KXN     -0.329000
     20 C7          9.2670   -1.4770   -2.7550 ca        1 KXN      0.188100
     21 O71         9.7050   -2.4130   -3.6620 oh        1 KXN     -0.490100
     22 HO94       -0.3850   -0.4790   -0.7260 ho        1 KXN      0.429000
     23 HO93        0.4770    0.2690    2.2790 ho        1 KXN      0.435000
     24 H92         4.0060    0.3950    2.1170 ha        1 KXN      0.169000
     25 H95         1.4810   -0.6960   -2.0710 ha        1 KXN      0.135000
     26 H96         3.9720   -0.6090   -2.1020 ha        1 KXN      0.152000
     27 H2          6.0250   -0.6380    0.9200 h1        1 KXN      0.075700
     28 H3          5.7870    1.9470   -0.8100 h1        1 KXN      0.056700
     29 HO3         6.0430    2.8530    1.2980 ho        1 KXN      0.408000
     30 H4          8.0900    2.3870   -0.1860 hc        1 KXN      0.066700
     31 H4A         8.0850    1.1100    1.0910 hc        1 KXN      0.066700
     32 H8          7.2690   -2.3470   -2.7860 ha        1 KXN      0.170000
     33 HO51       11.2520    1.3540   -1.1380 ho        1 KXN      0.423000
     34 H6         11.1670   -0.4350   -2.5410 ha        1 KXN      0.138000
     35 HO71       10.6440   -2.2490   -3.8320 ho        1 KXN      0.421000
@<TRIPOS>BOND
     1    1    2 1   
     2    1   22 1   
     3    2    3 ar  
     4    2    6 ar  
     5    3    4 1   
     6    3    5 ar  
     7    4   23 1   
     8    5    8 ar  
     9    5   24 1   
    10    6    7 ar  
    11    6   25 1   
    12    7    8 ar  
    13    7   26 1   
    14    8    9 1   
    15    9   10 1   
    16    9   11 1   
    17    9   27 1   
    18   10   15 1   
    19   11   12 1   
    20   11   13 1   
    21   11   28 1   
    22   12   29 1   
    23   13   14 1   
    24   13   30 1   
    25   13   31 1   
    26   14   15 ar  
    27   14   17 ar  
    28   15   16 ar  
    29   16   20 ar  
    30   16   32 1   
    31   17   18 1   
    32   17   19 ar  
    33   18   33 1   
    34   19   20 ar  
    35   19   34 1   
    36   20   21 1   
    37   21   35 1   
@<TRIPOS>SUBSTRUCTURE
     1 KXN         1 TEMP              0 ****  ****    0 ROOT
