@<TRIPOS>MOLECULE
KXN
   35    37     1     0     0
SMALL
bcc


@<TRIPOS>ATOM
      1 O94        -0.0300   -0.2210    0.1070 oh        1 KXN     -0.517100
      2 C94         1.3470   -0.2000    0.0210 ca        1 KXN      0.045100
      3 C93         2.0410    0.1490    1.2000 ca        1 KXN      0.103100
      4 O93         1.4010    0.4550    2.3780 oh        1 KXN     -0.494100
      5 C92         3.4390    0.1910    1.1970 ca        1 KXN     -0.106000
      6 C95         2.0520   -0.4980   -1.1480 ca        1 KXN     -0.178000
      7 C96         3.4450   -0.4510   -1.1430 ca        1 KXN     -0.103000
      8 C91         4.1380   -0.1110    0.0220 ca        1 KXN     -0.088300
      9 C2          5.6370   -0.0720    0.0670 c3        1 KXN      0.200400
     10 O1          6.1040   -0.8020   -1.0860 os        1 KXN     -0.320900
     11 C3          6.1880    1.3670    0.0590 c3        1 KXN      0.117100
     12 O3          5.7020    1.9950    1.2380 oh        1 KXN     -0.592800
     13 C4          7.7150    1.3510    0.0720 c3        1 KXN     -0.053100
     14 C10         8.2580    0.3310   -0.8520 ca        1 KXN     -0.203300
     15 C9          7.4500   -0.6980   -1.3630 ca        1 KXN      0.191100
     16 C8          7.9500   -1.6740   -2.2380 ca        1 KXN     -0.215000
     17 C5          9.6100    0.3570   -1.2400 ca        1 KXN      0.193100
     18 O51        10.3770    1.3750   -0.7230 oh        1 KXN     -0.494100
     19 C6         10.1450   -0.5990   -2.1120 ca        1 KXN     -0.329000
     20 C7          9.3000   -1.6050   -2.6030 ca        1 KXN      0.188100
     21 O71         9.7470   -2.5790   -3.4640 oh        1 KXN     -0.490100
     22 HO94       -0.3760   -0.4890   -0.7560 ho        1 KXN      0.429000
     23 HO93        0.4470    0.3800    2.2270 ho        1 KXN      0.435000
     24 H92         3.9780    0.4860    2.1120 ha        1 KXN      0.169000
     25 H95         1.5090   -0.7690   -2.0640 ha        1 KXN      0.135000
     26 H96         4.0010   -0.6920   -2.0620 ha        1 KXN      0.152000
     27 H2          6.0090   -0.6040    0.9880 h1        1 KXN      0.075700
     28 H3          5.8080    1.9080   -0.8500 h1        1 KXN      0.056700
     29 HO3         6.0380    2.9000    1.2220 ho        1 KXN      0.408000
     30 H4          8.1040    2.3660   -0.2120 hc        1 KXN      0.066700
     31 H4A         8.0750    1.1420    1.1170 hc        1 KXN      0.066700
     32 H8          7.3000   -2.4680   -2.6270 ha        1 KXN      0.170000
     33 HO51       11.2740    1.2830   -1.0750 ho        1 KXN      0.423000
     34 H6         11.2010   -0.5620   -2.4050 ha        1 KXN      0.138000
     35 HO71       10.6890   -2.4250   -3.6280 ho        1 KXN      0.421000
@<TRIPOS>BOND
     1    1    2 1   
     2    1   22 1   
     3    2    3 ar  
     4    2    6 ar  
     5    3    4 1   
     6    3    5 ar  
     7    4   23 1   
     8    5    8 ar  
     9    5   24 1   
    10    6    7 ar  
    11    6   25 1   
    12    7    8 ar  
    13    7   26 1   
    14    8    9 1   
    15    9   10 1   
    16    9   11 1   
    17    9   27 1   
    18   10   15 1   
    19   11   12 1   
    20   11   13 1   
    21   11   28 1   
    22   12   29 1   
    23   13   14 1   
    24   13   30 1   
    25   13   31 1   
    26   14   15 ar  
    27   14   17 ar  
    28   15   16 ar  
    29   16   20 ar  
    30   16   32 1   
    31   17   18 1   
    32   17   19 ar  
    33   18   33 1   
    34   19   20 ar  
    35   19   34 1   
    36   20   21 1   
    37   21   35 1   
@<TRIPOS>SUBSTRUCTURE
     1 KXN         1 TEMP              0 ****  ****    0 ROOT
