@<TRIPOS>MOLECULE
KXN
   35    37     1     0     0
SMALL
bcc


@<TRIPOS>ATOM
      1 O94        -5.6880    1.3130    0.7460 oh        1 KXN     -0.494100
      2 C94        -4.4050    0.9140    0.4630 ca        1 KXN      0.119100
      3 C93        -4.1120   -0.1790   -0.3830 ca        1 KXN      0.032100
      4 O93        -5.1980   -0.8410   -0.9220 oh        1 KXN     -0.519100
      5 C92        -2.7890   -0.5400   -0.6390 ca        1 KXN     -0.145000
      6 C95        -3.3570    1.6330    1.0500 ca        1 KXN     -0.143000
      7 C96        -2.0380    1.2640    0.7940 ca        1 KXN     -0.097000
      8 C91        -1.7480    0.1860   -0.0460 ca        1 KXN     -0.095300
      9 C2         -0.3400   -0.2240   -0.3570 c3        1 KXN      0.203400
     10 O1          0.5120    0.8630    0.0510 os        1 KXN     -0.318900
     11 C3          0.0730   -1.5170    0.3700 c3        1 KXN      0.121100
     12 O3         -0.7890   -2.5480   -0.0930 oh        1 KXN     -0.595800
     13 C4          1.5190   -1.8790    0.0370 c3        1 KXN     -0.059100
     14 C10         2.4020   -0.6910    0.0110 ca        1 KXN     -0.259300
     15 C9          1.8670    0.6090    0.0100 ca        1 KXN      0.194100
     16 C8          2.6780    1.7520    0.0140 ca        1 KXN     -0.214000
     17 C5          3.8040   -0.8190   -0.0130 ca        1 KXN      0.196100
     18 O51         4.4470   -2.0340   -0.0340 oh        1 KXN     -0.494100
     19 C6          4.6470    0.3000   -0.0070 ca        1 KXN     -0.274000
     20 C7          4.0680    1.5750    0.0150 ca        1 KXN      0.185100
     21 O71         4.8260    2.7210    0.0270 oh        1 KXN     -0.490100
     22 HO94       -6.2970    0.7270    0.2690 ho        1 KXN      0.437000
     23 HO93       -4.8600   -1.5730   -1.4560 ho        1 KXN      0.430000
     24 H92        -2.5600   -1.4030   -1.2830 ha        1 KXN      0.151000
     25 H95        -3.5900    2.4830    1.7080 ha        1 KXN      0.155000
     26 H96        -1.2160    1.8360    1.2540 ha        1 KXN      0.154000
     27 H2         -0.2160   -0.3690   -1.4680 h1        1 KXN      0.072700
     28 H3         -0.0500   -1.3740    1.4790 h1        1 KXN      0.061700
     29 HO3        -0.6310   -3.3110    0.4750 ho        1 KXN      0.408000
     30 H4          1.8840   -2.6170    0.8030 hc        1 KXN      0.053700
     31 H4A         1.5420   -2.3940   -0.9640 hc        1 KXN      0.053700
     32 H8          2.2360    2.7560    0.0190 ha        1 KXN      0.170000
     33 HO51        3.7850   -2.7340   -0.1290 ho        1 KXN      0.423000
     34 H6          5.7360    0.1630   -0.0180 ha        1 KXN      0.155000
     35 HO71        5.7600    2.4630    0.0200 ho        1 KXN      0.424000
@<TRIPOS>BOND
     1    1    2 1   
     2    1   22 1   
     3    2    3 ar  
     4    2    6 ar  
     5    3    4 1   
     6    3    5 ar  
     7    4   23 1   
     8    5    8 ar  
     9    5   24 1   
    10    6    7 ar  
    11    6   25 1   
    12    7    8 ar  
    13    7   26 1   
    14    8    9 1   
    15    9   10 1   
    16    9   11 1   
    17    9   27 1   
    18   10   15 1   
    19   11   12 1   
    20   11   13 1   
    21   11   28 1   
    22   12   29 1   
    23   13   14 1   
    24   13   30 1   
    25   13   31 1   
    26   14   15 ar  
    27   14   17 ar  
    28   15   16 ar  
    29   16   20 ar  
    30   16   32 1   
    31   17   18 1   
    32   17   19 ar  
    33   18   33 1   
    34   19   20 ar  
    35   19   34 1   
    36   20   21 1   
    37   21   35 1   
@<TRIPOS>SUBSTRUCTURE
     1 KXN         1 TEMP              0 ****  ****    0 ROOT
