@<TRIPOS>MOLECULE
KXO
   47    46     1     0     0
SMALL
bcc


@<TRIPOS>ATOM
      1 C4         -0.8150    0.9290   -0.3650 c2        1 KXO     -0.106000
      2 C5          0.3890    0.4280   -0.6010 c1        1 KXO     -0.169000
      3 C6          2.9010   -0.7030    3.5600 c1        1 KXO      0.120000
      4 C7         -0.3940   -0.0920    1.8600 c1        1 KXO     -0.189000
      5 C8         -5.1330    1.0850    3.1400 c3        1 KXO     -0.247000
      6 C10        -1.1030   -1.4630    5.0220 c1        1 KXO     -0.133000
      7 C13         2.2860   -1.2010   -0.3180 c2        1 KXO     -0.171000
      8 C15        -1.4630    0.1980    0.7900 c3        1 KXO     -0.155000
      9 C17        -3.8600    0.3180    3.4780 c3        1 KXO     -0.065000
     10 C1          6.2220    0.1890    4.0150 c1        1 KXO     -0.060000
     11 C2          2.7040   -1.2100   -1.5910 c2        1 KXO     -0.112000
     12 C3          5.1380   -0.2770    4.2200 c1        1 KXO     -0.222000
     13 C9         -4.0100   -1.1430    3.0600 c3        1 KXO     -0.202000
     14 C11        -2.8360   -2.0590    3.3910 c3        1 KXO     -0.131000
     15 C14         3.8650   -0.8390    4.4930 c2        1 KXO      0.009000
     16 C16         1.2110   -0.3480    0.1280 c2        1 KXO      0.049000
     17 C18        -2.5650    1.0170    1.4040 c2        1 KXO      0.289000
     18 C19        -4.0280   -1.6560    6.5670 c3        1 KXO      0.396000
     19 N20         0.8600   -0.2680    1.5430 n7        1 KXO     -0.129000
     20 N21        -2.6310    0.9760    2.9100 ny        1 KXO     -0.116000
     21 N22        -2.2820   -1.9660    4.7400 n3        1 KXO     -0.167000
     22 O23        -3.3810    1.7120    0.8170 o         1 KXO     -0.180000
     23 F24         3.6910   -1.4830    5.6760 f         1 KXO     -0.054000
     24 F25        -5.2080   -1.4520    5.8940 f         1 KXO     -0.160000
     25 F26        -4.3920   -2.1650    7.7820 f         1 KXO     -0.160000
     26 F27        -3.5650   -0.3910    6.8190 f         1 KXO     -0.160000
     27 H4         -1.9080   -0.7940    0.4760 hc        1 KXO      0.180000
     28 H5         -1.2890    1.8050   -0.8180 ha        1 KXO      0.189000
     29 H6          2.7550   -1.8510    0.4410 ha        1 KXO      0.147000
     30 H7          1.5840   -0.4380    2.2530 hn        1 KXO      0.321000
     31 H8         -5.0610    2.1530    3.4580 hc        1 KXO      0.119667
     32 H8A        -5.3560    1.0490    2.0450 hc        1 KXO      0.119667
     33 H10        -5.9830    0.6120    3.6950 hc        1 KXO      0.119667
     34 H10A       -0.5250   -1.0360    4.1720 ha        1 KXO      0.059000
     35 H17        -3.7170    0.3580    4.6070 hx        1 KXO      0.155000
     36 H1          2.2680   -0.5590   -2.3640 ha        1 KXO      0.140000
     37 H2          7.1840    0.6050    3.8300 ha        1 KXO      0.248000
     38 H3          3.5130   -1.8740   -1.9280 ha        1 KXO      0.140000
     39 H9         -4.1950   -1.2110    1.9540 hc        1 KXO      0.131000
     40 H9A        -4.9370   -1.5230    3.5760 hc        1 KXO      0.131000
     41 H11        -3.1770   -3.1200    3.2060 h1        1 KXO      0.116000
     42 H11A       -1.9930   -1.8480    2.6670 h1        1 KXO      0.116000
     43 H12        -3.6330   -3.4640    5.4090 h1        1 KXO      0.156500
     44 H12A       -2.2970   -2.9770    6.5870 h1        1 KXO      0.156500
     45 HN21       -1.7760    0.4670    3.2410 hn        1 KXO      0.275500
     46 C12        -3.0260   -2.6050    5.8080 c3        1 KXO     -0.073000
     47 H212       -2.6090    1.9420    3.2570 hn        1 KXO      0.275500
@<TRIPOS>BOND
     1    1    2 1   
     2    1    8 1   
     3    1   28 1   
     4    2   16 1   
     5    3   15 1   
     6    4    8 1   
     7    4   19 1   
     8    5    9 1   
     9    5   31 1   
    10    5   32 1   
    11    5   33 1   
    12    6   21 1   
    13    6   34 1   
    14    7   11 1   
    15    7   16 1   
    16    7   29 1   
    17    8   17 1   
    18    8   27 1   
    19    9   13 1   
    20    9   20 1   
    21    9   35 1   
    22   10   12 1   
    23   10   37 1   
    24   11   36 1   
    25   11   38 1   
    26   12   15 1   
    27   13   14 1   
    28   13   39 1   
    29   13   40 1   
    30   14   21 1   
    31   14   41 1   
    32   14   42 1   
    33   15   23 1   
    34   16   19 1   
    35   17   20 1   
    36   17   22 1   
    37   18   24 1   
    38   18   25 1   
    39   18   26 1   
    40   18   46 1   
    41   19   30 1   
    42   20   45 1   
    43   20   47 1   
    44   21   46 1   
    45   43   46 1   
    46   44   46 1   
@<TRIPOS>SUBSTRUCTURE
     1 KXO         1 TEMP              0 ****  ****    0 ROOT
