@<TRIPOS>MOLECULE
KXO
   47    46     1     0     0
SMALL
bcc


@<TRIPOS>ATOM
      1 C4         -0.7050   -1.0320    0.6860 c2        1 KXO     -0.168000
      2 C5          0.6170   -0.9120    0.7020 cv        1 KXO     -0.064000
      3 C6          5.7620    0.4070    2.0820 c1        1 KXO      0.179000
      4 C7         -0.6800    0.8260    2.4770 c1        1 KXO     -0.183000
      5 C8         -4.6960    2.0310    3.9740 c3        1 KXO     -0.248000
      6 C10        -2.8540   -3.6190    7.3160 c1        1 KXO      0.088000
      7 C13         2.5780   -0.3470    1.1650 cv        1 KXO     -0.078000
      8 C15        -1.4500   -0.2420    1.7220 c3        1 KXO     -0.126000
      9 C17        -4.4440    1.0670    2.8210 c3        1 KXO     -0.062000
     10 C1          8.7840    1.4860    0.7550 c1        1 KXO     -0.093000
     11 C2          1.9690   -1.3540    0.1630 cy        1 KXO     -0.089000
     12 C3          7.9830    1.0610    1.5350 c1        1 KXO     -0.199000
     13 C9         -5.6950    0.9380    1.9630 c3        1 KXO     -0.248000
     14 C11        -3.9570   -5.5470    6.7000 c2        1 KXO     -0.110000
     15 C14         7.0480    0.5550    2.4740 c2        1 KXO     -0.053000
     16 C16         1.3480    0.0280    1.6170 cv        1 KXO     -0.157000
     17 C18        -2.6840    0.4110    1.1510 c2        1 KXO      0.291000
     18 C19        -3.3490   -2.5260    4.5770 c3        1 KXO      0.506000
     19 N20         0.6290    0.8890    2.4510 n3        1 KXO     -0.058000
     20 N21        -3.2540    1.5160    2.0090 n4        1 KXO     -0.122000
     21 N22        -3.5380   -4.3300    6.3260 n3        1 KXO      0.082000
     22 O23        -3.2610    0.1640    0.1030 o         1 KXO     -0.187000
     23 F24         7.5020    0.2450    3.7190 f         1 KXO     -0.069000
     24 F25        -1.9920   -2.2750    4.5810 f         1 KXO     -0.195000
     25 F26        -3.7050   -2.2760    3.2700 f         1 KXO     -0.195000
     26 F27        -3.8490   -1.4260    5.2450 f         1 KXO     -0.195000
     27 H4         -1.8120   -0.9780    2.5200 hc        1 KXO      0.190000
     28 H5         -1.2850   -1.6810    0.0170 ha        1 KXO      0.174000
     29 H6          3.6150   -0.0930    1.3700 ha        1 KXO      0.209000
     30 H7          1.1200    1.5710    2.9940 hn        1 KXO      0.274000
     31 H8         -3.8020    2.1170    4.6400 hc        1 KXO      0.114333
     32 H8A        -4.9780    3.0460    3.6040 hc        1 KXO      0.114333
     33 H10        -5.5440    1.6290    4.5830 hc        1 KXO      0.114333
     34 H10A       -2.5140   -2.6100    6.9870 ha        1 KXO      0.059000
     35 H17        -4.1710    0.0490    3.2460 hx        1 KXO      0.152000
     36 H1          2.1520   -1.1030   -0.9040 hc        1 KXO      0.132500
     37 H2          9.4950    1.8630    0.0590 ha        1 KXO      0.241000
     38 H3          2.2240   -2.4160    0.3670 hc        1 KXO      0.132500
     39 H9         -5.5220    0.2660    1.0860 hc        1 KXO      0.114333
     40 H9A        -6.0390    1.9350    1.5950 hc        1 KXO      0.114333
     41 H11        -6.5070    0.4940    2.5910 hc        1 KXO      0.114333
     42 H11A       -3.7430   -5.8950    7.7240 h4        1 KXO      0.177500
     43 H12        -4.5060   -6.1860    5.9910 h4        1 KXO      0.177500
     44 H12A       -4.3320   -4.4880    4.3530 h4        1 KXO      0.193000
     45 HN21       -2.4920    1.8240    2.6560 hn        1 KXO      0.269000
     46 C12        -3.7860   -3.8610    5.0660 c2        1 KXO     -0.583000
     47 H212       -3.5380    2.2980    1.4130 hn        1 KXO      0.269000
@<TRIPOS>BOND
     1    1    2 1   
     2    1    8 1   
     3    1   28 1   
     4    2   11 1   
     5    2   16 1   
     6    3   15 1   
     7    4    8 1   
     8    4   19 1   
     9    5    9 1   
    10    5   31 1   
    11    5   32 1   
    12    5   33 1   
    13    6   21 1   
    14    6   34 1   
    15    7   11 1   
    16    7   16 1   
    17    7   29 1   
    18    8   17 1   
    19    8   27 1   
    20    9   13 1   
    21    9   20 1   
    22    9   35 1   
    23   10   12 1   
    24   10   37 1   
    25   11   36 1   
    26   11   38 1   
    27   12   15 1   
    28   13   39 1   
    29   13   40 1   
    30   13   41 1   
    31   14   21 1   
    32   14   42 1   
    33   14   43 1   
    34   15   23 1   
    35   16   19 1   
    36   17   20 1   
    37   17   22 1   
    38   18   24 1   
    39   18   25 1   
    40   18   26 1   
    41   18   46 1   
    42   19   30 1   
    43   20   45 1   
    44   20   47 1   
    45   21   46 1   
    46   44   46 1   
@<TRIPOS>SUBSTRUCTURE
     1 KXO         1 TEMP              0 ****  ****    0 ROOT
