@<TRIPOS>MOLECULE
KXO
   46    41     1     0     0
SMALL
bcc


@<TRIPOS>ATOM
      1 C4          2.0640   -0.1320   -2.1750 c1        1 KXO      0.017500
      2 C5          3.4290   -0.1170   -2.2200 c1        1 KXO     -0.096500
      3 C6          6.1510    1.1780   -1.0810 c1        1 KXO     -0.067500
      4 C7          2.1560   -0.1190    0.2060 c1        1 KXO      0.344300
      5 C8         -2.9040   -1.2610    0.7580 c3        1 KXO     -0.093900
      6 C10        -4.4090   -1.1980    0.8780 c3        1 KXO      0.182800
      7 C13         5.5470   -0.0690   -1.0890 c1        1 KXO      0.011000
      8 C15         1.4220   -0.1330   -0.9700 cg        1 KXO     -0.145200
      9 C17        -2.3440   -0.0890    0.0360 c3        1 KXO      0.098700
     10 C1          7.7070   -1.1160   -1.0770 c1        1 KXO     -0.074500
     11 C2          6.3250   -1.2160   -1.0860 c1        1 KXO     -0.096500
     12 C3          8.3120    0.1320   -1.0700 c1        1 KXO     -0.074500
     13 C9         -2.8160    1.1890    0.5970 c3        1 KXO     -0.093900
     14 C11        -4.3240    1.2430    0.7190 c3        1 KXO      0.182800
     15 C12        -6.2960    0.1230    1.3870 c3        1 KXO      0.157800
     16 C14         7.5340    1.2790   -1.0720 c1        1 KXO      0.087100
     17 C16         4.1600   -0.1030   -1.0430 c1        1 KXO      0.011000
     18 C18        -0.0900   -0.1320   -1.0610 c         1 KXO      0.630300
     19 C19        -6.8430    0.1490    2.7990 c3        1 KXO      0.613900
     20 N20         3.5180   -0.1050    0.1590 n1        1 KXO     -0.461800
     21 N21        -0.8730   -0.1330    0.1240 n         1 KXO     -0.567900
     22 N22        -4.8740    0.0770    1.4300 n3        1 KXO     -0.754600
     23 O23        -0.6330   -0.0950   -2.1480 o         1 KXO     -0.605100
     24 F24         8.1180    2.4840   -1.0920 f         1 KXO     -0.105100
     25 F25        -5.9620    0.7500    3.6080 f         1 KXO     -0.239967
     26 F26        -7.9990    0.8240    2.8170 f         1 KXO     -0.239967
     27 F27        -7.0520   -1.1050    3.2200 f         1 KXO     -0.239967
     28 H4          1.5480   -0.1410   -3.0030 ha        1 KXO      0.107500
     29 H5          3.8880   -0.1160   -3.0810 ha        1 KXO      0.089500
     30 H6          5.6030    1.9870   -1.0830 ha        1 KXO      0.107500
     31 H7          1.6970   -0.1200    1.0670 ha        1 KXO      0.106500
     32 H8         -2.5160   -1.2950    1.6550 hc        1 KXO      0.057950
     33 H8A        -2.6590   -2.0760    0.2760 hc        1 KXO      0.057950
     34 H10        -4.7110   -1.9230    1.4600 h1        1 KXO      0.040950
     35 H10A       -4.8030   -1.3200   -0.0090 h1        1 KXO      0.040950
     36 H17        -2.6070   -0.1390   -0.9030 h1        1 KXO      0.090700
     37 H1          8.2550   -1.9240   -1.0750 ha        1 KXO      0.088500
     38 H2          5.8990   -2.0950   -1.0910 ha        1 KXO      0.089500
     39 H3          9.2860    0.2020   -1.0630 ha        1 KXO      0.088500
     40 H9         -2.5190    1.9180    0.0170 hc        1 KXO      0.057950
     41 H9A        -2.4220    1.3090    1.4840 hc        1 KXO      0.057950
     42 H11        -4.5730    2.0550    1.2040 h1        1 KXO      0.040950
     43 H11A       -4.7130    1.2780   -0.1780 h1        1 KXO      0.040950
     44 H12        -6.5830    0.9290    0.9110 h1        1 KXO      0.072700
     45 H12A       -6.6340   -0.6700    0.9210 h1        1 KXO      0.072700
     46 HN21       -0.4650   -0.1620    0.9390 hn        1 KXO      0.312500
@<TRIPOS>BOND
     1    1    8 3   
     2    1   28 1   
     3    2   17 3   
     4    2   29 1   
     5    3   16 3   
     6    3   30 1   
     7    4   20 3   
     8    4   31 1   
     9    5    6 1   
    10    5    9 1   
    11    5   32 1   
    12    5   33 1   
    13    6   22 1   
    14    6   34 1   
    15    6   35 1   
    16    7   11 3   
    17    8   18 1   
    18    9   13 1   
    19    9   21 1   
    20    9   36 1   
    21   10   12 3   
    22   10   37 1   
    23   11   38 1   
    24   12   39 1   
    25   13   14 1   
    26   13   40 1   
    27   13   41 1   
    28   14   22 1   
    29   14   42 1   
    30   14   43 1   
    31   15   19 1   
    32   15   22 1   
    33   15   44 1   
    34   15   45 1   
    35   16   24 1   
    36   18   21 1   
    37   18   23 2   
    38   19   25 1   
    39   19   26 1   
    40   19   27 1   
    41   21   46 1   
@<TRIPOS>SUBSTRUCTURE
     1 KXO         1 TEMP              0 ****  ****    0 ROOT
