@<TRIPOS>MOLECULE
KXO
   46    48     1     0     0
SMALL
bcc


@<TRIPOS>ATOM
      1 C4          2.3980    2.4320   -0.3610 ca        1 KXO     -0.040000
      2 C5          3.6460    1.8190   -0.4630 ca        1 KXO     -0.244300
      3 C6          5.2390   -1.4850   -0.4130 ca        1 KXO     -0.127000
      4 C7          1.6010    0.4280    0.7160 ca        1 KXO      0.424200
      5 C8         -3.2920    1.4250    1.4350 c3        1 KXO     -0.095400
      6 C10        -3.6500   -0.0110    1.0680 c3        1 KXO      0.182800
      7 C13         5.1360   -0.1340   -0.0710 cp        1 KXO     -0.128500
      8 C15         1.3430    1.7270    0.2320 ca        1 KXO     -0.261900
      9 C17        -2.4490    2.1080    0.3460 c3        1 KXO      0.098700
     10 C1          7.5500    0.0290    0.0490 ca        1 KXO     -0.110000
     11 C2          6.2940    0.6210    0.1640 ca        1 KXO     -0.128000
     12 C3          7.6740   -1.3120   -0.3000 ca        1 KXO     -0.153000
     13 C9         -3.2120    1.9890   -0.9830 c3        1 KXO     -0.095400
     14 C11        -3.5680    0.5440   -1.3150 c3        1 KXO      0.182800
     15 C14         6.5130   -2.0720   -0.5310 ca        1 KXO      0.119900
     16 C16         3.8140    0.5080    0.0410 cp        1 KXO      0.478800
     17 C18         0.0150    2.3880    0.3530 c         1 KXO      0.680700
     18 C19        -6.2260   -1.6810   -0.1940 c3        1 KXO      0.613900
     19 N20         2.7960   -0.1770    0.6260 nb        1 KXO     -0.662000
     20 N21        -1.1040    1.5840    0.2770 n         1 KXO     -0.569900
     21 N22        -4.2750   -0.1300   -0.2390 n3        1 KXO     -0.758600
     22 O23        -0.0770    3.6230    0.5110 o         1 KXO     -0.602100
     23 F24         6.6190   -3.3800   -0.8700 f         1 KXO     -0.138900
     24 F25        -6.5230   -1.5270    1.1340 f         1 KXO     -0.239300
     25 F26        -7.1000   -0.8660   -0.8590 f         1 KXO     -0.239300
     26 F27        -6.6390   -2.9560   -0.4960 f         1 KXO     -0.239300
     27 H4          2.2340    3.4580   -0.7290 ha        1 KXO      0.165000
     28 H5          4.4900    2.3430   -0.9320 ha        1 KXO      0.154000
     29 H6          4.3410   -2.0980   -0.5870 ha        1 KXO      0.163000
     30 H7          0.8190   -0.1650    1.2250 h4        1 KXO      0.026100
     31 H8         -4.2280    2.0290    1.5660 hc        1 KXO      0.064450
     32 H8A        -2.7480    1.4160    2.4130 hc        1 KXO      0.064450
     33 H10        -2.7180   -0.6490    1.1340 h1        1 KXO      0.035200
     34 H10A       -4.3860   -0.4070    1.8260 h1        1 KXO      0.035200
     35 H17        -2.3660    3.2090    0.6040 h1        1 KXO      0.096700
     36 H1          8.4550    0.6270    0.2390 ha        1 KXO      0.141000
     37 H2          6.2110    1.6800    0.4520 ha        1 KXO      0.141000
     38 H3          8.6620   -1.7840   -0.3950 ha        1 KXO      0.151000
     39 H9         -4.1470    2.6010   -0.8930 hc        1 KXO      0.064450
     40 H9A        -2.6060    2.4070   -1.8270 hc        1 KXO      0.064450
     41 H11        -4.2420    0.5410   -2.2190 h1        1 KXO      0.035200
     42 H11A       -2.6240   -0.0110   -1.5940 h1        1 KXO      0.035200
     43 H12        -4.1440   -2.2600    0.0050 h1        1 KXO      0.072200
     44 H12A       -4.6270   -1.6710   -1.6610 h1        1 KXO      0.072200
     45 HN21       -1.0010    0.6200    0.0740 hn        1 KXO      0.308500
     46 C12        -4.7080   -1.4630   -0.5590 c3        1 KXO      0.159800
@<TRIPOS>BOND
     1    1    2 ar  
     2    1    8 ar  
     3    1   27 1   
     4    2   16 ar  
     5    2   28 1   
     6    3    7 ar  
     7    3   15 ar  
     8    3   29 1   
     9    4    8 ar  
    10    4   19 ar  
    11    4   30 1   
    12    5    6 1   
    13    5    9 1   
    14    5   31 1   
    15    5   32 1   
    16    6   21 1   
    17    6   33 1   
    18    6   34 1   
    19    7   11 ar  
    20    7   16 1   
    21    8   17 1   
    22    9   13 1   
    23    9   20 1   
    24    9   35 1   
    25   10   11 ar  
    26   10   12 ar  
    27   10   36 1   
    28   11   37 1   
    29   12   15 ar  
    30   12   38 1   
    31   13   14 1   
    32   13   39 1   
    33   13   40 1   
    34   14   21 1   
    35   14   41 1   
    36   14   42 1   
    37   15   23 1   
    38   16   19 ar  
    39   17   20 1   
    40   17   22 2   
    41   18   24 1   
    42   18   25 1   
    43   18   26 1   
    44   18   46 1   
    45   20   45 1   
    46   21   46 1   
    47   43   46 1   
    48   44   46 1   
@<TRIPOS>SUBSTRUCTURE
     1 KXO         1 TEMP              0 ****  ****    0 ROOT
