@<TRIPOS>MOLECULE
KXU
   46    48     1     0     0
SMALL
bcc


@<TRIPOS>ATOM
      1 O1         -0.0530    0.4230    0.0900 o         1 KXU     -0.391100
      2 C9          1.1290    0.1630   -0.0680 c         1 KXU      0.493600
      3 N3          1.9960    0.0570    1.1670 ny        1 KXU     -0.672800
      4 C10         1.2450    0.3070    2.4420 c3        1 KXU      0.168100
      5 C11         2.1450    0.1630    3.6220 ca        1 KXU     -0.137300
      6 C15         2.7130    1.2920    4.2190 ca        1 KXU     -0.230300
      7 C14         3.5300    1.1240    5.3630 ca        1 KXU      0.445600
      8 C16         4.1220    2.3320    6.0120 c3        1 KXU     -0.163400
      9 N4          3.7840   -0.1010    5.8910 nb        1 KXU     -0.624000
     10 C13         3.2280   -1.1720    5.3020 ca        1 KXU      0.427200
     11 C12         2.4000   -1.1000    4.1640 ca        1 KXU     -0.241300
     12 C8          1.8260   -0.0590   -1.3280 cc        1 KXU      0.191800
     13 C7          1.2160    0.0650   -2.6440 cc        1 KXU     -0.274600
     14 N2          3.1360   -0.4110   -1.4710 nd        1 KXU     -0.310300
     15 O           3.4060   -0.5150   -2.7310 os        1 KXU     -0.046100
     16 C6          2.2500   -0.2280   -3.5210 cd        1 KXU      0.316000
     17 C5          2.4170   -0.3110   -4.9660 c3        1 KXU     -0.100600
     18 S           2.1220    1.3220   -5.6020 ss        1 KXU     -0.195400
     19 C4          2.2900    1.1420   -7.3190 ca        1 KXU      0.730300
     20 N           2.1000    2.2960   -8.0260 nb        1 KXU     -0.713000
     21 C3          2.2250    2.1990   -9.3740 ca        1 KXU      0.472100
     22 C17         2.0340    3.4190  -10.2120 c3        1 KXU     -0.159900
     23 C2          2.5330    0.9680   -9.9970 ca        1 KXU     -0.364600
     24 N1          2.5880   -0.0880   -7.8280 nb        1 KXU     -0.713000
     25 C1          2.7090   -0.1690   -9.1790 ca        1 KXU      0.472100
     26 C           3.0360   -1.4840   -9.8060 c3        1 KXU     -0.159900
     27 H3          2.4130   -0.8830    1.2020 hn        1 KXU      0.470300
     28 H101        0.8060    1.3460    2.3850 hx        1 KXU      0.119700
     29 H102        0.3930   -0.4330    2.4910 hx        1 KXU      0.119700
     30 H15         2.5190    2.3020    3.8290 ha        1 KXU      0.152000
     31 H12         1.9570   -2.0130    3.7440 ha        1 KXU      0.150000
     32 H161        3.9340    3.2420    5.3930 hc        1 KXU      0.071700
     33 H162        3.6650    2.4820    7.0240 hc        1 KXU      0.071700
     34 H163        5.2270    2.2080    6.1480 hc        1 KXU      0.071700
     35 H13         3.4560   -2.1480    5.7740 h4        1 KXU      0.050100
     36 H7          0.1820    0.3330   -2.8580 ha        1 KXU      0.220000
     37 H51C        1.6870   -1.0500   -5.3960 h1        1 KXU      0.127200
     38 H52C        3.4460   -0.6710   -5.2340 h1        1 KXU      0.127200
     39 H171        2.1460    3.1660  -11.2940 hc        1 KXU      0.065867
     40 H172        2.7910    4.1980   -9.9430 hc        1 KXU      0.065867
     41 H173        1.0150    3.8510  -10.0470 hc        1 KXU      0.065867
     42 H2          2.6330    0.8990  -11.0880 ha        1 KXU      0.164000
     43 HC1         4.0260   -1.8540   -9.4390 hc        1 KXU      0.065867
     44 HC2         3.0820   -1.3800  -10.9170 hc        1 KXU      0.065867
     45 HC3         2.2580   -2.2450   -9.5480 hc        1 KXU      0.065867
     46 H32         2.7670    0.7330    1.0890 hn        1 KXU      0.470300
@<TRIPOS>BOND
     1    1    2 2   
     2    2    3 1   
     3    2   12 1   
     4    3    4 1   
     5    3   27 1   
     6    3   46 1   
     7    4    5 1   
     8    4   28 1   
     9    4   29 1   
    10    5    6 ar  
    11    5   11 ar  
    12    6    7 ar  
    13    6   30 1   
    14    7    8 1   
    15    7    9 ar  
    16    8   32 1   
    17    8   33 1   
    18    8   34 1   
    19    9   10 ar  
    20   10   11 ar  
    21   10   35 1   
    22   11   31 1   
    23   12   13 1   
    24   12   14 2   
    25   13   16 2   
    26   13   36 1   
    27   14   15 1   
    28   15   16 1   
    29   16   17 1   
    30   17   18 1   
    31   17   37 1   
    32   17   38 1   
    33   18   19 1   
    34   19   20 ar  
    35   19   24 ar  
    36   20   21 ar  
    37   21   22 1   
    38   21   23 ar  
    39   22   39 1   
    40   22   40 1   
    41   22   41 1   
    42   23   25 ar  
    43   23   42 1   
    44   24   25 ar  
    45   25   26 1   
    46   26   43 1   
    47   26   44 1   
    48   26   45 1   
@<TRIPOS>SUBSTRUCTURE
     1 KXU         1 TEMP              0 ****  ****    0 ROOT
