@<TRIPOS>MOLECULE
KY1
   25    23     1     0     0
SMALL
bcc


@<TRIPOS>ATOM
      1 CA         -0.2110   -0.0890    0.4030 c2        1 KY1     -0.202000
      2 CB          1.0310    0.3010    0.1090 ce        1 KY1     -0.157000
      3 CG          4.2600    0.2980   -4.5800 c3        1 KY1      0.176000
      4 CD1         5.7110    0.4130   -4.2580 c2        1 KY1     -0.134200
      5 CE1         6.2010    0.4940   -3.0100 ce        1 KY1     -0.150000
      6 CZ          5.4640    0.4760   -1.7730 ce        1 KY1     -0.141100
      7 CE2         4.1550    0.4210   -1.6390 c1        1 KY1      0.011100
      8 CD2         2.9170    0.3770   -1.4380 c1        1 KY1     -0.119900
      9 C          -1.8580   -0.2210    4.7580 c1        1 KY1      0.883000
     10 O          -1.5070   -0.1140    3.6260 o         1 KY1     -0.441500
     11 OXT        -2.2090   -0.3280    5.8890 o         1 KY1     -0.441500
     12 C1          1.6110    0.3020   -1.2280 ce        1 KY1      0.119000
     13 O2          0.7900    0.1970   -2.3380 oh        1 KY1     -0.498100
     14 HAC1       -0.1000    0.4660   -2.0690 ho        1 KY1      0.419000
     15 HAC2       -0.5930   -0.0740    1.4340 ha        1 KY1      0.125500
     16 HBC1       -0.9230   -0.4580   -0.3470 ha        1 KY1      0.125500
     17 HBC2        1.7210    0.6410    0.9010 ha        1 KY1      0.145000
     18 HD1         3.8270   -0.5440   -3.9540 h1        1 KY1      0.050700
     19 HE1         6.4070    0.4470   -5.1140 ha        1 KY1      0.133000
     20 HZ          7.2950    0.5850   -2.8780 ha        1 KY1      0.124000
     21 HE2         6.0790    0.5140   -0.8520 ha        1 KY1      0.140000
     22 H1N1        3.7430    1.2440   -4.2340 h1        1 KY1      0.050700
     23 H1N2        2.9930    0.0550   -6.1320 hn        1 KY1      0.348800
     24 H13         4.4360   -0.6710   -6.3570 hn        1 KY1      0.348800
     25 N1          3.9800    0.1410   -5.9900 n3        1 KY1     -0.913800
@<TRIPOS>BOND
     1    1    2 2   
     2    1   15 1   
     3    1   16 1   
     4    2   12 1   
     5    2   17 1   
     6    3    4 1   
     7    3   18 1   
     8    3   22 1   
     9    3   25 1   
    10    4    5 2   
    11    4   19 1   
    12    5    6 1   
    13    5   20 1   
    14    6    7 2   
    15    6   21 1   
    16    7    8 2   
    17    8   12 2   
    18    9   10 2   
    19    9   11 2   
    20   12   13 1   
    21   13   14 1   
    22   23   25 1   
    23   24   25 1   
@<TRIPOS>SUBSTRUCTURE
     1 KY1         1 TEMP              0 ****  ****    0 ROOT
