@<TRIPOS>MOLECULE
KY1
   24    24     1     0     0
SMALL
bcc


@<TRIPOS>ATOM
      1 CA          0.1340    0.5120    0.5670 c3        1 KY1     -0.189200
      2 CB          1.4720    0.6980   -0.0150 c2        1 KY1     -0.139200
      3 CG          3.5190   -0.1400   -3.1460 c3        1 KY1      0.229900
      4 CD1         5.0000   -0.4900   -3.1080 c2        1 KY1     -0.157200
      5 CE1         5.8970    0.0660   -2.2650 ce        1 KY1     -0.141000
      6 CZ          5.4680    1.2510   -1.5130 ce        1 KY1     -0.194100
      7 CE2         4.1520    1.2650   -1.3350 c1        1 KY1     -0.052800
      8 CD2         3.1320    0.5710   -1.8350 ce        1 KY1     -0.097300
      9 C          -0.1950   -0.9720    0.8610 c         1 KY1      0.920600
     10 O          -0.2750   -1.3350    2.0630 o         1 KY1     -0.835300
     11 OXT        -0.4020   -1.7320   -0.1330 o         1 KY1     -0.835300
     12 C1          1.8250    0.3320   -1.2720 ce        1 KY1      0.070100
     13 O2          0.9520   -0.2460   -2.1770 oh        1 KY1     -0.574100
     14 HAC1        0.3020   -0.7770   -1.6650 ho        1 KY1      0.484000
     15 HAC2       -0.6470    0.8880   -0.1460 hc        1 KY1      0.040700
     16 HBC1        0.0480    1.0900    1.5220 hc        1 KY1      0.040700
     17 HBC2        2.2390    1.1510    0.6340 ha        1 KY1      0.122000
     18 HD1         2.9570   -1.1290   -3.0710 h1        1 KY1      0.112700
     19 HE1         5.2960   -1.2590   -3.8360 ha        1 KY1      0.129000
     20 HZ          6.9420   -0.2570   -2.2080 ha        1 KY1      0.120000
     21 HE2         6.1750    2.0510   -1.2880 ha        1 KY1      0.138000
     22 H1N1        3.5140    1.3950   -4.4650 hn        1 KY1      0.354800
     23 H1N2        2.1200    0.5480   -4.4090 hn        1 KY1      0.354800
     24 N1          3.1220    0.4780   -4.3900 n8        1 KY1     -0.899800
@<TRIPOS>BOND
     1    1    2 1   
     2    1    9 1   
     3    1   15 1   
     4    1   16 1   
     5    2   12 2   
     6    2   17 1   
     7    3    4 1   
     8    3    8 1   
     9    3   18 1   
    10    3   24 1   
    11    4    5 2   
    12    4   19 1   
    13    5    6 1   
    14    5   20 1   
    15    6    7 2   
    16    6   21 1   
    17    7    8 2   
    18    8   12 1   
    19    9   10 1   
    20    9   11 1   
    21   12   13 1   
    22   13   14 1   
    23   22   24 1   
    24   23   24 1   
@<TRIPOS>SUBSTRUCTURE
     1 KY1         1 TEMP              0 ****  ****    0 ROOT
