@<TRIPOS>MOLECULE
KY1
   24    24     1     0     0
SMALL
bcc


@<TRIPOS>ATOM
      1 CA          0.5680   -0.0510    0.5170 c3        1 KY1     -0.201000
      2 CB          1.8780   -0.3180   -0.1100 c2        1 KY1     -0.200000
      3 CG          3.4140    0.6550   -2.7480 c2        1 KY1      0.166000
      4 CD1         4.7160    1.1590   -2.9330 c2        1 KY1     -0.392000
      5 CE1         5.8180    0.4790   -2.4110 c2        1 KY1      0.054000
      6 CZ          5.6880   -0.7060   -1.7000 c2        1 KY1     -0.332000
      7 CE2         4.4590   -1.3300   -1.5320 c1        1 KY1     -0.154000
      8 CD2         3.2720   -0.7530   -2.1690 c3        1 KY1     -0.070000
      9 C          -0.1590    1.1110   -0.1940 c2        1 KY1      0.334000
     10 O          -0.7210    1.9900    0.5080 o         1 KY1     -0.587500
     11 OXT        -0.1800    1.1230   -1.4700 o         1 KY1     -0.587500
     12 C1          2.0110   -0.7980   -1.3590 c2        1 KY1      0.039000
     13 O2          0.9670   -1.2720   -2.1320 oh        1 KY1     -0.319000
     14 HAC1        0.1490   -0.8190   -1.8490 ho        1 KY1      0.258000
     15 HAC2       -0.0970   -0.9520    0.4550 hc        1 KY1      0.079000
     16 HBC1        0.6940    0.2090    1.5970 hc        1 KY1      0.079000
     17 HBC2        2.7740   -0.0210    0.4540 ha        1 KY1      0.125000
     18 HD1         3.1280   -1.4390   -3.0740 hc        1 KY1      0.171000
     19 HE1         4.8670    2.1240   -3.4360 ha        1 KY1      0.116000
     20 HZ          6.8150    0.9270   -2.5640 ha        1 KY1      0.098000
     21 HE2         6.5780   -1.1700   -1.2540 ha        1 KY1      0.120000
     22 H1N1        1.4010    1.0460   -2.7640 hn        1 KY1      0.255000
     23 H1N2        2.3970    2.2940   -3.3660 hn        1 KY1      0.255000
     24 N1          2.3100    1.3440   -3.0950 n3        1 KY1     -0.306000
@<TRIPOS>BOND
     1    1    2 1   
     2    1    9 1   
     3    1   15 1   
     4    1   16 1   
     5    2   12 1   
     6    2   17 1   
     7    3    4 1   
     8    3    8 1   
     9    3   24 1   
    10    4    5 1   
    11    4   19 1   
    12    5    6 1   
    13    5   20 1   
    14    6    7 1   
    15    6   21 1   
    16    7    8 1   
    17    8   12 1   
    18    8   18 1   
    19    9   10 1   
    20    9   11 1   
    21   12   13 1   
    22   13   14 1   
    23   22   24 1   
    24   23   24 1   
@<TRIPOS>SUBSTRUCTURE
     1 KY1         1 TEMP              0 ****  ****    0 ROOT
