@<TRIPOS>MOLECULE
KY1
   24    24     1     0     0
SMALL
bcc


@<TRIPOS>ATOM
      1 CA         -2.4540    0.6050   -0.1280 c3        1 KY1     -0.194400
      2 CB         -1.1870   -0.1990    0.0210 c3        1 KY1     -0.163400
      3 CG          2.4710    0.7770   -0.0480 ca        1 KY1      0.192600
      4 CD1         3.7180    0.1260   -0.2360 ca        1 KY1     -0.220000
      5 CE1         3.8130   -1.2560   -0.1740 ca        1 KY1     -0.084000
      6 CZ          2.6820   -2.0320    0.0790 ca        1 KY1     -0.197000
      7 CE2         1.4530   -1.4100    0.2750 ca        1 KY1     -0.054000
      8 CD2         1.3260   -0.0180    0.2310 ca        1 KY1     -0.226600
      9 C          -3.6770   -0.3260   -0.2490 c         1 KY1      0.909600
     10 O          -3.6180   -1.4710    0.2900 o         1 KY1     -0.849800
     11 OXT        -4.6840    0.1100   -0.8740 o         1 KY1     -0.849800
     12 C1         -0.0070    0.5870    0.5000 c         1 KY1      0.590700
     13 O2         -0.1010    1.6610    1.1150 o         1 KY1     -0.584100
     14 HAC1       -2.6040    1.2590    0.7680 hc        1 KY1      0.035700
     15 HAC2       -2.4010    1.2640   -1.0290 hc        1 KY1      0.035700
     16 HBC1       -0.9320   -0.6890   -0.9560 hc        1 KY1      0.080700
     17 HBC2       -1.3920   -1.0250    0.7630 hc        1 KY1      0.080700
     18 HD1         4.6200    0.7210   -0.4420 ha        1 KY1      0.121000
     19 HE1         4.7880   -1.7410   -0.3250 ha        1 KY1      0.117000
     20 HZ          2.7590   -3.1270    0.1230 ha        1 KY1      0.127000
     21 HE2         0.5590   -2.0250    0.4750 ha        1 KY1      0.152000
     22 H1N1        3.2230    2.6530   -0.0230 hn        1 KY1      0.404800
     23 H1N2        1.5620    2.5870    0.1370 hn        1 KY1      0.404800
     24 N1          2.3860    2.1560   -0.2260 nh        1 KY1     -0.829200
@<TRIPOS>BOND
     1    1    2 1   
     2    1    9 1   
     3    1   14 1   
     4    1   15 1   
     5    2   12 1   
     6    2   16 1   
     7    2   17 1   
     8    3    4 ar  
     9    3    8 ar  
    10    3   24 1   
    11    4    5 ar  
    12    4   18 1   
    13    5    6 ar  
    14    5   19 1   
    15    6    7 ar  
    16    6   20 1   
    17    7    8 ar  
    18    7   21 1   
    19    8   12 1   
    20    9   10 1   
    21    9   11 1   
    22   12   13 2   
    23   22   24 1   
    24   23   24 1   
@<TRIPOS>SUBSTRUCTURE
     1 KY1         1 TEMP              0 ****  ****    0 ROOT
