@<TRIPOS>MOLECULE
KYA
   20    21     1     0     0
SMALL
bcc


@<TRIPOS>ATOM
      1 N          -0.0290    0.1200    0.0620 nb        1 KYA     -0.683000
      2 C1          2.0860   -0.0970   -1.1990 ca        1 KYA     -0.181300
      3 O1          2.0270   -0.3930   -3.5730 oh        1 KYA     -0.517100
      4 C2          1.3510    0.0760    0.0160 ca        1 KYA      0.425600
      5 O2         -2.7780    1.1600   -1.2890 o         1 KYA     -0.803300
      6 C3          1.3170   -0.2260   -2.4010 ca        1 KYA      0.127100
      7 O3         -2.8400   -1.0690   -1.0100 o         1 KYA     -0.803300
      8 C4          3.5000   -0.1340   -1.1820 ca        1 KYA     -0.084000
      9 C5          2.1050    0.2080    1.2290 ca        1 KYA     -0.179300
     10 C6         -0.0580   -0.1820   -2.3500 ca        1 KYA     -0.307300
     11 C7         -0.6990   -0.0040   -1.0760 ca        1 KYA      0.430800
     12 C8          4.1860   -0.0040    0.0010 ca        1 KYA     -0.175000
     13 C9          3.4760    0.1680    1.2120 ca        1 KYA     -0.136000
     14 C10        -2.2500    0.0350   -1.1090 c         1 KYA      0.826100
     15 HO1         1.3810   -0.4650   -4.2900 ho        1 KYA      0.414000
     16 H4          4.0300   -0.2680   -2.1380 ha        1 KYA      0.131000
     17 H5          1.5580    0.3420    2.1750 ha        1 KYA      0.141000
     18 H6         -0.6870   -0.2770   -3.2430 ha        1 KYA      0.148000
     19 H8          5.2830   -0.0320    0.0210 ha        1 KYA      0.113000
     20 H9          4.0440    0.2700    2.1490 ha        1 KYA      0.113000
@<TRIPOS>BOND
     1    1    4 ar  
     2    1   11 ar  
     3    2    4 ar  
     4    2    6 ar  
     5    2    8 ar  
     6    3    6 1   
     7    3   15 1   
     8    4    9 ar  
     9    5   14 1   
    10    6   10 ar  
    11    7   14 1   
    12    8   12 ar  
    13    8   16 1   
    14    9   13 ar  
    15    9   17 1   
    16   10   11 ar  
    17   10   18 1   
    18   11   14 1   
    19   12   13 ar  
    20   12   19 1   
    21   13   20 1   
@<TRIPOS>SUBSTRUCTURE
     1 KYA         1 TEMP              0 ****  ****    0 ROOT
