@<TRIPOS>MOLECULE
KYA
   20    18     1     0     0
SMALL
bcc


@<TRIPOS>ATOM
      1 N          -1.3970    0.0080    0.8220 n1        1 KYA     -0.157000
      2 C1          0.7020    0.0020   -0.3190 c1        1 KYA     -0.116000
      3 O1          0.5440   -0.0840   -2.8420 oh        1 KYA     -0.271000
      4 C2         -0.0130   -0.0080    0.8540 c1        1 KYA      0.032000
      5 O2         -4.2210    1.0230   -0.0680 o         1 KYA     -0.538000
      6 C3          0.0350    0.0290   -1.5350 c2        1 KYA      0.082000
      7 O3         -4.0830   -1.1410    0.1500 o         1 KYA     -0.538000
      8 C4          2.1090   -0.0310   -0.2860 c2        1 KYA     -0.084000
      9 C5          0.6620   -0.0520    2.0890 c2        1 KYA     -0.114000
     10 C6         -1.3320    0.0440   -1.5650 c2        1 KYA     -0.242000
     11 C7         -2.0530    0.0340   -0.3750 c1        1 KYA      0.013000
     12 C8          2.7740   -0.0750    0.9320 c1        1 KYA     -0.175000
     13 C9          2.0500   -0.0850    2.1210 c1        1 KYA     -0.136000
     14 C10        -3.5350   -0.0310   -0.0770 c2        1 KYA      0.385000
     15 HO1         0.5400    0.7160   -3.2310 ho        1 KYA      0.213000
     16 H4          2.6170   -0.0240   -1.1200 ha        1 KYA      0.131000
     17 H5          0.1550   -0.0620    2.9230 ha        1 KYA      0.141000
     18 H6         -1.8210   -0.0230   -2.4060 ha        1 KYA      0.148000
     19 H8          3.7490   -0.1220    0.9540 ha        1 KYA      0.113000
     20 H9          2.5180   -0.1160    2.9770 ha        1 KYA      0.113000
@<TRIPOS>BOND
     1    1    4 1   
     2    2    6 1   
     3    2    8 1   
     4    3    6 1   
     5    3   15 1   
     6    4    9 1   
     7    5   14 1   
     8    6   10 1   
     9    7   14 1   
    10    8   12 1   
    11    8   16 1   
    12    9   13 1   
    13    9   17 1   
    14   10   11 1   
    15   10   18 1   
    16   11   14 1   
    17   12   19 1   
    18   13   20 1   
@<TRIPOS>SUBSTRUCTURE
     1 KYA         1 TEMP              0 ****  ****    0 ROOT
