@<TRIPOS>MOLECULE
KYA
   20    21     1     0     0
SMALL
bcc


@<TRIPOS>ATOM
      1 N           0.5560   -1.1160    0.1100 nb        1 KYA     -0.683000
      2 C1         -1.3570    0.4470    0.0100 ca        1 KYA     -0.181300
      3 O1         -0.9600    2.8040   -0.0930 oh        1 KYA     -0.517100
      4 C2         -0.8030   -0.8700    0.0790 ca        1 KYA      0.425600
      5 O2          3.4650   -0.2570    1.2370 o         1 KYA     -0.803300
      6 C3         -0.4230    1.5340   -0.0270 ca        1 KYA      0.127100
      7 O3          3.4970   -0.3610   -1.0080 o         1 KYA     -0.803300
      8 C4         -2.7590    0.6340   -0.0190 ca        1 KYA     -0.084000
      9 C5         -1.7220   -1.9710    0.1170 ca        1 KYA     -0.179300
     10 C6          0.9290    1.2840    0.0040 ca        1 KYA     -0.307300
     11 C7          1.3820   -0.0790    0.0730 ca        1 KYA      0.430800
     12 C8         -3.6060   -0.4470    0.0190 ca        1 KYA     -0.175000
     13 C9         -3.0770   -1.7560    0.0870 ca        1 KYA     -0.136000
     14 C10         2.9220   -0.2690    0.1040 c         1 KYA      0.826100
     15 HO1        -0.2180    3.4260   -0.1120 ho        1 KYA      0.414000
     16 H4         -3.1460    1.6630   -0.0720 ha        1 KYA      0.131000
     17 H5         -1.3150   -2.9930    0.1700 ha        1 KYA      0.141000
     18 H6          1.6790    2.0840   -0.0220 ha        1 KYA      0.148000
     19 H8         -4.6950   -0.3080   -0.0030 ha        1 KYA      0.113000
     20 H9         -3.7720   -2.6080    0.1170 ha        1 KYA      0.113000
@<TRIPOS>BOND
     1    1    4 ar  
     2    1   11 ar  
     3    2    4 ar  
     4    2    6 ar  
     5    2    8 ar  
     6    3    6 1   
     7    3   15 1   
     8    4    9 ar  
     9    5   14 1   
    10    6   10 ar  
    11    7   14 1   
    12    8   12 ar  
    13    8   16 1   
    14    9   13 ar  
    15    9   17 1   
    16   10   11 ar  
    17   10   18 1   
    18   11   14 1   
    19   12   13 ar  
    20   12   19 1   
    21   13   20 1   
@<TRIPOS>SUBSTRUCTURE
     1 KYA         1 TEMP              0 ****  ****    0 ROOT
