@<TRIPOS>MOLECULE
KYN
   26    26     1     0     0
SMALL
bcc


@<TRIPOS>ATOM
      1 C          -3.5140    0.4320   -0.1780 c         1 KYN      0.887600
      2 N          -2.0760   -1.4420   -1.1200 n3        1 KYN     -0.887800
      3 OXT        -3.5820    1.4490    0.5660 o         1 KYN     -0.840800
      4 C1          0.1450   -0.3560    0.7330 c         1 KYN      0.602700
      5 O2          0.0590   -1.3120    1.5190 o         1 KYN     -0.575100
      6 CA         -2.2620   -0.4980   -0.0270 c3        1 KYN      0.023500
      7 CB         -1.0370    0.3880    0.2000 c3        1 KYN     -0.159400
      8 CG          2.5550   -0.7320    0.0210 ca        1 KYN      0.198600
      9 CZ          2.9250    2.0630   -0.0950 ca        1 KYN     -0.199000
     10 CD1         3.8190   -0.1720   -0.3010 ca        1 KYN     -0.220000
     11 CD2         1.4800    0.1530    0.3110 ca        1 KYN     -0.224600
     12 CE1         3.9910    1.2030   -0.3550 ca        1 KYN     -0.086000
     13 CE2         1.6810    1.5330    0.2320 ca        1 KYN     -0.058000
     14 O          -4.3910    0.1010   -1.0250 o         1 KYN     -0.840800
     15 H          -2.9540   -1.9180   -1.2520 hn        1 KYN      0.332300
     16 H2         -1.9100   -0.9220   -1.9650 hn        1 KYN      0.332300
     17 HN1         3.1790   -2.6490    0.1740 hn        1 KYN      0.408300
     18 HN1A        1.5260   -2.4530    0.3600 hn        1 KYN      0.408300
     19 HA         -2.4270   -1.1100    0.9080 h1        1 KYN      0.060700
     20 HB         -1.3380    1.1710    0.9550 hc        1 KYN      0.080700
     21 HBA        -0.7610    0.9180   -0.7480 hc        1 KYN      0.080700
     22 HE1         4.9790    1.6160   -0.6090 ha        1 KYN      0.115000
     23 HE2         0.8350    2.2090    0.4430 ha        1 KYN      0.145000
     24 HZ          3.0650    3.1510   -0.1460 ha        1 KYN      0.124000
     25 N1          2.3740   -2.1080   -0.0400 nh        1 KYN     -0.830200
     26 HD1         4.6700   -0.8340   -0.5160 ha        1 KYN      0.121000
@<TRIPOS>BOND
     1    1    3 1   
     2    1    6 1   
     3    1   14 1   
     4    2    6 1   
     5    2   15 1   
     6    2   16 1   
     7    4    5 2   
     8    4    7 1   
     9    4   11 1   
    10    6    7 1   
    11    6   19 1   
    12    7   20 1   
    13    7   21 1   
    14    8   10 ar  
    15    8   11 ar  
    16    8   25 1   
    17    9   12 ar  
    18    9   13 ar  
    19    9   24 1   
    20   10   12 ar  
    21   10   26 1   
    22   11   13 ar  
    23   12   22 1   
    24   13   23 1   
    25   17   25 1   
    26   18   25 1   
@<TRIPOS>SUBSTRUCTURE
     1 KYN         1 TEMP              0 ****  ****    0 ROOT
