@<TRIPOS>MOLECULE
KYQ
   30    29     1     0     0
SMALL
bcc


@<TRIPOS>ATOM
      1 N          -4.2900    0.8180   -1.6210 n3        1 KYQ     -0.894800
      2 CA         -3.9170   -0.1760   -0.6210 c3        1 KYQ      0.024500
      3 CB         -2.5850    0.1180    0.0740 c3        1 KYQ     -0.065400
      4 CG         -1.4120    0.0950   -0.8820 c3        1 KYQ     -0.076400
      5 CD         -0.1000    0.3820   -0.1800 c3        1 KYQ     -0.083400
      6 CE          1.0460    0.4030   -1.1940 c3        1 KYQ      0.101800
      7 NZ          2.3280    0.8380   -0.6970 n2        1 KYQ     -0.599900
      8 C11         3.1630    0.0400   -0.1370 ce        1 KYQ      0.337300
      9 C12         4.5700    0.5150    0.2930 c         1 KYQ      0.833300
     10 O16         4.6810    1.3300    1.2410 o         1 KYQ     -0.827300
     11 O15         5.5400   -0.0230   -0.3200 o         1 KYQ     -0.827300
     12 C13         2.9850   -1.4370    0.1650 c3        1 KYQ      0.056100
     13 O14         3.8050   -2.2560   -0.6460 oh        1 KYQ     -0.645800
     14 C          -5.0080   -0.4200    0.4730 c         1 KYQ      0.887600
     15 O          -6.0520    0.2990    0.4540 o         1 KYQ     -0.853300
     16 OXT        -4.8110   -1.3460    1.3080 o         1 KYQ     -0.853300
     17 HN         -5.2950    0.7980   -1.7050 hn        1 KYQ      0.327300
     18 HNA        -4.0550    1.7300   -1.2720 hn        1 KYQ      0.327300
     19 HA         -3.8100   -1.1530   -1.1800 h1        1 KYQ      0.040700
     20 HB         -2.6340    1.1140    0.5860 hc        1 KYQ      0.044200
     21 HBA        -2.4480   -0.6610    0.8700 hc        1 KYQ      0.044200
     22 HG         -1.3590   -0.9100   -1.3790 hc        1 KYQ      0.031700
     23 HGA        -1.5690    0.8530   -1.6940 hc        1 KYQ      0.031700
     24 HD         -0.1630    1.3690    0.3470 hc        1 KYQ      0.040200
     25 HDA         0.0960   -0.4010    0.5980 hc        1 KYQ      0.040200
     26 HE          1.0970   -0.6140   -1.6830 h1        1 KYQ      0.025200
     27 HEA         0.7820    1.1430   -2.0040 h1        1 KYQ      0.025200
     28 H13         3.2450   -1.6070    1.2460 h1        1 KYQ      0.030700
     29 H13A        1.9380   -1.8000   -0.0180 h1        1 KYQ      0.030700
     30 HO14        4.6650   -1.8090   -0.7330 ho        1 KYQ      0.446000
@<TRIPOS>BOND
     1    1    2 1   
     2    1   17 1   
     3    1   18 1   
     4    2    3 1   
     5    2   14 1   
     6    2   19 1   
     7    3    4 1   
     8    3   20 1   
     9    3   21 1   
    10    4    5 1   
    11    4   22 1   
    12    4   23 1   
    13    5    6 1   
    14    5   24 1   
    15    5   25 1   
    16    6    7 1   
    17    6   26 1   
    18    6   27 1   
    19    7    8 2   
    20    8    9 1   
    21    8   12 1   
    22    9   10 1   
    23    9   11 1   
    24   12   13 1   
    25   12   28 1   
    26   12   29 1   
    27   13   30 1   
    28   14   15 1   
    29   14   16 1   
@<TRIPOS>SUBSTRUCTURE
     1 KYQ         1 TEMP              0 ****  ****    0 ROOT
