@<TRIPOS>MOLECULE
KZ9
   33    35     1     0     0
SMALL
bcc


@<TRIPOS>ATOM
      1 OAB         0.1030   -0.3740   -0.3340 oh        1 KZ9     -0.498100
      2 CAQ         1.4610   -0.2030   -0.1940 ca        1 KZ9      0.124100
      3 CAG         2.0920   -0.1850    1.0570 ca        1 KZ9     -0.194000
      4 CAE         2.1980   -0.0390   -1.3790 ca        1 KZ9     -0.150000
      5 CAD         3.5750    0.1320   -1.2920 ca        1 KZ9     -0.099000
      6 CAF         4.2170    0.1430   -0.0510 ca        1 KZ9     -0.156000
      7 CAR         3.4780   -0.0110    1.1240 ca        1 KZ9     -0.084300
      8 CAS         4.1270    0.0030    2.4950 c3        1 KZ9      0.199200
      9 CAP         4.5670   -1.3910    2.8740 ce        1 KZ9     -0.300400
     10 CAM         3.5270   -2.3500    3.2530 c         1 KZ9      0.603300
     11 OAA         2.3520   -2.0170    3.4610 o         1 KZ9     -0.551100
     12 CAI         3.9650   -3.7840    3.3850 c3        1 KZ9     -0.181400
     13 CAH         5.3470   -3.8920    3.9860 c3        1 KZ9     -0.071400
     14 CAJ         6.3680   -3.1130    3.1840 c3        1 KZ9     -0.059200
     15 CAO         5.8970   -1.7150    2.9010 c2        1 KZ9      0.110400
     16 NAK         6.8620   -0.7470    2.6370 n         1 KZ9     -0.438100
     17 CAN         6.5400    0.6150    2.5240 c         1 KZ9      0.556400
     18 SAC         7.7250    1.6980    2.3660 s         1 KZ9     -0.536400
     19 NAL         5.2090    0.9700    2.6030 n         1 KZ9     -0.489900
     20 HAB        -0.2730   -0.5120    0.5490 ho        1 KZ9      0.424000
     21 HAG         1.5080   -0.3340    1.9790 ha        1 KZ9      0.158000
     22 HAE         1.6800   -0.0490   -2.3480 ha        1 KZ9      0.152000
     23 HAD         4.1670    0.2590   -2.2110 ha        1 KZ9      0.137000
     24 HAF         5.3090    0.2700   -0.0150 ha        1 KZ9      0.135000
     25 HAS         3.3380    0.3310    3.2470 h1        1 KZ9      0.091700
     26 HAL         4.9920    1.9170    2.3740 hn        1 KZ9      0.350500
     27 HAI1        3.2260   -4.3440    4.0170 hc        1 KZ9      0.077700
     28 HAI2        3.9500   -4.2410    2.3590 hc        1 KZ9      0.077700
     29 HAH1        5.6560   -4.9700    4.0220 hc        1 KZ9      0.057700
     30 HAH2        5.3290   -3.5130    5.0420 hc        1 KZ9      0.057700
     31 HAJ1        7.3440   -3.1050    3.7410 hc        1 KZ9      0.069200
     32 HAJ2        6.5460   -3.6210    2.1960 hc        1 KZ9      0.069200
     33 HAK         7.8320   -0.9760    2.6820 hn        1 KZ9      0.358500
@<TRIPOS>BOND
     1    1    2 1   
     2    1   20 1   
     3    2    3 ar  
     4    2    4 ar  
     5    3    7 ar  
     6    3   21 1   
     7    4    5 ar  
     8    4   22 1   
     9    5    6 ar  
    10    5   23 1   
    11    6    7 ar  
    12    6   24 1   
    13    7    8 1   
    14    8    9 1   
    15    8   19 1   
    16    8   25 1   
    17    9   10 1   
    18    9   15 2   
    19   10   11 2   
    20   10   12 1   
    21   12   13 1   
    22   12   27 1   
    23   12   28 1   
    24   13   14 1   
    25   13   29 1   
    26   13   30 1   
    27   14   15 1   
    28   14   31 1   
    29   14   32 1   
    30   15   16 1   
    31   16   17 1   
    32   16   33 1   
    33   17   18 2   
    34   17   19 1   
    35   19   26 1   
@<TRIPOS>SUBSTRUCTURE
     1 KZ9         1 TEMP              0 ****  ****    0 ROOT
