@<TRIPOS>MOLECULE
KZ9
   33    35     1     0     0
SMALL
bcc


@<TRIPOS>ATOM
      1 OAB         4.8290    0.0190   -0.3080 oh        1 KZ9     -0.498100
      2 CAQ         3.5950    0.4770    0.0920 ca        1 KZ9      0.124100
      3 CAG         2.4200    0.1830   -0.6120 ca        1 KZ9     -0.194000
      4 CAE         3.5650    1.2700    1.2520 ca        1 KZ9     -0.150000
      5 CAD         2.3410    1.7510    1.7000 ca        1 KZ9     -0.099000
      6 CAF         1.1610    1.4580    1.0130 ca        1 KZ9     -0.156000
      7 CAR         1.1980    0.6780   -0.1450 ca        1 KZ9     -0.084300
      8 CAS        -0.0540    0.3390   -0.9320 c3        1 KZ9      0.199200
      9 CAP        -0.6810   -0.9240   -0.3900 ce        1 KZ9     -0.300400
     10 CAM        -0.0130   -2.1930   -0.6910 c         1 KZ9      0.603300
     11 OAA         0.9080   -2.2880   -1.5130 o         1 KZ9     -0.551100
     12 CAI        -0.5150   -3.3970    0.0600 c3        1 KZ9     -0.181400
     13 CAH        -2.0140   -3.3570    0.2430 c3        1 KZ9     -0.071400
     14 CAJ        -2.4580   -2.0910    0.9440 c3        1 KZ9     -0.059200
     15 CAO        -1.8530   -0.8690    0.3130 c2        1 KZ9      0.110400
     16 NAK        -2.5130    0.3440    0.4870 n         1 KZ9     -0.438100
     17 CAN        -2.1240    1.5080   -0.1940 c         1 KZ9      0.556400
     18 SAC        -3.0220    2.8410   -0.0600 s         1 KZ9     -0.536400
     19 NAL        -1.0030    1.4400   -0.9950 n         1 KZ9     -0.489900
     20 HAB         4.7020   -0.5380   -1.0900 ho        1 KZ9      0.424000
     21 HAG         2.4510   -0.4560   -1.5100 ha        1 KZ9      0.158000
     22 HAE         4.5010    1.4930    1.7830 ha        1 KZ9      0.152000
     23 HAD         2.3000    2.3710    2.6090 ha        1 KZ9      0.137000
     24 HAF         0.2060    1.8460    1.3980 ha        1 KZ9      0.135000
     25 HAS         0.2590    0.1340   -2.0070 h1        1 KZ9      0.091700
     26 HAL        -0.6620    2.3090   -1.3490 hn        1 KZ9      0.350500
     27 HAI1       -0.2200   -4.3300   -0.4900 hc        1 KZ9      0.077700
     28 HAI2       -0.0020   -3.4150    1.0590 hc        1 KZ9      0.077700
     29 HAH1       -2.5170   -3.4290   -0.7580 hc        1 KZ9      0.057700
     30 HAH2       -2.3420   -4.2440    0.8470 hc        1 KZ9      0.057700
     31 HAJ1       -3.5800   -2.0380    0.9320 hc        1 KZ9      0.069200
     32 HAJ2       -2.1330   -2.1170    2.0210 hc        1 KZ9      0.069200
     33 HAK        -3.3810    0.3810    0.9780 hn        1 KZ9      0.358500
@<TRIPOS>BOND
     1    1    2 1   
     2    1   20 1   
     3    2    3 ar  
     4    2    4 ar  
     5    3    7 ar  
     6    3   21 1   
     7    4    5 ar  
     8    4   22 1   
     9    5    6 ar  
    10    5   23 1   
    11    6    7 ar  
    12    6   24 1   
    13    7    8 1   
    14    8    9 1   
    15    8   19 1   
    16    8   25 1   
    17    9   10 1   
    18    9   15 2   
    19   10   11 2   
    20   10   12 1   
    21   12   13 1   
    22   12   27 1   
    23   12   28 1   
    24   13   14 1   
    25   13   29 1   
    26   13   30 1   
    27   14   15 1   
    28   14   31 1   
    29   14   32 1   
    30   15   16 1   
    31   16   17 1   
    32   16   33 1   
    33   17   18 2   
    34   17   19 1   
    35   19   26 1   
@<TRIPOS>SUBSTRUCTURE
     1 KZ9         1 TEMP              0 ****  ****    0 ROOT
