@<TRIPOS>MOLECULE
KZ9
   33    35     1     0     0
SMALL
bcc


@<TRIPOS>ATOM
      1 OAB         0.1220   -0.1980   -0.3090 oh        1 KZ9     -0.498100
      2 CAQ         1.4860   -0.0710   -0.1790 ca        1 KZ9      0.124100
      3 CAG         2.1240   -0.0630    1.0680 ca        1 KZ9     -0.194000
      4 CAE         2.2210    0.0580   -1.3700 ca        1 KZ9     -0.150000
      5 CAD         3.6030    0.1830   -1.2910 ca        1 KZ9     -0.099000
      6 CAF         4.2530    0.1840   -0.0550 ca        1 KZ9     -0.156000
      7 CAR         3.5150    0.0660    1.1260 ca        1 KZ9     -0.084300
      8 CAS         4.1730    0.0700    2.4940 c3        1 KZ9      0.199200
      9 CAP         4.5680   -1.3350    2.8830 ce        1 KZ9     -0.300400
     10 CAM         3.4980   -2.2540    3.2780 c         1 KZ9      0.603300
     11 OAA         2.3370   -1.8790    3.4890 o         1 KZ9     -0.551100
     12 CAI         3.8880   -3.7000    3.4200 c3        1 KZ9     -0.181400
     13 CAH         5.2700   -3.8500    4.0140 c3        1 KZ9     -0.071400
     14 CAJ         6.3120   -3.1130    3.1990 c3        1 KZ9     -0.059200
     15 CAO         5.8860   -1.7030    2.9050 c2        1 KZ9      0.110400
     16 NAK         6.8810   -0.7710    2.6270 ns        1 KZ9     -0.438100
     17 CAN         6.6060    0.6000    2.5030 c         1 KZ9      0.556400
     18 SAC         7.8250    1.6410    2.3280 s         1 KZ9     -0.536400
     19 NAL         5.2880    1.0000    2.5870 ns        1 KZ9     -0.489900
     20 HAB        -0.2530   -0.3150    0.5760 ho        1 KZ9      0.424000
     21 HAG         1.5410   -0.1840    1.9950 ha        1 KZ9      0.158000
     22 HAE         1.6970    0.0560   -2.3350 ha        1 KZ9      0.152000
     23 HAD         4.1930    0.2820   -2.2150 ha        1 KZ9      0.137000
     24 HAF         5.3480    0.2750   -0.0260 ha        1 KZ9      0.135000
     25 HAS         3.4000    0.4320    3.2470 h1        1 KZ9      0.091700
     26 HAL         5.1010    1.9520    2.3490 hn        1 KZ9      0.350500
     27 HAI1        3.8510   -4.1670    2.3990 hc        1 KZ9      0.077700
     28 HAI2        3.1350   -4.2290    4.0620 hc        1 KZ9      0.077700
     29 HAH1        5.2710   -3.4610    5.0670 hc        1 KZ9      0.057700
     30 HAH2        5.5420   -4.9380    4.0590 hc        1 KZ9      0.057700
     31 HAJ1        7.2910   -3.1330    3.7490 hc        1 KZ9      0.069200
     32 HAJ2        6.4660   -3.6360    2.2150 hc        1 KZ9      0.069200
     33 HAK         7.8440   -1.0320    2.6680 hn        1 KZ9      0.358500
@<TRIPOS>BOND
     1    1    2 1   
     2    1   20 1   
     3    2    3 ar  
     4    2    4 ar  
     5    3    7 ar  
     6    3   21 1   
     7    4    5 ar  
     8    4   22 1   
     9    5    6 ar  
    10    5   23 1   
    11    6    7 ar  
    12    6   24 1   
    13    7    8 1   
    14    8    9 1   
    15    8   19 1   
    16    8   25 1   
    17    9   10 1   
    18    9   15 2   
    19   10   11 2   
    20   10   12 1   
    21   12   13 1   
    22   12   27 1   
    23   12   28 1   
    24   13   14 1   
    25   13   29 1   
    26   13   30 1   
    27   14   15 1   
    28   14   31 1   
    29   14   32 1   
    30   15   16 1   
    31   16   17 1   
    32   16   33 1   
    33   17   18 2   
    34   17   19 1   
    35   19   26 1   
@<TRIPOS>SUBSTRUCTURE
     1 KZ9         1 TEMP              0 ****  ****    0 ROOT
