@<TRIPOS>MOLECULE
KZ9
   33    33     1     0     0
SMALL
bcc


@<TRIPOS>ATOM
      1 OAB        -0.4770   -2.5740   -4.3280 oh        1 KZ9     -0.252000
      2 CAQ        -0.3460   -1.4800   -3.4220 c2        1 KZ9      0.079000
      3 CAG         0.2590   -1.6710   -2.1850 c2        1 KZ9     -0.194000
      4 CAE        -0.7770   -0.1970   -3.8030 c1        1 KZ9     -0.150000
      5 CAD        -0.5990    0.8790   -2.9440 c1        1 KZ9     -0.127500
      6 CAF         0.0110    0.6870   -1.6970 c1        1 KZ9     -0.127500
      7 CAR         0.4390   -0.5830   -1.3180 c1        1 KZ9     -0.077000
      8 CAS         1.1810   -0.7800    0.0390 c3        1 KZ9      0.111000
      9 CAP         0.7340    0.3030    0.8470 c2        1 KZ9     -0.277000
     10 CAM         1.6190    1.5380    1.2560 c2        1 KZ9      0.295000
     11 OAA         2.8170    1.5520    0.9800 o         1 KZ9     -0.312000
     12 CAI         1.0630    2.5250    2.2340 c3        1 KZ9     -0.210000
     13 CAH         0.0360    1.9270    3.1180 c3        1 KZ9     -0.150000
     14 CAJ        -1.1240    1.2310    2.4760 c3        1 KZ9     -0.142000
     15 CAO        -0.6630    0.1530    1.4950 c2        1 KZ9      0.112000
     16 NAK        -1.3430   -1.1590    1.3220 n         1 KZ9     -0.282000
     17 CAN        -0.5840   -2.2490    0.7110 c2        1 KZ9      0.139000
     18 SAC        -1.1980   -3.8160    0.7350 s         1 KZ9     -0.253000
     19 NAL         0.7800   -2.0350    0.4740 n         1 KZ9     -0.299000
     20 HAB        -1.2780   -2.9900   -4.1880 ho        1 KZ9      0.223000
     21 HAG         0.5660   -2.5860   -1.9120 ha        1 KZ9      0.158000
     22 HAE        -1.2000   -0.0630   -4.6680 ha        1 KZ9      0.152000
     23 HAD        -0.9040    1.7890   -3.2150 ha        1 KZ9      0.136000
     24 HAF         0.1390    1.4590   -1.0830 ha        1 KZ9      0.136000
     25 HAS         2.1140   -0.7310   -0.1880 h1        1 KZ9      0.131000
     26 HAL         1.3340   -2.7270    0.4090 hn        1 KZ9      0.264000
     27 HAI1        0.7360    3.3910    1.9260 hc        1 KZ9      0.117000
     28 HAI2        1.8600    2.8170    2.7590 hc        1 KZ9      0.117000
     29 HAH1        0.4710    1.3010    3.6830 hc        1 KZ9      0.097000
     30 HAH2       -0.3150    2.6260    3.6700 hc        1 KZ9      0.097000
     31 HAJ1       -1.7520    0.9280    3.1690 hc        1 KZ9      0.108500
     32 HAJ2       -1.5030    1.8650    1.8990 hc        1 KZ9      0.108500
     33 HAK        -2.0970   -1.3280    1.7510 hn        1 KZ9      0.272000
@<TRIPOS>BOND
     1    1    2 1   
     2    1   20 1   
     3    2    3 1   
     4    2    4 1   
     5    3    7 1   
     6    3   21 1   
     7    4   22 1   
     8    5    6 1   
     9    5   23 1   
    10    6   24 1   
    11    7    8 1   
    12    8    9 1   
    13    8   19 1   
    14    8   25 1   
    15    9   10 1   
    16    9   15 1   
    17   10   11 1   
    18   10   12 1   
    19   12   13 1   
    20   12   27 1   
    21   12   28 1   
    22   13   14 1   
    23   13   29 1   
    24   13   30 1   
    25   14   15 1   
    26   14   31 1   
    27   14   32 1   
    28   15   16 1   
    29   16   17 1   
    30   16   33 1   
    31   17   18 1   
    32   17   19 1   
    33   19   26 1   
@<TRIPOS>SUBSTRUCTURE
     1 KZ9         1 TEMP              0 ****  ****    0 ROOT
