@<TRIPOS>MOLECULE
KZ9
   33    35     1     0     0
SMALL
bcc


@<TRIPOS>ATOM
      1 OAB         0.1100   -0.2020   -0.2890 oh        1 KZ9     -0.498100
      2 CAQ         1.4750   -0.0810   -0.1700 ca        1 KZ9      0.124100
      3 CAG         2.1230   -0.0610    1.0710 ca        1 KZ9     -0.194000
      4 CAE         2.2020    0.0290   -1.3680 ca        1 KZ9     -0.150000
      5 CAD         3.5850    0.1470   -1.3020 ca        1 KZ9     -0.099000
      6 CAF         4.2440    0.1600   -0.0700 ca        1 KZ9     -0.156000
      7 CAR         3.5150    0.0600    1.1170 ca        1 KZ9     -0.084300
      8 CAS         4.1830    0.0770    2.4800 c3        1 KZ9      0.199200
      9 CAP         4.5750   -1.3250    2.8830 ce        1 KZ9     -0.300400
     10 CAM         3.5030   -2.2340    3.2960 c         1 KZ9      0.603300
     11 OAA         2.3450   -1.8520    3.5100 o         1 KZ9     -0.551100
     12 CAI         3.8880   -3.6810    3.4530 c3        1 KZ9     -0.181400
     13 CAH         5.2730   -3.8300    4.0390 c3        1 KZ9     -0.071400
     14 CAJ         6.3130   -3.1070    3.2080 c3        1 KZ9     -0.059200
     15 CAO         5.8910   -1.6980    2.9000 c2        1 KZ9      0.110400
     16 NAK         6.8880   -0.7750    2.6030 n         1 KZ9     -0.438100
     17 CAN         6.6180    0.5960    2.4650 c         1 KZ9      0.556400
     18 SAC         7.8410    1.6290    2.2690 s         1 KZ9     -0.536400
     19 NAL         5.3030    1.0030    2.5530 n         1 KZ9     -0.489900
     20 HAB        -0.2590   -0.3060    0.6010 ho        1 KZ9      0.424000
     21 HAG         1.5460   -0.1680    2.0050 ha        1 KZ9      0.158000
     22 HAE         1.6710    0.0180   -2.3300 ha        1 KZ9      0.152000
     23 HAD         4.1690    0.2320   -2.2310 ha        1 KZ9      0.137000
     24 HAF         5.3400    0.2450   -0.0510 ha        1 KZ9      0.135000
     25 HAS         3.4170    0.4510    3.2340 h1        1 KZ9      0.091700
     26 HAL         5.1190    1.9530    2.3060 hn        1 KZ9      0.350500
     27 HAI1        3.8420   -4.1590    2.4370 hc        1 KZ9      0.077700
     28 HAI2        3.1370   -4.1980    4.1060 hc        1 KZ9      0.077700
     29 HAH1        5.2830   -3.4280    5.0870 hc        1 KZ9      0.057700
     30 HAH2        5.5410   -4.9180    4.0940 hc        1 KZ9      0.057700
     31 HAJ1        6.4570   -3.6430    2.2280 hc        1 KZ9      0.069200
     32 HAJ2        7.2950   -3.1260    3.7510 hc        1 KZ9      0.069200
     33 HAK         7.8510   -1.0390    2.6410 hn        1 KZ9      0.358500
@<TRIPOS>BOND
     1    1    2 1   
     2    1   20 1   
     3    2    3 ar  
     4    2    4 ar  
     5    3    7 ar  
     6    3   21 1   
     7    4    5 ar  
     8    4   22 1   
     9    5    6 ar  
    10    5   23 1   
    11    6    7 ar  
    12    6   24 1   
    13    7    8 1   
    14    8    9 1   
    15    8   19 1   
    16    8   25 1   
    17    9   10 1   
    18    9   15 2   
    19   10   11 2   
    20   10   12 1   
    21   12   13 1   
    22   12   27 1   
    23   12   28 1   
    24   13   14 1   
    25   13   29 1   
    26   13   30 1   
    27   14   15 1   
    28   14   31 1   
    29   14   32 1   
    30   15   16 1   
    31   16   17 1   
    32   16   33 1   
    33   17   18 2   
    34   17   19 1   
    35   19   26 1   
@<TRIPOS>SUBSTRUCTURE
     1 KZ9         1 TEMP              0 ****  ****    0 ROOT
