@<TRIPOS>MOLECULE
KZI
   54    56     1     0     0
SMALL
bcc


@<TRIPOS>ATOM
      1 O1          1.6990   -4.2320    0.8550 o         1 KZI     -0.653100
      2 O2          2.2860    3.1000    1.6170 os        1 KZI     -0.324900
      3 O3          5.6400    0.7890   -1.1100 os        1 KZI     -0.324900
      4 N4         -0.4250   -0.5290    0.0390 nb        1 KZI     -0.783000
      5 N5         -2.5640    0.4120   -0.3320 nh        1 KZI     -0.829900
      6 N6          0.1650   -5.3660   -0.3560 n         1 KZI     -0.647000
      7 N8         -1.5700   -3.1220   -0.0050 nb        1 KZI     -0.572000
      8 C10         4.0360    2.0610    0.2460 ca        1 KZI     -0.291000
      9 C11        -4.8430    0.0510   -1.2610 c3        1 KZI     -0.085400
     10 C12         3.6820   -0.2720   -0.3990 ca        1 KZI     -0.205500
     11 C13         0.3640   -1.6470    0.1650 ca        1 KZI      0.673900
     12 C14         0.6010   -4.2140    0.2500 c         1 KZI      0.593600
     13 C15        -2.3330   -2.0430   -0.1170 ca        1 KZI      0.166900
     14 C16         2.0170    0.8700    0.9660 ca        1 KZI     -0.205500
     15 C17        -0.2300   -2.9760    0.1300 ca        1 KZI      0.103500
     16 C18         2.4460   -0.2850    0.2890 ca        1 KZI      0.215600
     17 C19         2.8140    2.0250    0.9250 ca        1 KZI      0.168100
     18 C20        -3.9800    0.3740   -0.0280 c3        1 KZI      0.222500
     19 C21         3.0710    4.2860    1.6350 c3        1 KZI      0.114700
     20 C22        -1.7700   -0.7050   -0.1100 ca        1 KZI      0.620900
     21 C23         4.4540    0.8950   -0.4070 ca        1 KZI      0.168100
     22 C24        -4.5030    1.7140    0.5930 c3        1 KZI      0.160500
     23 C25        -4.8430    1.1710   -2.2770 c3        1 KZI     -0.077400
     24 C26        -5.3110    2.4710   -1.6580 c3        1 KZI     -0.078400
     25 C27         6.4580    1.9520   -1.1490 c3        1 KZI      0.114700
     26 C28        -4.4780    2.8400   -0.4500 c3        1 KZI     -0.078400
     27 N42        -3.7540    2.0620    1.7860 n3        1 KZI     -0.925800
     28 HN5        -2.1260    1.3040   -0.2180 hn        1 KZI      0.449800
     29 HN6         0.6750   -6.2000   -0.1980 hn        1 KZI      0.315500
     30 HN6A       -0.7430   -5.4350   -0.7380 hn        1 KZI      0.315500
     31 HN9         2.2780   -2.3320    0.3640 hn        1 KZI      0.485800
     32 H10         4.6470    2.9710    0.2260 ha        1 KZI      0.142000
     33 H11        -4.4750   -0.8920   -1.7430 hc        1 KZI      0.049200
     34 H11A       -5.8890   -0.1350   -0.9020 hc        1 KZI      0.049200
     35 H12         4.0550   -1.1610   -0.9290 ha        1 KZI      0.164000
     36 H15        -3.4140   -2.2140   -0.2340 h4        1 KZI      0.031100
     37 H16         1.0740    0.9010    1.5320 ha        1 KZI      0.164000
     38 H20        -4.1760   -0.4400    0.7370 h1        1 KZI      0.047700
     39 H21         4.0610    4.0990    2.1170 h1        1 KZI      0.043533
     40 H21A        3.2080    4.6840    0.6000 h1        1 KZI      0.043533
     41 H21B        2.4590    4.9920    2.2510 h1        1 KZI      0.043533
     42 H24        -5.5940    1.5110    0.8350 h1        1 KZI      0.020700
     43 H25        -3.8110    1.3020   -2.6960 hc        1 KZI      0.050200
     44 H25A       -5.5190    0.8970   -3.1290 hc        1 KZI      0.050200
     45 H26        -5.2430    3.2930   -2.4180 hc        1 KZI      0.042700
     46 H26A       -6.3880    2.3780   -1.3590 hc        1 KZI      0.042700
     47 H27         5.9220    2.7950   -1.6490 h1        1 KZI      0.043533
     48 H27A        6.7770    2.2460   -0.1200 h1        1 KZI      0.043533
     49 H27B        7.3400    1.6280   -1.7580 h1        1 KZI      0.043533
     50 H28        -4.8860    3.7800    0.0060 hc        1 KZI      0.050200
     51 H28A       -3.4240    3.0540   -0.7660 hc        1 KZI      0.050200
     52 HN42       -4.0050    2.9730    2.1110 hn        1 KZI      0.359800
     53 HN4A       -3.9060    1.3880    2.5090 hn        1 KZI      0.359800
     54 N9          1.7270   -1.4950    0.3170 nh        1 KZI     -0.741300
@<TRIPOS>BOND
     1    1   12 2   
     2    2   17 1   
     3    2   19 1   
     4    3   21 1   
     5    3   25 1   
     6    4   11 ar  
     7    4   20 ar  
     8    5   18 1   
     9    5   20 1   
    10    5   28 1   
    11    6   12 1   
    12    6   29 1   
    13    6   30 1   
    14    7   13 ar  
    15    7   15 ar  
    16    8   17 ar  
    17    8   21 ar  
    18    8   32 1   
    19    9   18 1   
    20    9   23 1   
    21    9   33 1   
    22    9   34 1   
    23   10   16 ar  
    24   10   21 ar  
    25   10   35 1   
    26   11   15 ar  
    27   11   54 1   
    28   12   15 1   
    29   13   20 ar  
    30   13   36 1   
    31   14   16 ar  
    32   14   17 ar  
    33   14   37 1   
    34   16   54 1   
    35   18   22 1   
    36   18   38 1   
    37   19   39 1   
    38   19   40 1   
    39   19   41 1   
    40   22   26 1   
    41   22   27 1   
    42   22   42 1   
    43   23   24 1   
    44   23   43 1   
    45   23   44 1   
    46   24   26 1   
    47   24   45 1   
    48   24   46 1   
    49   25   47 1   
    50   25   48 1   
    51   25   49 1   
    52   26   50 1   
    53   26   51 1   
    54   27   52 1   
    55   27   53 1   
    56   31   54 1   
@<TRIPOS>SUBSTRUCTURE
     1 KZI         1 TEMP              0 ****  ****    0 ROOT
