@<TRIPOS>MOLECULE
KZI
   56    56     1     0     0
SMALL
bcc


@<TRIPOS>ATOM
      1 O1         -0.4060    0.1870    0.2960 o         1 KZI     -0.238000
      2 O2         -1.9930    0.2800    7.1860 oh        1 KZI     -0.301000
      3 O3         -3.8320   -3.0660    4.1130 os        1 KZI      0.091000
      4 N4          2.0790   -0.2710    3.9040 n2        1 KZI     -0.224000
      5 N5          4.1340    0.3250    4.9020 nu        1 KZI     -0.289000
      6 N8          2.9250    0.9190    1.4660 n2        1 KZI     -0.058000
      7 C10        -2.9910   -1.5650    5.9190 c3        1 KZI     -0.140000
      8 C11         5.8520   -1.5030    5.1390 c3        1 KZI     -0.215000
      9 C12        -1.7750   -2.1290    3.7600 c1        1 KZI     -0.269000
     10 C13         1.1850   -0.2020    2.8210 c2        1 KZI      0.246000
     11 C14         0.7650    0.5330    0.4370 c2        1 KZI      0.338000
     12 C15         3.7320    0.8530    2.4940 c2        1 KZI     -0.177000
     13 C16        -0.8150   -0.4250    5.3080 c2        1 KZI     -0.313000
     14 C17         1.6470    0.4200    1.5720 c2        1 KZI     -0.339000
     15 C18        -0.5710   -1.3700    4.1710 c3        1 KZI      0.109000
     16 C19        -1.8970   -0.5540    6.1090 c2        1 KZI      0.110000
     17 C20         5.5310   -0.0400    4.7850 c3        1 KZI      0.005000
     18 C21        -4.3160    0.3670    8.7450 c1        1 KZI     -0.054000
     19 C22         3.2990    0.2550    3.7700 c2        1 KZI      0.159000
     20 C23        -2.8000   -2.2450    4.6180 c2        1 KZI     -0.206000
     21 C24         6.3590    0.9770    5.6810 c3        1 KZI     -0.096000
     22 C25         6.6930   -1.6810    6.3820 c3        1 KZI     -0.177000
     23 C26         7.9660   -0.8680    6.2960 c3        1 KZI     -0.271000
     24 C27        -4.8810   -3.3500    4.7910 c2        1 KZI      0.050000
     25 C28         7.7380    0.4950    5.8880 c2        1 KZI      0.287000
     26 N42         6.3210    2.3490    5.2530 n8        1 KZI     -0.351000
     27 HN5         3.7120   -0.0130    5.7520 hn        1 KZI      0.235000
     28 HN6         0.6110    1.2040   -1.5460 hn        1 KZI      0.262333
     29 HN6A        2.1440    0.6610   -1.1460 hn        1 KZI      0.262333
     30 HN9        -0.6720   -0.7450    2.1730 hn        1 KZI      0.290000
     31 H10        -2.9640   -2.2940    6.7760 hc        1 KZI      0.100000
     32 H11         6.3900   -1.9580    4.2630 hc        1 KZI      0.131000
     33 H11A        4.9050   -2.0980    5.2680 hc        1 KZI      0.131000
     34 H12         0.2040   -2.1340    4.5080 h1        1 KZI      0.132000
     35 H15         4.7370    1.2890    2.3750 h4        1 KZI      0.176000
     36 H16        -0.0630    0.3450    5.5200 ha        1 KZI      0.146000
     37 H20         5.8630    0.1320    3.7160 h1        1 KZI      0.127000
     38 H21        -2.8620    0.1350    7.6580 ho        1 KZI      0.276000
     39 H21A       -4.0740    0.9010    9.6730 ha        1 KZI      0.052500
     40 H21B       -5.3910    0.1920    8.6110 ha        1 KZI      0.052500
     41 H24         5.9120    0.9020    6.7450 h1        1 KZI      0.204000
     42 H25         6.1070   -1.3790    7.2940 hc        1 KZI      0.134000
     43 H25A        8.7140   -1.3470    5.5800 hc        1 KZI      0.221500
     44 H26         8.5250   -0.8830    7.2900 hc        1 KZI      0.221500
     45 H26A        6.9510   -2.7690    6.5050 hc        1 KZI      0.134000
     46 H27        -5.0820   -2.9720    5.8060 h4        1 KZI      0.181000
     47 H27A       -3.9830   -1.0320    5.9590 hc        1 KZI      0.100000
     48 H27B       -5.5880   -4.0260    4.2680 h4        1 KZI      0.181000
     49 H28         3.8640    0.0130    8.3050 ha        1 KZI      0.002500
     50 H28A        4.3970   -0.0370    7.8880 ha        1 KZI      0.002500
     51 HN42        8.5950    1.1970    5.7760 ha        1 KZI      0.208000
     52 HN4A        6.2200    2.4410    4.2630 hn        1 KZI      0.197000
     53 H63         1.6260    2.1460   -0.6030 hn        1 KZI      0.262333
     54 H423        5.6150    2.8740    5.7300 hn        1 KZI      0.197000
     55 N9         -0.0450   -0.7100    2.9620 nu        1 KZI     -0.169000
     56 N6          1.3320    1.1880   -0.8150 nz        1 KZI     -0.127000
@<TRIPOS>BOND
     1    1   11 1   
     2    2   16 1   
     3    2   38 1   
     4    3   20 1   
     5    3   24 1   
     6    4   10 1   
     7    4   19 1   
     8    5   17 1   
     9    5   19 1   
    10    5   27 1   
    11    6   12 1   
    12    6   14 1   
    13    7   16 1   
    14    7   20 1   
    15    7   31 1   
    16    7   47 1   
    17    8   17 1   
    18    8   22 1   
    19    8   32 1   
    20    8   33 1   
    21    9   15 1   
    22    9   20 1   
    23   10   14 1   
    24   10   55 1   
    25   11   14 1   
    26   11   56 1   
    27   12   19 1   
    28   12   35 1   
    29   13   15 1   
    30   13   16 1   
    31   13   36 1   
    32   15   34 1   
    33   15   55 1   
    34   17   21 1   
    35   17   37 1   
    36   18   39 1   
    37   18   40 1   
    38   21   25 1   
    39   21   26 1   
    40   21   41 1   
    41   22   23 1   
    42   22   42 1   
    43   22   45 1   
    44   23   25 1   
    45   23   43 1   
    46   23   44 1   
    47   24   46 1   
    48   24   48 1   
    49   25   51 1   
    50   26   52 1   
    51   26   54 1   
    52   28   56 1   
    53   29   56 1   
    54   30   55 1   
    55   49   50 1   
    56   53   56 1   
@<TRIPOS>SUBSTRUCTURE
     1 KZI         1 TEMP              0 ****  ****    0 ROOT
