@<TRIPOS>MOLECULE
KZI
   56    55     1     0     0
SMALL
bcc


@<TRIPOS>ATOM
      1 O1         -0.0740   -0.4050    0.4400 o         1 KZI     -0.230000
      2 O2         -2.5860    1.2260    6.8000 oh        1 KZI     -0.261000
      3 O3         -3.5920   -2.9440    4.5970 os        1 KZI      0.049000
      4 N4          2.2050    0.0780    4.1790 n2        1 KZI     -0.218000
      5 N5          4.2630    0.8390    5.0900 nh        1 KZI     -0.299000
      6 N8          3.2450    0.4370    1.5590 n2        1 KZI     -0.057000
      7 C10        -3.1040   -0.9300    5.9880 c3        1 KZI     -0.097000
      8 C11         5.5990   -1.2070    5.7400 c3        1 KZI     -0.187000
      9 C12        -1.5430   -1.9340    4.2710 c1        1 KZI     -0.330000
     10 C13         1.3790   -0.1700    3.0650 c2        1 KZI      0.238000
     11 C14         1.1250   -0.1610    0.5480 c2        1 KZI      0.337000
     12 C15         3.9930    0.6490    2.6130 c2        1 KZI     -0.177000
     13 C16        -0.9490    0.2450    5.3390 c2        1 KZI     -0.321000
     14 C17         1.9400    0.0400    1.7220 c2        1 KZI     -0.336000
     15 C18        -0.4750   -0.9520    4.5630 c3        1 KZI      0.117000
     16 C19        -2.1250    0.2090    5.9980 c2        1 KZI      0.090000
     17 C20         5.5870    0.2280    5.1720 c3        1 KZI     -0.023000
     18 C21        -5.3450   -1.6260    7.4790 c1        1 KZI     -0.040000
     19 C22         3.4600    0.4800    3.9750 c2        1 KZI      0.143000
     20 C23        -2.6770   -1.9180    4.9680 c2        1 KZI     -0.186000
     21 C24         6.5080    1.1130    6.0890 c3        1 KZI      0.076000
     22 C25         6.4970   -2.1130    4.9390 c3        1 KZI     -0.221000
     23 C26         8.9970    0.2530    6.0170 c1        1 KZI      0.011000
     24 C27        -4.6640   -3.1570    5.2690 c2        1 KZI     -0.010000
     25 C28         7.8720    0.6660    6.0240 c1        1 KZI     -0.334000
     26 N42         6.4400    2.5800    5.7120 n4        1 KZI     -0.068000
     27 HN5         3.7680    0.7350    5.9650 hn        1 KZI      0.216000
     28 HN6         1.1460   -0.2480   -1.5490 hn        1 KZI      0.263333
     29 HN6A        2.5830   -0.7480   -0.8490 hn        1 KZI      0.263333
     30 HN9        -0.4430   -0.8630    2.4740 hn        1 KZI      0.290000
     31 H10        -3.1270   -1.3820    7.0210 hc        1 KZI      0.099500
     32 H11         4.5570   -1.6290    5.7340 hc        1 KZI      0.113500
     33 H11A        5.9310   -1.1940    6.8120 hc        1 KZI      0.113500
     34 H12         0.3150   -1.4810    5.1860 h1        1 KZI      0.131000
     35 H15         5.0310    0.9710    2.4370 h4        1 KZI      0.176000
     36 H16        -0.2870    1.1180    5.3930 ha        1 KZI      0.131000
     37 H20         6.0410    0.2120    4.1370 h1        1 KZI      0.132000
     38 H21        -1.9660    1.9690    6.7530 ho        1 KZI      0.227000
     39 H21A       -4.9840   -1.8520    8.4900 ha        1 KZI      0.081000
     40 H21B       -5.9140   -0.6920    7.3930 ha        1 KZI      0.081000
     41 H24         6.1310    1.0500    7.1620 hx        1 KZI      0.169000
     42 H25         7.5490   -1.7340    4.9380 hc        1 KZI      0.094000
     43 H25A        6.1470   -2.1950    3.8820 hc        1 KZI      0.094000
     44 H26         6.4940   -3.1380    5.3880 hc        1 KZI      0.094000
     45 H26A       10.0020   -0.1130    6.0120 ha        1 KZI      0.268000
     46 H27        -4.1250   -0.5170    5.7510 hc        1 KZI      0.099500
     47 H27A       -5.0070   -2.5450    6.2270 h4        1 KZI      0.222000
     48 H27B       -5.2620   -3.9970    4.8540 h4        1 KZI      0.222000
     49 H28         4.0170   -0.0460    8.5600 ha        1 KZI      0.001500
     50 H28A        4.3690    0.0750    7.9920 ha        1 KZI      0.001500
     51 HN42        7.1380    3.1050    6.2500 hn        1 KZI      0.259333
     52 HN4A        5.5060    2.9500    5.9110 hn        1 KZI      0.259333
     53 H63         2.2190    0.8730   -0.9220 hn        1 KZI      0.263333
     54 H423        6.6360    2.6930    4.7140 hn        1 KZI      0.259333
     55 N9          0.1270   -0.5940    3.2640 nh        1 KZI     -0.164000
     56 N6          1.8240   -0.0630   -0.8000 n4        1 KZI     -0.127000
@<TRIPOS>BOND
     1    1   11 1   
     2    2   16 1   
     3    2   38 1   
     4    3   20 1   
     5    3   24 1   
     6    4   10 1   
     7    4   19 1   
     8    5   17 1   
     9    5   19 1   
    10    5   27 1   
    11    6   12 1   
    12    6   14 1   
    13    7   16 1   
    14    7   20 1   
    15    7   31 1   
    16    7   46 1   
    17    8   17 1   
    18    8   22 1   
    19    8   32 1   
    20    8   33 1   
    21    9   15 1   
    22    9   20 1   
    23   10   14 1   
    24   10   55 1   
    25   11   14 1   
    26   11   56 1   
    27   12   19 1   
    28   12   35 1   
    29   13   15 1   
    30   13   16 1   
    31   13   36 1   
    32   15   34 1   
    33   15   55 1   
    34   17   21 1   
    35   17   37 1   
    36   18   39 1   
    37   18   40 1   
    38   21   25 1   
    39   21   26 1   
    40   21   41 1   
    41   22   42 1   
    42   22   43 1   
    43   22   44 1   
    44   23   25 1   
    45   23   45 1   
    46   24   47 1   
    47   24   48 1   
    48   26   51 1   
    49   26   52 1   
    50   26   54 1   
    51   28   56 1   
    52   29   56 1   
    53   30   55 1   
    54   49   50 1   
    55   53   56 1   
@<TRIPOS>SUBSTRUCTURE
     1 KZI         1 TEMP              0 ****  ****    0 ROOT
