@<TRIPOS>MOLECULE
KZI
   54    51     1     0     0
SMALL
bcc


@<TRIPOS>ATOM
      1 O1         -0.0720   -1.9620   -4.4190 o         1 KZI     -0.411000
      2 O2         -5.7510    0.4500   -1.9550 os        1 KZI     -0.209000
      3 O3         -4.1200   -0.7800    2.5050 os        1 KZI     -0.209000
      4 N4          0.6120   -0.7460   -0.4010 n1        1 KZI     -0.246000
      5 N5          2.7400    0.0050    0.4620 n3        1 KZI     -0.276000
      6 N6         -0.9680    0.0720   -4.9420 n         1 KZI     -0.406000
      7 N8          1.2640    0.2300   -2.8630 n1        1 KZI     -0.045000
      8 N9         -1.4460   -1.6230   -1.2520 n3        1 KZI     -0.249000
      9 C10        -5.0000   -0.0340    0.3000 c1        1 KZI     -0.236000
     10 C11         5.1090   -0.1960    0.3680 c3        1 KZI     -0.169000
     11 C12        -2.7840   -0.8940    0.6420 c1        1 KZI     -0.236000
     12 C13        -0.2520   -0.8680   -1.4210 c2        1 KZI      0.197000
     13 C14        -0.3200   -0.8280   -4.0580 c2        1 KZI      0.381000
     14 C15         2.1270    0.3520   -1.8430 c1        1 KZI     -0.229000
     15 C16        -3.6360   -0.6230   -1.5870 c1        1 KZI     -0.228000
     16 C17         0.0800   -0.3720   -2.6720 c2        1 KZI     -0.238000
     17 C18        -2.6120   -1.0000   -0.7300 c1        1 KZI      0.124000
     18 C19        -4.8290   -0.1400   -1.0720 c1        1 KZI      0.123500
     19 C20         3.7940    0.6950    0.2800 c3        1 KZI      0.028000
     20 C21        -7.0610   -0.0650   -1.8430 c3        1 KZI     -0.075000
     21 C22         1.7950   -0.1440   -0.5920 c1        1 KZI      0.159000
     22 C23        -3.9770   -0.4120    1.1570 c1        1 KZI      0.123500
     23 C24         4.1170    1.6260    1.5270 c3        1 KZI     -0.035000
     24 C25         5.2120   -0.9730    1.6590 c3        1 KZI     -0.153000
     25 C26         4.4150   -0.4540    2.6150 c3        1 KZI     -0.156000
     26 C27        -4.3870    0.3030    3.3680 c3        1 KZI     -0.075000
     27 C28         4.2120    0.8630    2.8270 c3        1 KZI     -0.158000
     28 N42         3.1030    2.5920    1.6440 n3        1 KZI     -0.357000
     29 HN5         2.5710   -0.3620    1.2800 hn        1 KZI      0.246000
     30 HN6        -1.4520   -0.2490   -5.6480 hn        1 KZI      0.229500
     31 HN6A       -0.9180    0.9730   -4.7940 hn        1 KZI      0.229500
     32 HN9        -1.4700   -2.5000   -1.5010 hn        1 KZI      0.270000
     33 H10        -5.8570    0.2590    0.6630 ha        1 KZI      0.154500
     34 H11         5.8900    0.3880    0.2910 hc        1 KZI      0.091000
     35 H11A        5.1120   -0.8260   -0.3790 hc        1 KZI      0.091000
     36 H12        -2.0660   -1.1640    1.2450 ha        1 KZI      0.154500
     37 H15         2.9880    0.7900   -1.9830 ha        1 KZI      0.170000
     38 H16        -3.5060   -0.6730   -2.5530 ha        1 KZI      0.158000
     39 H20         3.7590    1.2060   -0.5520 h1        1 KZI      0.086000
     40 H21        -7.5240    0.0280   -2.7040 h1        1 KZI      0.082667
     41 H21A       -7.5500    0.4330   -1.1530 h1        1 KZI      0.082667
     42 H21B       -7.0190   -1.0130   -1.5940 h1        1 KZI      0.082667
     43 H24         4.9670    2.0800    1.3670 h1        1 KZI      0.063000
     44 H25         4.9490   -1.9020    1.4950 hc        1 KZI      0.081000
     45 H25A        6.1400   -0.9540    1.9710 hc        1 KZI      0.081000
     46 H26         4.7440   -0.8160    3.4660 hc        1 KZI      0.088500
     47 H26A        3.5280   -0.8420    2.4660 hc        1 KZI      0.088500
     48 H27        -3.6800    0.9790    3.2740 h1        1 KZI      0.082667
     49 H27A       -4.4120   -0.0160    4.2960 h1        1 KZI      0.082667
     50 H27B       -5.2530    0.7010    3.1360 h1        1 KZI      0.082667
     51 H28         4.9560    1.2210    3.3540 hc        1 KZI      0.088000
     52 H28A        3.3790    0.9810    3.3280 hc        1 KZI      0.088000
     53 HN42        3.2480    3.2610    1.0360 hn        1 KZI      0.154000
     54 HN4A        3.1100    2.9410    2.4900 hn        1 KZI      0.154000
@<TRIPOS>BOND
     1    1   13 1   
     2    2   18 1   
     3    2   20 1   
     4    3   22 1   
     5    3   26 1   
     6    4   12 1   
     7    5   19 1   
     8    5   21 1   
     9    5   29 1   
    10    6   13 1   
    11    6   30 1   
    12    6   31 1   
    13    7   16 1   
    14    8   12 1   
    15    8   17 1   
    16    8   32 1   
    17    9   18 1   
    18    9   33 1   
    19   10   19 1   
    20   10   24 1   
    21   10   34 1   
    22   10   35 1   
    23   11   22 1   
    24   11   36 1   
    25   12   16 1   
    26   13   16 1   
    27   14   21 1   
    28   14   37 1   
    29   15   17 1   
    30   15   38 1   
    31   19   23 1   
    32   19   39 1   
    33   20   40 1   
    34   20   41 1   
    35   20   42 1   
    36   23   27 1   
    37   23   28 1   
    38   23   43 1   
    39   24   25 1   
    40   24   44 1   
    41   24   45 1   
    42   25   27 1   
    43   25   46 1   
    44   25   47 1   
    45   26   48 1   
    46   26   49 1   
    47   26   50 1   
    48   27   51 1   
    49   27   52 1   
    50   28   53 1   
    51   28   54 1   
@<TRIPOS>SUBSTRUCTURE
     1 KZI         1 TEMP              0 ****  ****    0 ROOT
