@<TRIPOS>MOLECULE
KZL
   55    57     1     0     0
SMALL
bcc


@<TRIPOS>ATOM
      1 C1          0.1690   -0.2620   -0.3530 ca        1 KZL      0.183600
      2 C2          1.5100   -0.5360   -0.0640 ca        1 KZL     -0.257000
      3 C3          1.9840   -0.2620    1.2260 ca        1 KZL      0.183600
      4 C4          1.1390    0.2720    2.2190 ca        1 KZL     -0.198000
      5 C5         -0.1990    0.5470    1.8940 ca        1 KZL      0.141600
      6 C6         -0.6970    0.2900    0.6070 ca        1 KZL     -0.198000
      7 O7         -0.4260   -0.5340   -1.5660 os        1 KZL     -0.325900
      8 C8          0.4570   -0.7540   -2.6680 c3        1 KZL      0.107700
      9 O9          3.2680   -0.4920    1.6470 os        1 KZL     -0.325900
     10 C10         4.2010   -0.9430    0.6630 c3        1 KZL      0.107700
     11 N11        -1.0160    1.1700    2.8840 nu        1 KZL     -0.656300
     12 C12        -2.2150    0.7220    3.3240 cc        1 KZL      0.829200
     13 N13        -2.7010   -0.4790    2.7710 nc        1 KZL     -0.776000
     14 C14        -3.8720   -0.9960    3.1500 cd        1 KZL      0.849400
     15 N15        -4.6580   -0.3670    4.1380 na        1 KZL     -0.310000
     16 C16        -4.2190    0.8620    4.7260 cd        1 KZL      0.019700
     17 C17        -2.9660    1.4430    4.3330 cd        1 KZL     -0.430900
     18 C18        -2.4880    2.6580    4.9150 c         1 KZL      0.595700
     19 O19        -1.4380    3.2700    4.6910 o         1 KZL     -0.507100
     20 N20        -3.3290    3.3500    5.9620 nz        1 KZL     -0.733400
     21 N21        -5.1770    1.2490    5.6200 nc        1 KZL     -0.158000
     22 N22        -6.1630    0.3620    5.6300 nc        1 KZL     -0.274700
     23 C23        -5.9060   -0.6330    4.7560 cd        1 KZL      0.346700
     24 N24        -4.4310   -2.1670    2.5630 nu        1 KZL     -0.848900
     25 C25        -3.6970   -2.9460    1.5520 c3        1 KZL      0.213200
     26 C26        -4.6980   -4.0080    0.9720 c3        1 KZL      0.082800
     27 C27        -3.1740   -2.1110    0.3770 c3        1 KZL     -0.134600
     28 C28        -2.5360   -3.7670    2.1340 c3        1 KZL     -0.134600
     29 N29        -5.8310   -3.4040    0.2210 nz        1 KZL     -0.832600
     30 H2          2.1790   -0.9500   -0.8320 ha        1 KZL      0.168000
     31 H4          1.5590    0.4700    3.2170 ha        1 KZL      0.162500
     32 H6         -1.7300    0.5300    0.3200 ha        1 KZL      0.162500
     33 H8          0.9740   -1.7380   -2.5540 h1        1 KZL      0.061200
     34 H8A        -0.2340   -0.7690   -3.5500 h1        1 KZL      0.061200
     35 H8B         1.1960    0.0770   -2.7590 h1        1 KZL      0.061200
     36 H10         3.9050   -1.9490    0.2790 h1        1 KZL      0.061200
     37 H10A        5.1610   -1.0040    1.2380 h1        1 KZL      0.061200
     38 H10B        4.2830   -0.2040   -0.1700 h1        1 KZL      0.061200
     39 HN11       -0.6040    1.9800    3.3180 hn        1 KZL      0.500800
     40 HN20       -4.2450    3.6070    5.5760 hn        1 KZL      0.477467
     41 HN2A       -3.4760    2.7350    6.7710 hn        1 KZL      0.477467
     42 H23        -6.5300   -1.5060    4.5430 h5        1 KZL      0.098800
     43 HN24       -4.8060   -2.7770    3.2720 hn        1 KZL      0.423800
     44 H26        -5.1250   -4.6530    1.7940 hx        1 KZL      0.123700
     45 H26A       -4.1190   -4.6710    0.2640 hx        1 KZL      0.123700
     46 H27        -3.0720   -2.7600   -0.5290 hc        1 KZL      0.078533
     47 H27A       -3.8370   -1.2460    0.1400 hc        1 KZL      0.078533
     48 H27B       -2.1500   -1.7100    0.5990 hc        1 KZL      0.078533
     49 H28        -1.7790   -3.0900    2.6010 hc        1 KZL      0.078533
     50 H28A       -2.8960   -4.4920    2.9030 hc        1 KZL      0.078533
     51 H28B       -2.0290   -4.3330    1.3140 hc        1 KZL      0.078533
     52 HN29       -6.3990   -4.1420   -0.2120 hn        1 KZL      0.468800
     53 HN2B       -6.4260   -2.8490    0.8450 hn        1 KZL      0.468800
     54 H203       -2.8420    4.2030    6.2700 hn        1 KZL      0.477467
     55 H293       -5.4680   -2.7840   -0.5160 hn        1 KZL      0.468800
@<TRIPOS>BOND
     1    1    2 ar  
     2    1    6 ar  
     3    1    7 1   
     4    2    3 ar  
     5    2   30 1   
     6    3    4 ar  
     7    3    9 1   
     8    4    5 ar  
     9    4   31 1   
    10    5    6 ar  
    11    5   11 1   
    12    6   32 1   
    13    7    8 1   
    14    8   33 1   
    15    8   34 1   
    16    8   35 1   
    17    9   10 1   
    18   10   36 1   
    19   10   37 1   
    20   10   38 1   
    21   11   12 1   
    22   11   39 1   
    23   12   13 1   
    24   12   17 2   
    25   13   14 2   
    26   14   15 1   
    27   14   24 1   
    28   15   16 1   
    29   15   23 1   
    30   16   17 1   
    31   16   21 2   
    32   17   18 1   
    33   18   19 2   
    34   18   20 1   
    35   20   40 1   
    36   20   41 1   
    37   20   54 1   
    38   21   22 1   
    39   22   23 2   
    40   23   42 1   
    41   24   25 1   
    42   24   43 1   
    43   25   26 1   
    44   25   27 1   
    45   25   28 1   
    46   26   29 1   
    47   26   44 1   
    48   26   45 1   
    49   27   46 1   
    50   27   47 1   
    51   27   48 1   
    52   28   49 1   
    53   28   50 1   
    54   28   51 1   
    55   29   52 1   
    56   29   53 1   
    57   29   55 1   
@<TRIPOS>SUBSTRUCTURE
     1 KZL         1 TEMP              0 ****  ****    0 ROOT
