@<TRIPOS>MOLECULE
KZL
   57    59     1     0     0
SMALL
bcc


@<TRIPOS>ATOM
      1 C1          0.8920   -0.5920    0.1680 ca        1 KZL      0.234100
      2 C2          1.8820    0.3990    0.2430 ca        1 KZL     -0.228000
      3 C3          2.1310    1.0290    1.4700 ca        1 KZL      0.234100
      4 C4          1.4010    0.6720    2.6340 ca        1 KZL     -0.221000
      5 C5          0.4420   -0.3360    2.5210 ca        1 KZL     -0.013400
      6 C6          0.1490   -0.9720    1.3090 ca        1 KZL     -0.221000
      7 O7          0.5420   -1.2560   -0.9710 os        1 KZL     -0.310900
      8 C8          1.3560   -1.0380   -2.1370 c3        1 KZL      0.101200
      9 O9          3.0400    2.0170    1.6740 os        1 KZL     -0.310900
     10 C10         3.9320    2.3440    0.5930 c3        1 KZL      0.101200
     11 N11        -0.2180   -0.8120    3.7570 n4        1 KZL     -0.626100
     12 C12        -1.6750   -0.5330    3.7700 cc        1 KZL      0.601200
     13 N13        -2.4770   -1.6120    3.3860 nc        1 KZL     -0.657000
     14 C14        -3.8060   -1.4910    3.3510 cd        1 KZL      0.715400
     15 N15        -4.4580   -0.2910    3.6270 na        1 KZL     -0.269000
     16 C16        -3.6360    0.8420    4.0470 cd        1 KZL     -0.085300
     17 C17        -2.2120    0.7090    4.1440 cd        1 KZL     -0.128900
     18 C18        -1.3940    1.8200    4.6930 c         1 KZL      0.566700
     19 O19        -0.2330    1.6850    5.0650 o         1 KZL     -0.378100
     20 N20        -1.9660    3.1870    4.8410 n4        1 KZL     -0.725400
     21 N21        -4.4860    1.8840    4.2980 nc        1 KZL     -0.019000
     22 N22        -5.7250    1.5110    4.0840 nc        1 KZL     -0.183700
     23 C23        -5.7780    0.2080    3.6850 cd        1 KZL      0.390700
     24 N24        -4.6140   -2.7310    3.0910 n4        1 KZL     -0.782700
     25 C25        -4.9340   -3.0560    1.6050 c3        1 KZL      0.165200
     26 C26        -5.4770   -4.5350    1.6000 c3        1 KZL      0.069800
     27 C27        -6.0070   -2.1050    1.0900 c3        1 KZL     -0.167600
     28 C28        -3.6700   -2.9690    0.7620 c3        1 KZL     -0.167600
     29 N29        -6.0140   -4.9940    0.2960 n4        1 KZL     -0.833600
     30 H2          2.4700    0.6740   -0.6510 ha        1 KZL      0.203000
     31 H4          1.6650    1.1680    3.5830 ha        1 KZL      0.165000
     32 H6         -0.5900   -1.7770    1.2140 ha        1 KZL      0.165000
     33 H8          2.4190   -1.3040   -1.9240 h1        1 KZL      0.084367
     34 H8A         1.2550    0.0190   -2.4800 h1        1 KZL      0.084367
     35 H8B         0.9090   -1.7470   -2.8820 h1        1 KZL      0.084367
     36 H10         3.3550    2.7730   -0.2610 h1        1 KZL      0.084367
     37 H10A        4.5170    1.4440    0.2880 h1        1 KZL      0.084367
     38 H10B        4.5990    3.1180    1.0600 h1        1 KZL      0.084367
     39 HN11       -0.0470   -1.8350    3.8250 hn        1 KZL      0.507300
     40 HN20       -1.2030    3.8480    5.0980 hn        1 KZL      0.513467
     41 HN2A       -2.6730    3.2140    5.5980 hn        1 KZL      0.513467
     42 H23        -6.6970   -0.3510    3.4460 h5        1 KZL      0.137800
     43 HN24       -5.5070   -2.6530    3.6050 hn        1 KZL      0.497800
     44 H26        -6.3150   -4.6460    2.3540 hx        1 KZL      0.141700
     45 H26A       -4.6350   -5.2420    1.8800 hx        1 KZL      0.141700
     46 H27        -7.0000   -2.2870    1.5750 hc        1 KZL      0.107033
     47 H27A       -6.1230   -2.2290   -0.0200 hc        1 KZL      0.107033
     48 H27B       -5.7220   -1.0320    1.2380 hc        1 KZL      0.107033
     49 H28        -3.9010   -3.2550   -0.2980 hc        1 KZL      0.107033
     50 H28A       -3.2780   -1.9200    0.7200 hc        1 KZL      0.107033
     51 H28B       -2.8620   -3.6460    1.1370 hc        1 KZL      0.107033
     52 HN29       -6.8120   -4.4160   -0.0100 hn        1 KZL      0.497800
     53 HN2B       -5.2910   -4.9790   -0.4390 hn        1 KZL      0.497800
     54 H112        0.2250   -0.3540    4.5800 hn        1 KZL      0.507300
     55 H203       -2.4050    3.5160    3.9660 hn        1 KZL      0.513467
     56 H242       -4.0790   -3.5300    3.4820 hn        1 KZL      0.497800
     57 H293       -6.3480   -5.9740    0.3960 hn        1 KZL      0.497800
@<TRIPOS>BOND
     1    1    2 ar  
     2    1    6 ar  
     3    1    7 1   
     4    2    3 ar  
     5    2   30 1   
     6    3    4 ar  
     7    3    9 1   
     8    4    5 ar  
     9    4   31 1   
    10    5    6 ar  
    11    5   11 1   
    12    6   32 1   
    13    7    8 1   
    14    8   33 1   
    15    8   34 1   
    16    8   35 1   
    17    9   10 1   
    18   10   36 1   
    19   10   37 1   
    20   10   38 1   
    21   11   12 1   
    22   11   39 1   
    23   11   54 1   
    24   12   13 1   
    25   12   17 2   
    26   13   14 2   
    27   14   15 1   
    28   14   24 1   
    29   15   16 1   
    30   15   23 1   
    31   16   17 1   
    32   16   21 2   
    33   17   18 1   
    34   18   19 2   
    35   18   20 1   
    36   20   40 1   
    37   20   41 1   
    38   20   55 1   
    39   21   22 1   
    40   22   23 2   
    41   23   42 1   
    42   24   25 1   
    43   24   43 1   
    44   24   56 1   
    45   25   26 1   
    46   25   27 1   
    47   25   28 1   
    48   26   29 1   
    49   26   44 1   
    50   26   45 1   
    51   27   46 1   
    52   27   47 1   
    53   27   48 1   
    54   28   49 1   
    55   28   50 1   
    56   28   51 1   
    57   29   52 1   
    58   29   53 1   
    59   29   57 1   
@<TRIPOS>SUBSTRUCTURE
     1 KZL         1 TEMP              0 ****  ****    0 ROOT
