@<TRIPOS>MOLECULE
KZL
   53    47     1     0     0
SMALL
bcc


@<TRIPOS>ATOM
      1 C1          2.2200    3.9260    0.0400 c1        1 KZL      0.124500
      2 C2          2.5990    3.7330   -1.2840 c1        1 KZL     -0.255000
      3 C3          2.6860    2.4480   -1.7990 c1        1 KZL      0.124500
      4 C4          2.3970    1.3640   -0.9980 c1        1 KZL     -0.185000
      5 C5          2.0190    1.5590    0.3240 c1        1 KZL      0.118000
      6 C6          1.9320    2.8470    0.8380 c1        1 KZL     -0.255000
      7 O7          2.0350    5.2280    0.5330 os        1 KZL     -0.207500
      8 C8          3.1970    5.9190    0.7360 c3        1 KZL     -0.076000
      9 O9          2.8820    2.2640   -3.1740 os        1 KZL     -0.207500
     10 C10         4.2530    2.2700   -3.5720 c3        1 KZL     -0.076000
     11 N11         1.8060    0.4120    1.1970 n3        1 KZL     -0.246000
     12 C12         0.4960   -0.2590    1.2260 c2        1 KZL      0.225000
     13 N13        -0.2910   -0.7380    0.2140 n2        1 KZL     -0.234000
     14 C14        -1.1620   -1.7790    0.4520 c1        1 KZL      0.232000
     15 N15        -1.2460   -2.3560    1.7440 n1        1 KZL     -0.161000
     16 C16        -0.4800   -1.8910    2.7360 c1        1 KZL      0.023000
     17 C17         0.4160   -0.8220    2.4950 c1        1 KZL     -0.249000
     18 C18         0.3700   -0.0320    3.8270 c2        1 KZL      0.378000
     19 O19         0.4020    1.1620    3.8120 o         1 KZL     -0.418000
     20 N20         0.3950   -0.7360    5.0790 n         1 KZL     -0.397000
     21 N21        -0.7540   -2.6030    3.8350 n1        1 KZL     -0.125000
     22 N22        -1.6940   -3.5130    3.5180 n2        1 KZL     -0.051000
     23 C23        -1.9970   -3.3610    2.2330 c1        1 KZL     -0.132000
     24 N24        -1.4420   -1.8430   -0.9660 n3        1 KZL     -0.248000
     25 C25        -2.7800   -2.2590   -1.4390 c3        1 KZL     -0.014000
     26 C26        -2.7960   -3.7720   -1.6780 c3        1 KZL     -0.068000
     27 C27        -3.8160   -1.8940   -0.4010 c3        1 KZL     -0.237000
     28 C28        -3.1190   -1.5120   -2.7970 c3        1 KZL     -0.237000
     29 N29        -4.0950   -4.1670   -2.1140 n3        1 KZL     -0.339000
     30 H2          2.7980    4.4830   -1.8370 ha        1 KZL      0.153500
     31 H4          2.4580    0.4810   -1.3510 ha        1 KZL      0.163000
     32 H6          1.6700    2.9830    1.7520 ha        1 KZL      0.153500
     33 H8          3.8100    5.7600   -0.0150 h1        1 KZL      0.084833
     34 H8A         3.0010    6.8620    0.8000 h1        1 KZL      0.084833
     35 H8B         3.6020    5.6270    1.5410 h1        1 KZL      0.084833
     36 H10         4.5590    3.2160   -3.7050 h1        1 KZL      0.084833
     37 H10A        4.7930    1.8490   -2.8820 h1        1 KZL      0.084833
     38 H10B        4.3480    1.7920   -4.3800 h1        1 KZL      0.084833
     39 HN11        2.5100    0.0750    1.6990 hn        1 KZL      0.281000
     40 HN20        0.6950   -1.5730    5.1130 hn        1 KZL      0.234500
     41 HN2A        0.1370   -0.2910    5.8790 hn        1 KZL      0.234500
     42 H23        -2.6420   -3.8820    1.7360 DU        1 KZL      0.224000
     43 HN24       -0.7820   -1.6030   -1.5830 hn        1 KZL      0.204000
     44 H26        -2.5850   -4.2150   -0.8870 h1        1 KZL      0.100500
     45 H26A       -2.1500   -3.9970   -2.3520 h1        1 KZL      0.100500
     46 H27        -4.6710   -2.0090   -0.7620 hc        1 KZL      0.090000
     47 H27A       -3.7160   -2.4480    0.3560 hc        1 KZL      0.090000
     48 H27B       -3.7020   -1.0030   -0.1490 hc        1 KZL      0.090000
     49 H28        -3.1050   -0.4800   -2.6390 hc        1 KZL      0.090000
     50 H28A       -2.4410   -1.7510   -3.4920 hc        1 KZL      0.090000
     51 H28B       -4.0070   -1.7830   -3.1020 hc        1 KZL      0.090000
     52 HN29       -4.7440   -3.8900   -1.4760 hn        1 KZL      0.148000
     53 HN2B       -4.2680   -3.7970   -2.8820 hn        1 KZL      0.148000
@<TRIPOS>BOND
     1    1    6 1   
     2    1    7 1   
     3    2    3 1   
     4    2   30 1   
     5    3    9 1   
     6    4    5 1   
     7    4   31 1   
     8    5   11 1   
     9    6   32 1   
    10    7    8 1   
    11    8   33 1   
    12    8   34 1   
    13    8   35 1   
    14    9   10 1   
    15   10   36 1   
    16   10   37 1   
    17   10   38 1   
    18   11   12 1   
    19   11   39 1   
    20   12   13 1   
    21   12   17 1   
    22   13   14 1   
    23   14   24 1   
    24   15   16 1   
    25   17   18 1   
    26   18   19 1   
    27   18   20 1   
    28   20   40 1   
    29   20   41 1   
    30   21   22 1   
    31   22   23 1   
    32   24   25 1   
    33   24   43 1   
    34   25   26 1   
    35   25   27 1   
    36   25   28 1   
    37   26   29 1   
    38   26   44 1   
    39   26   45 1   
    40   27   46 1   
    41   27   47 1   
    42   27   48 1   
    43   28   49 1   
    44   28   50 1   
    45   28   51 1   
    46   29   52 1   
    47   29   53 1   
@<TRIPOS>SUBSTRUCTURE
     1 KZL         1 TEMP              0 ****  ****    0 ROOT
