@<TRIPOS>MOLECULE
KZL
   55    57     1     0     0
SMALL
bcc


@<TRIPOS>ATOM
      1 C1          0.1640   -0.2400   -0.3520 ca        1 KZL      0.183600
      2 C2          1.5080   -0.4980   -0.0620 ca        1 KZL     -0.257000
      3 C3          1.9780   -0.2170    1.2280 ca        1 KZL      0.183600
      4 C4          1.1270    0.3080    2.2200 ca        1 KZL     -0.198000
      5 C5         -0.2140    0.5670    1.8940 ca        1 KZL      0.141600
      6 C6         -0.7080    0.3020    0.6070 ca        1 KZL     -0.198000
      7 O7         -0.4270   -0.5200   -1.5650 os        1 KZL     -0.325900
      8 C8          0.4590   -0.7310   -2.6670 c3        1 KZL      0.107700
      9 O9          3.2650   -0.4320    1.6490 os        1 KZL     -0.325900
     10 C10         4.2030   -0.8730    0.6660 c3        1 KZL      0.107700
     11 N11        -1.0390    1.1810    2.8820 nh        1 KZL     -0.656300
     12 C12        -2.2330    0.7200    3.3220 cc        1 KZL      0.829200
     13 N13        -2.7050   -0.4870    2.7700 nc        1 KZL     -0.776000
     14 C14        -3.8700   -1.0160    3.1490 cd        1 KZL      0.849400
     15 N15        -4.6630   -0.3960    4.1360 na        1 KZL     -0.310000
     16 C16        -4.2390    0.8390    4.7230 cd        1 KZL      0.019700
     17 C17        -2.9930    1.4330    4.3300 cd        1 KZL     -0.430900
     18 C18        -2.5290    2.6550    4.9110 c         1 KZL      0.595700
     19 O19        -1.4860    3.2780    4.6870 o         1 KZL     -0.507100
     20 N20        -3.3790    3.3390    5.9570 n4        1 KZL     -0.733400
     21 N21        -5.2020    1.2150    5.6170 nc        1 KZL     -0.158000
     22 N22        -6.1780    0.3180    5.6260 nc        1 KZL     -0.274700
     23 C23        -5.9090   -0.6760    4.7530 cd        1 KZL      0.346700
     24 N24        -4.4150   -2.1940    2.5620 nh        1 KZL     -0.848900
     25 C25        -3.6720   -2.9660    1.5530 c3        1 KZL      0.213200
     26 C26        -4.6610   -4.0400    0.9740 c3        1 KZL      0.082800
     27 C27        -3.1570   -2.1270    0.3780 c3        1 KZL     -0.134600
     28 C28        -2.5030   -3.7730    2.1370 c3        1 KZL     -0.134600
     29 N29        -5.7990   -3.4490    0.2210 n4        1 KZL     -0.832600
     30 H2          2.1830   -0.9050   -0.8290 ha        1 KZL      0.168000
     31 H4          1.5440    0.5120    3.2180 ha        1 KZL      0.162500
     32 H6         -1.7440    0.5310    0.3200 ha        1 KZL      0.162500
     33 H8          0.9870   -1.7080   -2.5510 h1        1 KZL      0.061200
     34 H8A        -0.2310   -0.7550   -3.5490 h1        1 KZL      0.061200
     35 H8B         1.1890    0.1080   -2.7580 h1        1 KZL      0.061200
     36 H10         4.2770   -0.1340   -0.1670 h1        1 KZL      0.061200
     37 H10A        5.1640   -0.9220    1.2420 h1        1 KZL      0.061200
     38 H10B        3.9190   -1.8830    0.2830 h1        1 KZL      0.061200
     39 HN11       -0.6370    1.9960    3.3160 hn        1 KZL      0.500800
     40 HN20       -4.2970    3.5850    5.5700 hn        1 KZL      0.477467
     41 HN2A       -2.9010    4.1970    6.2640 hn        1 KZL      0.477467
     42 H23        -6.5230   -1.5560    4.5410 h5        1 KZL      0.098800
     43 HN24       -4.7840   -2.8070    3.2720 hn        1 KZL      0.423800
     44 H26        -4.0740   -4.6970    0.2670 hx        1 KZL      0.123700
     45 H26A       -5.0810   -4.6880    1.7960 hx        1 KZL      0.123700
     46 H27        -3.8300   -1.2690    0.1390 hc        1 KZL      0.078533
     47 H27A       -3.0470   -2.7750   -0.5270 hc        1 KZL      0.078533
     48 H27B       -2.1380   -1.7140    0.6010 hc        1 KZL      0.078533
     49 H28        -1.9880   -4.3350    1.3190 hc        1 KZL      0.078533
     50 H28A       -1.7540   -3.0870    2.6040 hc        1 KZL      0.078533
     51 H28B       -2.8560   -4.5010    2.9070 hc        1 KZL      0.078533
     52 HN29       -5.4430   -2.8260   -0.5160 hn        1 KZL      0.468800
     53 HN2B       -6.4010   -2.9000    0.8440 hn        1 KZL      0.468800
     54 H203       -3.5190    2.7230    6.7660 hn        1 KZL      0.477467
     55 H293       -6.3590   -4.1940   -0.2120 hn        1 KZL      0.468800
@<TRIPOS>BOND
     1    1    2 ar  
     2    1    6 ar  
     3    1    7 1   
     4    2    3 ar  
     5    2   30 1   
     6    3    4 ar  
     7    3    9 1   
     8    4    5 ar  
     9    4   31 1   
    10    5    6 ar  
    11    5   11 1   
    12    6   32 1   
    13    7    8 1   
    14    8   33 1   
    15    8   34 1   
    16    8   35 1   
    17    9   10 1   
    18   10   36 1   
    19   10   37 1   
    20   10   38 1   
    21   11   12 1   
    22   11   39 1   
    23   12   13 1   
    24   12   17 2   
    25   13   14 2   
    26   14   15 1   
    27   14   24 1   
    28   15   16 1   
    29   15   23 1   
    30   16   17 1   
    31   16   21 2   
    32   17   18 1   
    33   18   19 2   
    34   18   20 1   
    35   20   40 1   
    36   20   41 1   
    37   20   54 1   
    38   21   22 1   
    39   22   23 2   
    40   23   42 1   
    41   24   25 1   
    42   24   43 1   
    43   25   26 1   
    44   25   27 1   
    45   25   28 1   
    46   26   29 1   
    47   26   44 1   
    48   26   45 1   
    49   27   46 1   
    50   27   47 1   
    51   27   48 1   
    52   28   49 1   
    53   28   50 1   
    54   28   51 1   
    55   29   52 1   
    56   29   53 1   
    57   29   55 1   
@<TRIPOS>SUBSTRUCTURE
     1 KZL         1 TEMP              0 ****  ****    0 ROOT
