@<TRIPOS>MOLECULE
KZL
   53    55     1     0     0
SMALL
bcc


@<TRIPOS>ATOM
      1 C1         -3.0760   -0.8910    1.0090 ca        1 KZL      0.167600
      2 C2         -4.1750   -0.5830    0.2000 ca        1 KZL     -0.288000
      3 C3         -4.0770    0.5320   -0.6410 ca        1 KZL      0.167600
      4 C4         -2.9170    1.3170   -0.6940 ca        1 KZL     -0.206000
      5 C5         -1.8200    0.9870    0.1310 ca        1 KZL      0.208600
      6 C6         -1.9060   -0.1170    0.9990 ca        1 KZL     -0.206000
      7 O7         -3.0350   -1.9700    1.8730 os        1 KZL     -0.326400
      8 C8         -4.2500   -2.6900    2.0400 c3        1 KZL      0.113700
      9 O9         -5.0850    0.9500   -1.4880 os        1 KZL     -0.326400
     10 C10        -6.2880    0.1910   -1.4640 c3        1 KZL      0.113700
     11 N11        -0.6910    1.8310    0.1300 nh        1 KZL     -0.733300
     12 C12         0.6210    1.4030   -0.0200 cc        1 KZL      0.778200
     13 N13         0.8490    0.0310   -0.1640 nc        1 KZL     -0.802000
     14 C14         2.1040   -0.4390   -0.3050 cd        1 KZL      0.842400
     15 N15         3.2110    0.4390   -0.2470 na        1 KZL     -0.303000
     16 C16         3.0070    1.8490   -0.0960 cd        1 KZL      0.032700
     17 C17         1.6760    2.3510    0.0190 cd        1 KZL     -0.376900
     18 C18         1.4440    3.8080    0.1080 c         1 KZL      0.709700
     19 O19         0.4520    4.3560   -0.4340 o         1 KZL     -0.665100
     20 N20         2.3060    4.5810    0.8420 n         1 KZL     -0.640000
     21 N21         4.2460    2.4450   -0.1140 nc        1 KZL     -0.139000
     22 N22         5.1720    1.5160   -0.2660 nc        1 KZL     -0.328700
     23 C23         4.6100    0.2880   -0.3580 cd        1 KZL      0.294700
     24 N24         2.3790   -1.7770   -0.5840 nh        1 KZL     -0.843900
     25 C25         1.3790   -2.8460   -0.5320 c3        1 KZL      0.250200
     26 C26         2.1160   -4.2200   -0.7370 c3        1 KZL      0.142800
     27 C27         0.6060   -2.9170    0.7910 c3        1 KZL     -0.113100
     28 C28         0.3680   -2.7400   -1.6840 c3        1 KZL     -0.113100
     29 N29         3.1040   -4.4960    0.2730 n3        1 KZL     -0.935800
     30 H2         -5.0850   -1.1940    0.2250 ha        1 KZL      0.144000
     31 H4         -2.8870    2.1800   -1.3760 ha        1 KZL      0.162500
     32 H6         -1.0820   -0.3850    1.6750 ha        1 KZL      0.162500
     33 H8         -5.0690   -2.0150    2.3880 h1        1 KZL      0.044700
     34 H8A        -4.5380   -3.1980    1.0870 h1        1 KZL      0.044700
     35 H8B        -3.9990   -3.4450    2.8280 h1        1 KZL      0.044700
     36 H10        -6.0970   -0.8620   -1.7840 h1        1 KZL      0.044700
     37 H10A       -6.7500    0.2150   -0.4470 h1        1 KZL      0.044700
     38 H10B       -6.9400    0.7170   -2.2070 h1        1 KZL      0.044700
     39 HN11       -0.8640    2.7940   -0.1040 hn        1 KZL      0.487800
     40 HN20        3.1570    4.2210    1.1920 hn        1 KZL      0.318000
     41 HN2A        2.2050    5.5660    0.7910 hn        1 KZL      0.318000
     42 H23         5.1190   -0.6680   -0.4960 h5        1 KZL      0.083800
     43 HN24        3.3110   -2.0760   -0.3820 hn        1 KZL      0.449800
     44 H26         1.3030   -5.0030   -0.7860 h1        1 KZL      0.042700
     45 H26A        2.6320   -4.2090   -1.7380 h1        1 KZL      0.042700
     46 H27        -0.2220   -2.1650    0.8100 hc        1 KZL      0.053867
     47 H27A        0.1480   -3.9300    0.8950 hc        1 KZL      0.053867
     48 H27B        1.2720   -2.7370    1.6680 hc        1 KZL      0.053867
     49 H28         0.8890   -2.7420   -2.6710 hc        1 KZL      0.053867
     50 H28A       -0.3190   -3.6200   -1.6370 hc        1 KZL      0.053867
     51 H28B       -0.2470   -1.8140   -1.6030 hc        1 KZL      0.053867
     52 HN29        2.6890   -4.5550    1.1820 hn        1 KZL      0.360300
     53 HN2B        3.5890   -5.3470    0.0710 hn        1 KZL      0.360300
@<TRIPOS>BOND
     1    1    2 ar  
     2    1    6 ar  
     3    1    7 1   
     4    2    3 ar  
     5    2   30 1   
     6    3    4 ar  
     7    3    9 1   
     8    4    5 ar  
     9    4   31 1   
    10    5    6 ar  
    11    5   11 1   
    12    6   32 1   
    13    7    8 1   
    14    8   33 1   
    15    8   34 1   
    16    8   35 1   
    17    9   10 1   
    18   10   36 1   
    19   10   37 1   
    20   10   38 1   
    21   11   12 1   
    22   11   39 1   
    23   12   13 1   
    24   12   17 2   
    25   13   14 2   
    26   14   15 1   
    27   14   24 1   
    28   15   16 1   
    29   15   23 1   
    30   16   17 1   
    31   16   21 2   
    32   17   18 1   
    33   18   19 2   
    34   18   20 1   
    35   20   40 1   
    36   20   41 1   
    37   21   22 1   
    38   22   23 2   
    39   23   42 1   
    40   24   25 1   
    41   24   43 1   
    42   25   26 1   
    43   25   27 1   
    44   25   28 1   
    45   26   29 1   
    46   26   44 1   
    47   26   45 1   
    48   27   46 1   
    49   27   47 1   
    50   27   48 1   
    51   28   49 1   
    52   28   50 1   
    53   28   51 1   
    54   29   52 1   
    55   29   53 1   
@<TRIPOS>SUBSTRUCTURE
     1 KZL         1 TEMP              0 ****  ****    0 ROOT
