@<TRIPOS>MOLECULE
KZM
   68    62     1     0     0
SMALL
bcc


@<TRIPOS>ATOM
      1 O1         -3.0890   -0.4820   -2.9620 o         1 KZM     -0.430000
      2 O2          1.3650   -5.7600   -2.1700 os        1 KZM     -0.211000
      3 O3         -0.8020   -5.7270    2.4800 os        1 KZM     -0.211000
      4 N4         -0.0560   -0.4180    0.4760 n1        1 KZM     -0.291000
      5 N5          0.7560    1.4240    1.7230 n3        1 KZM     -0.250000
      6 N6         -1.2050   -1.1350   -4.1200 n         1 KZM     -0.404000
      7 C7         -0.8090    1.1710   -1.6410 c1        1 KZM      0.119000
      8 N8         -1.3760   -2.2010   -0.6070 n3        1 KZM     -0.258000
      9 C9          0.4360   -5.9290    0.2250 c1        1 KZM     -0.218000
     10 C10        -0.0770    1.4440    3.9490 c3        1 KZM     -0.163000
     11 C11        -0.9130   -4.0550    0.9280 c1        1 KZM     -0.218000
     12 C12        -0.6450   -0.9850   -0.6040 c2        1 KZM      0.284000
     13 C13        -1.8710   -0.5900   -2.9690 c2        1 KZM      0.381000
     14 N14        -0.2250    1.7300   -0.5690 n1        1 KZM     -0.170000
     15 C15         0.0660   -4.0700   -1.2730 c1        1 KZM     -0.270000
     16 C16        -1.0290   -0.2000   -1.6740 c2        1 KZM     -0.320000
     17 C17        -0.7090   -3.4440   -0.3020 c1        1 KZM      0.133000
     18 C18         0.6400   -5.3140   -1.0110 c1        1 KZM      0.121500
     19 C19         0.7170    0.7180    2.7830 c3        1 KZM      0.012000
     20 C20         0.7460   -6.8640   -2.8550 c3        1 KZM     -0.077000
     21 C21         0.1610    0.9350    0.5080 c1        1 KZM      0.329000
     22 C22        -0.3410   -5.2990    1.1940 c1        1 KZM      0.121500
     23 C23         2.1300    0.6740    3.5170 c3        1 KZM     -0.049000
     24 C24         0.4550    2.8240    4.2610 c3        1 KZM     -0.160000
     25 C25         1.7140    2.9870    3.7950 c3        1 KZM     -0.158000
     26 C26        -1.7710   -6.7870    2.4250 c3        1 KZM     -0.077000
     27 C27         2.6830    2.0450    3.8240 c3        1 KZM     -0.165000
     28 N28         3.0480   -0.0100    2.6940 n3        1 KZM     -0.357000
     29 N29        -1.0820    2.1700   -2.5460 n1        1 KZM     -0.163500
     30 N30        -0.1280    3.0810   -0.7950 n1        1 KZM     -0.163500
     31 C31        -0.6600    3.3410   -2.0170 c2        1 KZM     -0.001000
     32 C32        -0.8300    4.5860   -2.6790 c1        1 KZM      0.016000
     33 C33        -1.9690    5.3370   -2.4430 c1        1 KZM     -0.113000
     34 C34         0.2150    5.1230   -3.4370 c1        1 KZM     -0.124000
     35 C35        -2.0750    6.6330   -2.9630 c1        1 KZM     -0.113000
     36 C36         0.1080    6.4140   -3.9540 c1        1 KZM      0.067000
     37 C37        -1.0410    7.1670   -3.7140 c1        1 KZM     -0.199000
     38 O66         1.1580    6.9500   -4.7660 oh        1 KZM     -0.252000
     39 HN6        -0.3090   -1.2410   -4.1140 hn        1 KZM      0.229500
     40 HN6A       -1.6910   -1.3680   -4.8680 hn        1 KZM      0.229500
     41 HN8        -2.2790   -2.1860   -0.7200 hn        1 KZM      0.286000
     42 H9          0.8930   -6.7680    0.4340 ha        1 KZM      0.163500
     43 H10        -1.0240    1.5220    3.6850 hc        1 KZM      0.098500
     44 H10A       -0.0200    0.8950    4.7560 hc        1 KZM      0.098500
     45 H11        -1.4700   -3.6390    1.5780 ha        1 KZM      0.163500
     46 H15         0.1230   -3.6940   -2.1520 ha        1 KZM      0.147000
     47 H19         0.3640   -0.1920    2.6110 h1        1 KZM      0.134000
     48 H20         0.7370   -7.6500   -2.2680 h1        1 KZM      0.086000
     49 H20A        1.2610   -7.0730   -3.6840 h1        1 KZM      0.086000
     50 H20B       -0.1690   -6.6280   -3.0930 h1        1 KZM      0.086000
     51 H23         2.0310    0.1720    4.3690 h1        1 KZM      0.064000
     52 H24        -0.1360    3.5000    3.8380 hc        1 KZM      0.084000
     53 H24A        0.4520    2.9590    5.2330 hc        1 KZM      0.084000
     54 H25         2.0750    3.7520    4.2640 hc        1 KZM      0.084000
     55 H25A        1.6200    3.2500    2.8510 hc        1 KZM      0.084000
     56 H26        -1.3200   -7.6310    2.2030 h1        1 KZM      0.086000
     57 H26A       -2.4410   -6.5820    1.7360 h1        1 KZM      0.086000
     58 H26B       -2.2180   -6.8740    3.3040 h1        1 KZM      0.086000
     59 H27         3.3700    2.2700    3.1600 hc        1 KZM      0.090000
     60 H27A        3.0940    2.0320    4.7200 hc        1 KZM      0.090000
     61 HN28        3.1960   -0.8400    3.0320 hn        1 KZM      0.157500
     62 HN2A        3.8440    0.4570    2.6670 hn        1 KZM      0.157500
     63 H33        -2.7110    4.9580   -1.9060 ha        1 KZM      0.146500
     64 H34         1.0090    4.6010   -3.6020 ha        1 KZM      0.163000
     65 H35        -2.8770    7.1600   -2.7960 ha        1 KZM      0.146500
     66 H37        -1.1180    8.0840   -4.0810 ha        1 KZM      0.134000
     67 HO66        0.8710    7.0270   -5.6120 ho        1 KZM      0.218000
     68 HN5         1.1480    2.2420    1.7380 hn        1 KZM      0.237000
@<TRIPOS>BOND
     1    1   13 1   
     2    2   18 1   
     3    2   20 1   
     4    3   22 1   
     5    3   26 1   
     6    4   12 1   
     7    5   19 1   
     8    5   21 1   
     9    5   68 1   
    10    6   13 1   
    11    6   39 1   
    12    6   40 1   
    13    7   16 1   
    14    8   12 1   
    15    8   17 1   
    16    8   41 1   
    17    9   18 1   
    18    9   42 1   
    19   10   19 1   
    20   10   24 1   
    21   10   43 1   
    22   10   44 1   
    23   11   22 1   
    24   11   45 1   
    25   12   16 1   
    26   13   16 1   
    27   14   21 1   
    28   15   17 1   
    29   15   46 1   
    30   19   23 1   
    31   19   47 1   
    32   20   48 1   
    33   20   49 1   
    34   20   50 1   
    35   23   27 1   
    36   23   28 1   
    37   23   51 1   
    38   24   25 1   
    39   24   52 1   
    40   24   53 1   
    41   25   27 1   
    42   25   54 1   
    43   25   55 1   
    44   26   56 1   
    45   26   57 1   
    46   26   58 1   
    47   27   59 1   
    48   27   60 1   
    49   28   61 1   
    50   28   62 1   
    51   29   31 1   
    52   30   31 1   
    53   31   32 1   
    54   32   34 1   
    55   33   35 1   
    56   33   63 1   
    57   34   64 1   
    58   35   65 1   
    59   36   37 1   
    60   36   38 1   
    61   37   66 1   
    62   38   67 1   
@<TRIPOS>SUBSTRUCTURE
     1 KZM         1 TEMP              0 ****  ****    0 ROOT
