@<TRIPOS>MOLECULE
KZM
   70    70     1     0     0
SMALL
bcc


@<TRIPOS>ATOM
      1 O1          1.2010   -1.8200   -0.7800 o         1 KZM     -0.388000
      2 O2          0.5150   -3.4300    6.6350 oh        1 KZM     -0.420000
      3 O3         -3.4030   -2.2310    4.0130 os        1 KZM     -0.189000
      4 N4          2.4880   -0.7790    3.2480 n2        1 KZM     -0.310000
      5 N5          3.9930    0.5460    4.5330 nu        1 KZM     -0.300000
      6 C7          4.0000   -0.4060    0.8940 c2        1 KZM      0.141000
      7 C9         -1.5080   -2.9050    5.4130 ca        1 KZM     -0.288000
      8 C10         3.3250    2.4240    6.0420 c3        1 KZM     -0.182000
      9 C11        -1.2590   -2.1620    3.0910 ca        1 KZM     -0.208000
     10 C12         2.0790   -1.3650    2.0410 c2        1 KZM      0.279000
     11 C13         2.4070   -1.8160   -0.4430 c2        1 KZM      0.374000
     12 N14         4.3620    0.2360    2.1410 na        1 KZM     -0.172000
     13 C15         0.6980   -2.8890    4.3520 ca        1 KZM     -0.290000
     14 C16         2.8390   -1.2170    0.8440 c2        1 KZM     -0.301000
     15 C17         0.1250   -2.3750    3.1700 ca        1 KZM      0.116000
     16 C18        -0.1200   -3.1010    5.4730 ca        1 KZM      0.134000
     17 C19         2.9930    1.0340    5.4700 c3        1 KZM      0.000000
     18 C20        -0.9230   -5.0290    8.2120 c1        1 KZM     -0.036000
     19 C21         3.5770    0.0060    3.2990 c2        1 KZM      0.293000
     20 C22        -2.0650   -2.4580    4.2110 ca        1 KZM      0.159000
     21 C23         2.8130    0.0570    6.6650 c3        1 KZM     -0.143000
     22 C24         4.6000    2.4980    6.8370 c3        1 KZM     -0.228000
     23 C25         4.8120   -3.7340    6.4860 c1        1 KZM     -0.235500
     24 C26        -4.2820   -2.5820    5.0820 c3        1 KZM     -0.082000
     25 C27         3.6380   -3.9670    6.4560 c1        1 KZM     -0.235500
     26 N28         2.3300   -1.2790    6.2520 nz        1 KZM     -0.064000
     27 N29         4.9130   -0.0270   -0.0450 n2        1 KZM     -0.228000
     28 N30         5.4710    0.9940    1.9790 n2        1 KZM     -0.077000
     29 C31         5.7890    0.8300    0.6580 c2        1 KZM     -0.068000
     30 C32         6.9820    1.4440   -0.0070 c3        1 KZM      0.003000
     31 C33         6.8100    1.7160   -1.4560 c2        1 KZM      0.379000
     32 C34         7.3380    2.7820    0.5570 c2        1 KZM     -0.328000
     33 C35         5.6230    1.8730   -2.0980 c1        1 KZM     -0.280000
     34 C36         8.5980    3.0900    0.9420 c2        1 KZM      0.089000
     35 C37         4.5640    1.9820   -2.6890 c1        1 KZM      0.199000
     36 O66         8.8070    4.3210    1.4810 oh        1 KZM     -0.219000
     37 HN6         4.2970   -2.4440   -0.9890 hn        1 KZM      0.241000
     38 HN6A        3.0580   -2.8040   -2.1040 hn        1 KZM      0.241000
     39 HN8         0.5230   -2.3290    1.1360 hn        1 KZM      0.302000
     40 H9         -2.1290   -3.1160    6.2940 ha        1 KZM      0.157000
     41 H10         3.3720    3.1550    5.1890 hc        1 KZM      0.116500
     42 H10A        2.4610    2.7340    6.6900 hc        1 KZM      0.116500
     43 H11        -1.7430   -1.7830    2.1770 ha        1 KZM      0.179000
     44 H15         1.7510   -3.2010    4.3830 ha        1 KZM      0.144000
     45 H19         1.9880    1.1310    4.9520 h1        1 KZM      0.129000
     46 H20        -0.1060   -4.0060    7.2400 ho        1 KZM      0.316000
     47 H20A       -0.3910   -5.7590    8.8350 ha        1 KZM      0.075500
     48 H20B       -2.0160   -5.0860    8.2760 ha        1 KZM      0.075500
     49 H23         2.0560    0.5080    7.3690 hx        1 KZM      0.152000
     50 H24         5.8590   -3.5460    6.5200 ha        1 KZM      0.239000
     51 H24A        4.5530    1.8510    7.7470 hc        1 KZM      0.092667
     52 H25         5.4900    2.1960    6.2340 hc        1 KZM      0.092667
     53 H25A        4.7620    3.5530    7.1780 hc        1 KZM      0.092667
     54 H26        -5.2950   -2.3530    4.6590 h1        1 KZM      0.098000
     55 H26A       -4.0760   -1.9510    5.9790 h1        1 KZM      0.098000
     56 H26B       -4.1910   -3.6670    5.3260 h1        1 KZM      0.098000
     57 H27         2.6070   -4.2420    6.4390 ha        1 KZM      0.239000
     58 H27A        3.7890   -0.0750    7.2140 hx        1 KZM      0.152000
     59 HN28        3.0590   -1.7900    5.7330 hn        1 KZM      0.268333
     60 HN2A        2.0640   -1.8560    7.0640 hn        1 KZM      0.268333
     61 H33         7.8440    0.7120    0.1200 hc        1 KZM      0.174000
     62 H34         6.5090    3.4900    0.7080 ha        1 KZM      0.181000
     63 H35         7.7490    1.8550   -2.0440 ha        1 KZM      0.194000
     64 H37         9.4650    2.4120    0.8480 h4        1 KZM      0.146000
     65 HO66        9.7480    4.4060    1.7120 ho        1 KZM      0.254000
     66 HN5         4.8330    1.0950    4.5110 hn        1 KZM      0.259000
     67 H63         3.6340    2.0800   -3.2170 ha        1 KZM      0.283000
     68 H283        1.5010   -1.1990    5.6400 hn        1 KZM      0.268333
     69 N8          0.9290   -2.1180    2.0340 nu        1 KZM     -0.235000
     70 N6          3.3520   -2.3660   -1.2630 nt        1 KZM     -0.404000
@<TRIPOS>BOND
     1    1   11 1   
     2    2   16 1   
     3    2   46 1   
     4    3   20 1   
     5    3   24 1   
     6    4   10 1   
     7    4   19 1   
     8    5   17 1   
     9    5   19 1   
    10    5   66 1   
    11    6   12 1   
    12    6   14 1   
    13    6   27 1   
    14    7   16 1   
    15    7   20 1   
    16    7   40 1   
    17    8   17 1   
    18    8   22 1   
    19    8   41 1   
    20    8   42 1   
    21    9   15 1   
    22    9   20 1   
    23    9   43 1   
    24   10   14 1   
    25   10   69 1   
    26   11   14 1   
    27   11   70 1   
    28   12   19 1   
    29   12   28 1   
    30   13   15 1   
    31   13   16 1   
    32   13   44 1   
    33   15   69 1   
    34   17   21 1   
    35   17   45 1   
    36   18   47 1   
    37   18   48 1   
    38   21   26 1   
    39   21   49 1   
    40   21   58 1   
    41   22   51 1   
    42   22   52 1   
    43   22   53 1   
    44   23   25 1   
    45   23   50 1   
    46   24   54 1   
    47   24   55 1   
    48   24   56 1   
    49   25   57 1   
    50   26   59 1   
    51   26   60 1   
    52   26   68 1   
    53   27   29 1   
    54   28   29 1   
    55   29   30 1   
    56   30   31 1   
    57   30   32 1   
    58   30   61 1   
    59   31   33 1   
    60   31   63 1   
    61   32   34 1   
    62   32   62 1   
    63   33   35 1   
    64   34   36 1   
    65   34   64 1   
    66   35   67 1   
    67   36   65 1   
    68   37   70 1   
    69   38   70 1   
    70   39   69 1   
@<TRIPOS>SUBSTRUCTURE
     1 KZM         1 TEMP              0 ****  ****    0 ROOT
