@<TRIPOS>MOLECULE
KZM
   70    68     1     0     0
SMALL
bcc


@<TRIPOS>ATOM
      1 O1          1.2820   -0.9940   -1.5510 o         1 KZM     -0.400000
      2 O2         -3.3560   -3.3790    8.9100 oh        1 KZM     -0.119000
      3 O3          0.3870   -2.8280    5.5820 os        1 KZM     -0.031000
      4 N4          3.7690   -1.7720    1.9440 n2        1 KZM     -0.247000
      5 N5          5.7080   -1.0180    3.1550 n2        1 KZM     -0.153000
      6 C7          4.6370   -0.4710   -0.4050 c2        1 KZM      0.117000
      7 C9          0.1530   -4.6580    4.0670 ca        1 KZM     -0.100000
      8 C10        -0.8370    3.0890   10.0790 c3        1 KZM     -0.229000
      9 C11         1.1010   -2.5500    3.2480 ca        1 KZM     -0.134000
     10 C12         2.9540   -1.7470    0.8040 c2        1 KZM      0.266000
     11 C13         2.5290   -1.1100   -1.6230 c2        1 KZM      0.373000
     12 N14         5.4480   -0.5020    0.7920 na        1 KZM     -0.145000
     13 C15         0.8430   -4.4580    1.7540 ca        1 KZM     -0.123000
     14 C16         3.3750   -1.1270   -0.4070 c2        1 KZM     -0.299000
     15 C17         1.2480   -3.1200    1.9680 ca        1 KZM      0.075000
     16 C18         0.3080   -5.2090    2.7960 ca        1 KZM     -0.096000
     17 C19         6.2580   -2.0380    3.7220 c2        1 KZM      0.044000
     18 C20        -3.1950   -2.1210    8.7470 c1        1 KZM     -0.086000
     19 C21         4.9540   -1.1530    1.9540 c2        1 KZM      0.257000
     20 C22         0.5470   -3.3320    4.2600 ca        1 KZM     -0.064000
     21 C23         7.0290   -1.9200    4.9920 c3        1 KZM     -0.215000
     22 C24         0.1630    2.7670   11.1600 c3        1 KZM     -0.092000
     23 C25         0.6510    1.3630   11.1080 c2        1 KZM     -0.365000
     24 C26         0.0180   -1.6290    5.8310 c1        1 KZM     -0.095000
     25 C27         0.3140    0.4330   10.2640 c1        1 KZM      0.041000
     26 N28        -0.4570   -1.6740    8.6090 n4        1 KZM     -0.251000
     27 N29         5.3100    0.2490   -1.3460 n2        1 KZM     -0.234000
     28 N30         6.5910    0.1880    0.6070 n2        1 KZM     -0.026000
     29 C31         6.5000    0.6330   -0.6850 c2        1 KZM     -0.105000
     30 C32         7.5720    1.4060   -1.3850 c3        1 KZM      0.006000
     31 C33         7.0790    2.3450   -2.4210 c2        1 KZM      0.380000
     32 C34         8.3530    2.2870   -0.4630 c2        1 KZM     -0.318000
     33 C35         5.8160    2.8440   -2.4950 c1        1 KZM     -0.275000
     34 C36         9.7030    2.2430   -0.4000 c2        1 KZM      0.085000
     35 C37         4.6760    3.2610   -2.5800 c1        1 KZM      0.186000
     36 O66        10.3200    3.0610    0.4950 oh        1 KZM     -0.220000
     37 HN6         2.5520   -1.2530   -3.6570 hn        1 KZM      0.238500
     38 HN6A        3.6730    3.6340   -2.6610 ha        1 KZM      0.279000
     39 HN8         1.1450   -2.3390    0.0550 hn        1 KZM      0.296000
     40 H9         -0.2640   -5.2460    4.8980 ha        1 KZM      0.163000
     41 H10        -1.1620    4.1540   10.1720 hc        1 KZM      0.086333
     42 H10A       -1.7410    2.4390   10.1650 hc        1 KZM      0.086333
     43 H11         1.4200   -1.5160    3.4500 ha        1 KZM      0.158000
     44 H15         0.9440   -4.9170    0.7560 ha        1 KZM      0.161000
     45 H19         6.2140   -3.0750    3.3140 h4        1 KZM      0.131000
     46 H20         0.0040   -6.2530    2.6140 ha        1 KZM      0.165000
     47 H20A       -4.2810   -3.7050    8.9870 ho        1 KZM      0.211000
     48 H20B       -4.0680   -1.4420    8.6910 ha        1 KZM      0.076000
     49 H23         8.0850   -2.2380    4.7980 hc        1 KZM      0.119000
     50 H24        -0.3900    2.9460    9.0660 hc        1 KZM      0.086333
     51 H24A        1.3900    1.1170   11.9070 ha        1 KZM      0.221000
     52 H25         1.0520    3.4510   11.0740 hc        1 KZM      0.117500
     53 H25A       -0.2990    2.9410   12.1710 hc        1 KZM      0.117500
     54 H26        -2.3610   -2.0350    6.4750 ha        1 KZM      0.005000
     55 H26A       -2.4060   -1.7720    5.8510 ha        1 KZM      0.005000
     56 H26B       -0.1690   -0.8970    5.0230 ha        1 KZM      0.082000
     57 H27         7.0400   -0.8840    5.4120 hc        1 KZM      0.119000
     58 H27A        6.5800   -2.6120    5.7480 hc        1 KZM      0.119000
     59 HN28       -1.5120   -1.7990    8.6840 hn        1 KZM      0.257500
     60 HN2A       -0.0000   -2.5060    8.9560 hn        1 KZM      0.257500
     61 H33         8.2550    0.6480   -1.8880 hc        1 KZM      0.172000
     62 H34         7.7710    2.9180    0.2270 ha        1 KZM      0.183000
     63 H35         7.8310    2.7040   -3.1630 ha        1 KZM      0.191000
     64 H37        10.3380    1.5920   -1.0260 h4        1 KZM      0.144000
     65 HO66       11.2760    2.8910    0.4640 ho        1 KZM      0.251000
     66 HN5        -0.1520   -0.8430    9.1870 hn        1 KZM      0.257500
     67 H63         4.0930   -1.3970   -2.9450 hn        1 KZM      0.238500
     68 H283       -0.2010   -1.5390    7.5980 hn        1 KZM      0.257500
     69 N8          1.7310   -2.3700    0.8720 nh        1 KZM     -0.254000
     70 N6          3.1240   -1.2420   -2.8470 n         1 KZM     -0.408000
@<TRIPOS>BOND
     1    1   11 1   
     2    2   18 1   
     3    2   47 1   
     4    3   20 1   
     5    3   24 1   
     6    4   10 1   
     7    4   19 1   
     8    5   17 1   
     9    5   19 1   
    10    6   12 1   
    11    6   14 1   
    12    6   27 1   
    13    7   16 1   
    14    7   20 1   
    15    7   40 1   
    16    8   22 1   
    17    8   41 1   
    18    8   42 1   
    19    8   50 1   
    20    9   15 1   
    21    9   20 1   
    22    9   43 1   
    23   10   14 1   
    24   10   69 1   
    25   11   14 1   
    26   11   70 1   
    27   12   19 1   
    28   12   28 1   
    29   13   15 1   
    30   13   16 1   
    31   13   44 1   
    32   15   69 1   
    33   16   46 1   
    34   17   21 1   
    35   17   45 1   
    36   18   48 1   
    37   21   49 1   
    38   21   57 1   
    39   21   58 1   
    40   22   23 1   
    41   22   52 1   
    42   22   53 1   
    43   23   25 1   
    44   23   51 1   
    45   24   56 1   
    46   26   59 1   
    47   26   60 1   
    48   26   66 1   
    49   26   68 1   
    50   27   29 1   
    51   28   29 1   
    52   29   30 1   
    53   30   31 1   
    54   30   32 1   
    55   30   61 1   
    56   31   33 1   
    57   31   63 1   
    58   32   34 1   
    59   32   62 1   
    60   33   35 1   
    61   34   36 1   
    62   34   64 1   
    63   35   38 1   
    64   36   65 1   
    65   37   70 1   
    66   39   69 1   
    67   54   55 1   
    68   67   70 1   
@<TRIPOS>SUBSTRUCTURE
     1 KZM         1 TEMP              0 ****  ****    0 ROOT
