@<TRIPOS>MOLECULE
KZM
   68    69     1     0     0
SMALL
bcc


@<TRIPOS>ATOM
      1 O1          0.6690   -0.7510   -0.2930 o         1 KZM     -0.659100
      2 O2         -2.6130   -5.9830    5.4490 os        1 KZM     -0.259900
      3 O3         -3.4660   -1.9400    3.6920 os        1 KZM     -0.336900
      4 N4          2.6070   -0.8400    3.6170 nc        1 KZM     -0.842000
      5 N5          4.5280   -0.1970    4.8820 nh        1 KZM     -0.836900
      6 N6          2.6660   -1.2480   -1.2310 n         1 KZM     -0.646000
      7 C7          3.8600   -0.0520    1.2100 cd        1 KZM      0.097700
      8 C9         -2.8630   -4.2730    3.3410 cx        1 KZM     -0.024100
      9 C10         2.9060    0.7070    6.5750 c3        1 KZM     -0.107400
     10 C11        -1.1970   -2.4510    3.5590 c1        1 KZM     -0.160800
     11 C12         1.9710   -1.0250    2.3940 cc        1 KZM      0.794200
     12 C13         1.9120   -0.8680   -0.1480 c         1 KZM      0.708700
     13 N14         4.4930    0.1430    2.4950 na        1 KZM     -0.059800
     14 C15        -1.8680   -5.3680    3.0900 cu        1 KZM     -0.212200
     15 C16         2.5750   -0.6690    1.1560 cd        1 KZM     -0.403900
     16 C17         0.0490   -2.0370    3.5550 c2        1 KZM      0.100900
     17 C18        -2.4800   -5.3810    4.2590 cu        1 KZM      0.012900
     18 C19         3.8680   -0.4180    6.1530 c3        1 KZM      0.224500
     19 C20        -3.6800   -5.4600    6.2530 c3        1 KZM      0.111700
     20 C21         3.8440   -0.2930    3.6770 cd        1 KZM      0.866400
     21 C22        -2.4350   -2.8770    3.5660 c2        1 KZM      0.094800
     22 C23         4.8970   -0.6330    7.2980 c3        1 KZM      0.143800
     23 C24         3.4900    2.0910    6.4790 c3        1 KZM     -0.102100
     24 C25         7.0920    3.0460    7.7810 c1        1 KZM     -0.166750
     25 C26        -4.3150   -2.1670    4.8110 c3        1 KZM      0.116700
     26 C27         7.2770    1.9980    7.2360 c1        1 KZM     -0.166750
     27 N28         5.9690   -1.5450    6.9910 n3        1 KZM     -0.922800
     28 N29         4.6830    0.4570    0.2590 nc        1 KZM     -0.446300
     29 N30         5.6890    0.7590    2.3450 nd        1 KZM     -0.595100
     30 C31         5.8010    0.9470    0.9900 cc        1 KZM      0.621600
     31 C32         6.9250    1.5810    0.3260 ce        1 KZM     -0.253600
     32 C33         5.6970    1.7220   -3.1760 c1        1 KZM     -0.166750
     33 C34         7.9900    2.0400    0.9660 cd        1 KZM      0.013000
     34 C35         6.3200    2.0050   -4.1560 c1        1 KZM     -0.166750
     35 C36         8.7640    2.2920    2.1490 cd        1 KZM      0.098100
     36 C37         9.2790    2.6830    0.9720 cd        1 KZM     -0.217000
     37 O66         8.7840    2.1520    3.4690 oh        1 KZM     -0.402100
     38 HN6         3.6530   -1.2520   -1.1980 hn        1 KZM      0.315500
     39 HN6A        2.2280   -1.2630   -2.1200 hn        1 KZM      0.315500
     40 HN8         0.1940   -1.5760    1.5450 hn        1 KZM      0.489800
     41 H9         -3.8540   -4.3080    2.8350 hc        1 KZM      0.081700
     42 H10         1.9860    0.6490    5.9350 hc        1 KZM      0.057200
     43 H10A        2.5900    0.5020    7.6320 hc        1 KZM      0.057200
     44 H11         0.6380   -2.0430    4.4960 h4        1 KZM      0.172000
     45 H15        -1.1650   -5.7580    2.3880 ha        1 KZM      0.200000
     46 H19         3.2600   -1.3690    6.0640 h1        1 KZM      0.075700
     47 H20        -3.5250   -4.3720    6.4470 h1        1 KZM      0.049700
     48 H20A       -4.6620   -5.6320    5.7500 h1        1 KZM      0.049700
     49 H20B       -3.6030   -6.0540    7.1980 h1        1 KZM      0.049700
     50 H23         4.2870   -0.9600    8.1920 h1        1 KZM      0.041200
     51 H24         4.4810    2.1570    6.9950 hc        1 KZM      0.040367
     52 H24A        2.7980    2.8270    6.9570 hc        1 KZM      0.040367
     53 H25         3.6320    2.3960    5.4140 hc        1 KZM      0.040367
     54 H25A        6.9270    3.9760    8.2640 ha        1 KZM      0.167500
     55 H26        -4.7650   -3.1900    4.7720 h1        1 KZM      0.035700
     56 H26A       -3.7460   -2.0360    5.7640 h1        1 KZM      0.035700
     57 H26B       -5.1060   -1.3820    4.7110 h1        1 KZM      0.035700
     58 H27         5.3740    0.3560    7.5620 h1        1 KZM      0.041200
     59 H27A        7.4440    1.0670    6.7500 ha        1 KZM      0.167500
     60 HN28        6.3840   -1.8910    7.8330 hn        1 KZM      0.357800
     61 HN2A        5.6550   -2.3150    6.4350 hn        1 KZM      0.357800
     62 H33         5.1390    1.4700   -2.3050 ha        1 KZM      0.167500
     63 H34         6.8530    1.6690   -0.7720 ha        1 KZM      0.169000
     64 H35        10.0550    3.1370    0.3910 ha        1 KZM      0.201000
     65 H37         6.8720    2.2550   -5.0260 ha        1 KZM      0.167500
     66 HO66        9.6200    2.5420    3.7880 ho        1 KZM      0.432000
     67 HN5         5.3620    0.3510    4.9100 hn        1 KZM      0.467800
     68 N8          0.7150   -1.6110    2.4040 nh        1 KZM     -0.728700
@<TRIPOS>BOND
     1    1   12 2   
     2    2   17 1   
     3    2   19 1   
     4    3   21 1   
     5    3   25 1   
     6    4   11 1   
     7    4   20 2   
     8    5   18 1   
     9    5   20 1   
    10    5   67 1   
    11    6   12 1   
    12    6   38 1   
    13    6   39 1   
    14    7   13 1   
    15    7   15 1   
    16    7   28 2   
    17    8   14 1   
    18    8   17 1   
    19    8   21 1   
    20    8   41 1   
    21    9   18 1   
    22    9   23 1   
    23    9   42 1   
    24    9   43 1   
    25   10   16 2   
    26   10   21 2   
    27   11   15 2   
    28   11   68 1   
    29   12   15 1   
    30   13   20 1   
    31   13   29 1   
    32   14   17 2   
    33   14   45 1   
    34   16   44 1   
    35   16   68 1   
    36   18   22 1   
    37   18   46 1   
    38   19   47 1   
    39   19   48 1   
    40   19   49 1   
    41   22   27 1   
    42   22   50 1   
    43   22   58 1   
    44   23   51 1   
    45   23   52 1   
    46   23   53 1   
    47   24   26 3   
    48   24   54 1   
    49   25   55 1   
    50   25   56 1   
    51   25   57 1   
    52   26   59 1   
    53   27   60 1   
    54   27   61 1   
    55   28   30 1   
    56   29   30 2   
    57   30   31 1   
    58   31   33 2   
    59   31   63 1   
    60   32   34 3   
    61   32   62 1   
    62   33   35 1   
    63   33   36 1   
    64   34   65 1   
    65   35   36 2   
    66   35   37 1   
    67   36   64 1   
    68   37   66 1   
    69   40   68 1   
@<TRIPOS>SUBSTRUCTURE
     1 KZM         1 TEMP              0 ****  ****    0 ROOT
