@<TRIPOS>MOLECULE
KZM
   68    72     1     0     0
SMALL
bcc


@<TRIPOS>ATOM
      1 O1          0.7290   -4.3810    0.6380 o         1 KZM     -0.667100
      2 O2          4.8270    1.4260   -2.0870 os        1 KZM     -0.326900
      3 O3          6.5420   -1.5620    1.4000 os        1 KZM     -0.326900
      4 N4          0.7090   -0.1080   -0.1700 nc        1 KZM     -0.830000
      5 N5         -0.6240    1.8690   -0.1270 nh        1 KZM     -0.836900
      6 N6         -1.1130   -4.6030   -0.6550 n         1 KZM     -0.644000
      7 C7         -1.5990   -1.7320   -0.0490 cd        1 KZM      0.095700
      8 C9          5.8060   -0.0060   -0.3510 ca        1 KZM     -0.289000
      9 C10         1.2830    3.0150    0.9960 c3        1 KZM     -0.089400
     10 C11         4.3500   -1.7270    0.6020 ca        1 KZM     -0.205000
     11 C12         0.8190   -1.4910   -0.1400 cc        1 KZM      0.797200
     12 C13        -0.2030   -3.8200    0.0080 c         1 KZM      0.711700
     13 N14        -1.6920   -0.2920   -0.1020 na        1 KZM     -0.059800
     14 C15         3.5010   -0.2560   -1.1460 ca        1 KZM     -0.205000
     15 C16        -0.3150   -2.3500   -0.0800 cd        1 KZM     -0.407900
     16 C17         3.2960   -1.3150   -0.2420 ca        1 KZM      0.208600
     17 C18         4.7480    0.3860   -1.1780 ca        1 KZM      0.167600
     18 C19         0.5200    2.7430   -0.3100 c3        1 KZM      0.239500
     19 C20         6.1060    2.0250   -2.2500 c3        1 KZM      0.114200
     20 C21        -0.5060    0.4920   -0.1470 cd        1 KZM      0.870400
     21 C22         5.5860   -1.0710    0.5310 ca        1 KZM      0.167600
     22 C23         0.1050    4.1170   -0.9370 c3        1 KZM      0.157500
     23 C24         0.4920    3.8600    1.9680 c3        1 KZM     -0.080400
     24 C25         0.0720    5.1710    1.3400 c3        1 KZM     -0.079400
     25 C26         7.8140   -0.9260    1.3660 c3        1 KZM      0.114200
     26 C27        -0.7090    4.9500    0.0630 c3        1 KZM     -0.079400
     27 N28        -0.6030    3.9290   -2.1900 n3        1 KZM     -0.926800
     28 N29        -2.8630   -2.2270    0.0400 nc        1 KZM     -0.430300
     29 N30        -2.9830    0.1010   -0.0400 nd        1 KZM     -0.578100
     30 C31        -3.6880   -1.0740    0.0410 cc        1 KZM      0.589900
     31 C32        -5.1490   -1.1500    0.1230 ca        1 KZM     -0.068900
     32 C33        -5.7580   -2.2470    0.7510 ca        1 KZM     -0.123000
     33 C34        -5.9290   -0.1270   -0.4250 ca        1 KZM     -0.124000
     34 C35        -7.1460   -2.3190    0.8310 ca        1 KZM     -0.104000
     35 C36        -7.3270   -0.2200   -0.3340 ca        1 KZM      0.112100
     36 C37        -7.9430   -1.3120    0.2920 ca        1 KZM     -0.199000
     37 O66        -8.0430    0.8170   -0.8920 oh        1 KZM     -0.497100
     38 HN6        -1.0930   -5.5800   -0.4930 hn        1 KZM      0.316500
     39 HN6A       -1.9190   -4.2170   -1.0760 hn        1 KZM      0.316500
     40 HN8         2.1680   -2.9940    0.1130 hn        1 KZM      0.485800
     41 H9          6.7760    0.5030   -0.3920 ha        1 KZM      0.144000
     42 H10         1.5660    2.0430    1.4780 hc        1 KZM      0.059700
     43 H10A        2.2340    3.5440    0.7210 hc        1 KZM      0.059700
     44 H11         4.2280   -2.5550    1.3160 ha        1 KZM      0.163000
     45 H15         2.7120    0.0860   -1.8320 ha        1 KZM      0.163000
     46 H19         1.2470    2.2520   -1.0280 h1        1 KZM      0.074700
     47 H20         5.9410    2.7760   -3.0630 h1        1 KZM      0.044200
     48 H20A        6.4260    2.5320   -1.3070 h1        1 KZM      0.044200
     49 H20B        6.8640    1.2660   -2.5630 h1        1 KZM      0.044200
     50 H23         1.0910    4.6610   -1.0950 h1        1 KZM      0.026700
     51 H24        -0.4160    3.2970    2.3100 hc        1 KZM      0.048200
     52 H24A        1.1190    4.0640    2.8760 hc        1 KZM      0.048200
     53 H25        -0.5620    5.7480    2.0640 hc        1 KZM      0.043200
     54 H25A        0.9810    5.7910    1.1220 hc        1 KZM      0.043200
     55 H26         8.2830   -1.0330    0.3570 h1        1 KZM      0.044200
     56 H26A        7.7250    0.1510    1.6460 h1        1 KZM      0.044200
     57 H26B        8.4030   -1.4870    2.1360 h1        1 KZM      0.044200
     58 H27        -0.9570    5.9440   -0.3940 hc        1 KZM      0.049200
     59 H27A       -1.6810    4.4410    0.2950 hc        1 KZM      0.049200
     60 HN28       -0.9440    4.8020   -2.5370 hn        1 KZM      0.359300
     61 HN2A       -0.0060    3.5030   -2.8700 hn        1 KZM      0.359300
     62 H33        -5.1420   -3.0510    1.1820 ha        1 KZM      0.156000
     63 H34        -5.4780    0.7430   -0.9240 ha        1 KZM      0.164000
     64 H35        -7.6200   -3.1810    1.3250 ha        1 KZM      0.136000
     65 H37        -9.0390   -1.3710    0.3550 ha        1 KZM      0.134000
     66 HO66       -8.9840    0.6310   -0.7640 ho        1 KZM      0.418000
     67 HN5        -1.5280    2.2760   -0.2410 hn        1 KZM      0.475800
     68 N8          2.0900   -2.0440   -0.2120 nh        1 KZM     -0.730300
@<TRIPOS>BOND
     1    1   12 2   
     2    2   17 1   
     3    2   19 1   
     4    3   21 1   
     5    3   25 1   
     6    4   11 1   
     7    4   20 2   
     8    5   18 1   
     9    5   20 1   
    10    5   67 1   
    11    6   12 1   
    12    6   38 1   
    13    6   39 1   
    14    7   13 1   
    15    7   15 1   
    16    7   28 2   
    17    8   17 ar  
    18    8   21 ar  
    19    8   41 1   
    20    9   18 1   
    21    9   23 1   
    22    9   42 1   
    23    9   43 1   
    24   10   16 ar  
    25   10   21 ar  
    26   10   44 1   
    27   11   15 2   
    28   11   68 1   
    29   12   15 1   
    30   13   20 1   
    31   13   29 1   
    32   14   16 ar  
    33   14   17 ar  
    34   14   45 1   
    35   16   68 1   
    36   18   22 1   
    37   18   46 1   
    38   19   47 1   
    39   19   48 1   
    40   19   49 1   
    41   22   26 1   
    42   22   27 1   
    43   22   50 1   
    44   23   24 1   
    45   23   51 1   
    46   23   52 1   
    47   24   26 1   
    48   24   53 1   
    49   24   54 1   
    50   25   55 1   
    51   25   56 1   
    52   25   57 1   
    53   26   58 1   
    54   26   59 1   
    55   27   60 1   
    56   27   61 1   
    57   28   30 1   
    58   29   30 2   
    59   30   31 1   
    60   31   32 ar  
    61   31   33 ar  
    62   32   34 ar  
    63   32   62 1   
    64   33   35 ar  
    65   33   63 1   
    66   34   36 ar  
    67   34   64 1   
    68   35   36 ar  
    69   35   37 1   
    70   36   65 1   
    71   37   66 1   
    72   40   68 1   
@<TRIPOS>SUBSTRUCTURE
     1 KZM         1 TEMP              0 ****  ****    0 ROOT
