@<TRIPOS>MOLECULE
KZQ
   43    46     1     0     0
SMALL
bcc


@<TRIPOS>ATOM
      1 CAA         0.1530    0.0720   -0.0510 cc        1 KZQ     -0.174100
      2 NAB         1.5390    0.1630    0.0020 na        1 KZQ      0.051800
      3 NAC         2.0470    0.0610    1.2240 nc        1 KZQ     -0.270400
      4 CAD         0.9700   -0.1070    2.0650 ca        1 KZQ     -0.094000
      5 CAE        -0.2710   -0.1070    1.2860 ca        1 KZQ     -0.105000
      6 CAF         0.8940   -0.2700    3.4760 ca        1 KZQ     -0.074000
      7 CAG        -0.3280   -0.4230    4.0640 ca        1 KZQ     -0.133000
      8 CAH        -1.5550   -0.4210    3.3010 ca        1 KZQ      0.059600
      9 CAI        -1.5160   -0.2600    1.9200 ca        1 KZQ     -0.150000
     10 NAJ        -2.8030   -0.6130    3.9230 n         1 KZQ     -0.469100
     11 CAK        -3.1150   -0.3990    5.2570 c         1 KZQ      0.699300
     12 OAL        -2.2720   -0.0420    6.1030 o         1 KZQ     -0.593100
     13 CAM        -4.5350   -0.6390    5.6370 ce        1 KZQ     -0.305400
     14 CAN        -5.2710    0.3030    6.2970 c2        1 KZQ      0.126400
     15 NAO        -6.5720    0.0090    6.7060 n         1 KZQ     -0.481100
     16 CAP        -7.0420   -1.3250    6.7260 c         1 KZQ      0.788500
     17 NAQ        -6.2140   -2.3390    6.2300 n         1 KZQ     -0.526900
     18 CAR        -5.0830   -2.0210    5.3750 c3        1 KZQ      0.211200
     19 CAS        -4.7750    1.6850    6.5810 c3        1 KZQ     -0.087900
     20 OAT        -8.1630   -1.5720    7.2240 o         1 KZQ     -0.647500
     21 CAU        -5.4060   -2.2110    3.9050 ca        1 KZQ     -0.161300
     22 CAV        -6.3670   -1.4170    3.2710 ca        1 KZQ     -0.089500
     23 CAW        -6.6760   -1.6090    1.9290 ca        1 KZQ     -0.169000
     24 CAX        -6.0110   -2.6160    1.2040 ca        1 KZQ      0.134900
     25 CAY        -5.0430   -3.4200    1.8340 ca        1 KZQ     -0.169000
     26 CAZ        -4.7510   -3.2120    3.1790 ca        1 KZQ     -0.089500
     27 FBA        -6.3030   -2.8110   -0.1030 f         1 KZQ     -0.134900
     28 HAA        -0.4090    0.1370   -0.9800 h4        1 KZQ      0.181000
     29 HAF         1.8190   -0.2720    4.0720 ha        1 KZQ      0.149000
     30 HAG        -0.3870   -0.5480    5.1600 ha        1 KZQ      0.170000
     31 HAI        -2.4280   -0.2540    1.3050 ha        1 KZQ      0.133000
     32 HNAJ       -3.5610   -0.8200    3.3080 hn        1 KZQ      0.325500
     33 HNAO       -7.0790    0.6720    7.2470 hn        1 KZQ      0.344500
     34 HNAQ       -6.6750   -3.2040    6.0430 hn        1 KZQ      0.330500
     35 HAR        -4.2740   -2.7710    5.6540 h1        1 KZQ      0.080700
     36 HAS        -4.8380    1.9050    7.6770 hc        1 KZQ      0.071700
     37 HASA       -3.7060    1.7910    6.2690 hc        1 KZQ      0.071700
     38 HASB       -5.3890    2.4380    6.0280 hc        1 KZQ      0.071700
     39 HAV        -6.8880   -0.6290    3.8400 ha        1 KZQ      0.147500
     40 HAW        -7.4340   -0.9870    1.4300 ha        1 KZQ      0.155500
     41 HAY        -4.5280   -4.2050    1.2610 ha        1 KZQ      0.155500
     42 HAZ        -3.9930   -3.8440    3.6700 ha        1 KZQ      0.147500
     43 HNAB        2.1500    0.2930   -0.7730 hn        1 KZQ      0.321700
@<TRIPOS>BOND
     1    1    2 1   
     2    1    5 2   
     3    1   28 1   
     4    2    3 1   
     5    2   43 1   
     6    3    4 2   
     7    4    5 ar  
     8    4    6 ar  
     9    5    9 ar  
    10    6    7 ar  
    11    6   29 1   
    12    7    8 ar  
    13    7   30 1   
    14    8    9 ar  
    15    8   10 1   
    16    9   31 1   
    17   10   11 1   
    18   10   32 1   
    19   11   12 2   
    20   11   13 1   
    21   13   14 2   
    22   13   18 1   
    23   14   15 1   
    24   14   19 1   
    25   15   16 1   
    26   15   33 1   
    27   16   17 1   
    28   16   20 2   
    29   17   18 1   
    30   17   34 1   
    31   18   21 1   
    32   18   35 1   
    33   19   36 1   
    34   19   37 1   
    35   19   38 1   
    36   21   22 ar  
    37   21   26 ar  
    38   22   23 ar  
    39   22   39 1   
    40   23   24 ar  
    41   23   40 1   
    42   24   25 ar  
    43   24   27 1   
    44   25   26 ar  
    45   25   41 1   
    46   26   42 1   
@<TRIPOS>SUBSTRUCTURE
     1 KZQ         1 TEMP              0 ****  ****    0 ROOT
