@<TRIPOS>MOLECULE
KZQ
   43    46     1     0     0
SMALL
bcc


@<TRIPOS>ATOM
      1 CAA         0.0130   -0.0910   -0.0960 cc        1 KZQ     -0.175100
      2 NAB         1.3950    0.0600   -0.0820 na        1 KZQ      0.051800
      3 NAC         1.9260    0.1050    1.1330 nc        1 KZQ     -0.270400
      4 CAD         0.8710   -0.0200    2.0100 ca        1 KZQ     -0.096000
      5 CAE        -0.3810   -0.1490    1.2620 ca        1 KZQ     -0.103000
      6 CAF         0.8250   -0.0420    3.4300 ca        1 KZQ     -0.072000
      7 CAG        -0.3810   -0.1800    4.0580 ca        1 KZQ     -0.140000
      8 CAH        -1.6190   -0.3070    3.3250 ca        1 KZQ      0.063600
      9 CAI        -1.6070   -0.2910    1.9330 ca        1 KZQ     -0.155000
     10 NAJ        -2.8580   -0.4390    3.9780 n         1 KZQ     -0.464100
     11 CAK        -3.1100   -0.5250    5.3380 c         1 KZQ      0.700300
     12 OAL        -2.2270   -0.4510    6.2120 o         1 KZQ     -0.589100
     13 CAM        -4.5450   -0.7050    5.7040 ce        1 KZQ     -0.307400
     14 CAN        -5.2390    0.2580    6.3760 c2        1 KZQ      0.120400
     15 NAO        -6.5670    0.0340    6.7400 n         1 KZQ     -0.480100
     16 CAP        -7.1300   -1.2610    6.6700 c         1 KZQ      0.790500
     17 NAQ        -6.3550   -2.3110    6.1650 n         1 KZQ     -0.529900
     18 CAR        -5.1460   -2.0540    5.4000 c3        1 KZQ      0.214200
     19 CAS        -4.6540    1.5930    6.7110 c3        1 KZQ     -0.086900
     20 OAT        -8.2900   -1.4470    7.1010 o         1 KZQ     -0.648500
     21 CAU        -5.3650   -2.2320    3.9100 ca        1 KZQ     -0.159300
     22 CAV        -6.1350   -1.3170    3.1840 ca        1 KZQ     -0.090500
     23 CAW        -6.3540   -1.4960    1.8220 ca        1 KZQ     -0.169000
     24 CAX        -5.7920   -2.6120    1.1730 ca        1 KZQ      0.134900
     25 CAY        -5.0160   -3.5360    1.8970 ca        1 KZQ     -0.169000
     26 CAZ        -4.8120   -3.3400    3.2600 ca        1 KZQ     -0.090500
     27 FBA        -5.9980   -2.7950   -0.1520 f         1 KZQ     -0.134900
     28 HAA        -0.5670   -0.1450   -1.0150 h4        1 KZQ      0.181000
     29 HAF         1.7580    0.0530    4.0060 ha        1 KZQ      0.149000
     30 HAG        -0.4080   -0.1970    5.1610 ha        1 KZQ      0.174000
     31 HAI        -2.5270   -0.3850    1.3380 ha        1 KZQ      0.132000
     32 HNAJ       -3.6480   -0.5430    3.3740 hn        1 KZQ      0.324500
     33 HNAO       -7.0470    0.7050    7.2950 hn        1 KZQ      0.344500
     34 HNAQ       -6.8660   -3.1300    5.9170 hn        1 KZQ      0.330500
     35 HAR        -4.4010   -2.8440    5.7400 h1        1 KZQ      0.081700
     36 HAS        -3.5390    1.5590    6.6200 hc        1 KZQ      0.070700
     37 HASA       -4.9080    1.8940    7.7580 hc        1 KZQ      0.070700
     38 HASB       -5.0510    2.3690    6.0100 hc        1 KZQ      0.070700
     39 HAV        -6.5760   -0.4470    3.6960 ha        1 KZQ      0.147500
     40 HAW        -6.9630   -0.7810    1.2500 ha        1 KZQ      0.155500
     41 HAY        -4.5810   -4.4050    1.3820 ha        1 KZQ      0.155500
     42 HAZ        -4.2050   -4.0660    3.8240 ha        1 KZQ      0.147500
     43 HNAB        1.9860    0.1330   -0.8780 hn        1 KZQ      0.321700
@<TRIPOS>BOND
     1    1    2 1   
     2    1    5 2   
     3    1   28 1   
     4    2    3 1   
     5    2   43 1   
     6    3    4 2   
     7    4    5 ar  
     8    4    6 ar  
     9    5    9 ar  
    10    6    7 ar  
    11    6   29 1   
    12    7    8 ar  
    13    7   30 1   
    14    8    9 ar  
    15    8   10 1   
    16    9   31 1   
    17   10   11 1   
    18   10   32 1   
    19   11   12 2   
    20   11   13 1   
    21   13   14 2   
    22   13   18 1   
    23   14   15 1   
    24   14   19 1   
    25   15   16 1   
    26   15   33 1   
    27   16   17 1   
    28   16   20 2   
    29   17   18 1   
    30   17   34 1   
    31   18   21 1   
    32   18   35 1   
    33   19   36 1   
    34   19   37 1   
    35   19   38 1   
    36   21   22 ar  
    37   21   26 ar  
    38   22   23 ar  
    39   22   39 1   
    40   23   24 ar  
    41   23   40 1   
    42   24   25 ar  
    43   24   27 1   
    44   25   26 ar  
    45   25   41 1   
    46   26   42 1   
@<TRIPOS>SUBSTRUCTURE
     1 KZQ         1 TEMP              0 ****  ****    0 ROOT
