@<TRIPOS>MOLECULE
KZQ
   43    46     1     0     0
SMALL
bcc


@<TRIPOS>ATOM
      1 CAA         0.0250   -0.2800   -0.0890 cc        1 KZQ     -0.174100
      2 NAB         1.3950   -0.0480   -0.0780 na        1 KZQ      0.051800
      3 NAC         1.9060    0.1460    1.1310 nc        1 KZQ     -0.270400
      4 CAD         0.8480    0.0460    2.0070 ca        1 KZQ     -0.095000
      5 CAE        -0.3840   -0.2280    1.2640 ca        1 KZQ     -0.104000
      6 CAF         0.7830    0.1630    3.4220 ca        1 KZQ     -0.073000
      7 CAG        -0.4220    0.0180    4.0490 ca        1 KZQ     -0.136000
      8 CAH        -1.6400   -0.2540    3.3210 ca        1 KZQ      0.059600
      9 CAI        -1.6100   -0.3770    1.9360 ca        1 KZQ     -0.152000
     10 NAJ        -2.8790   -0.3680    3.9790 ns        1 KZQ     -0.464100
     11 CAK        -3.1040   -0.5780    5.3320 c         1 KZQ      0.698300
     12 OAL        -2.2000   -0.6060    6.1870 o         1 KZQ     -0.586100
     13 CAM        -4.5360   -0.7470    5.7140 ce        1 KZQ     -0.307400
     14 CAN        -5.2070    0.2070    6.4210 c2        1 KZQ      0.118400
     15 NAO        -6.5350   -0.0040    6.7910 ns        1 KZQ     -0.480100
     16 CAP        -7.1250   -1.2840    6.6770 c         1 KZQ      0.791500
     17 NAQ        -6.3750   -2.3310    6.1320 ns        1 KZQ     -0.530900
     18 CAR        -5.1600   -2.0770    5.3780 c3        1 KZQ      0.214200
     19 CAS        -4.5920    1.5190    6.7910 c3        1 KZQ     -0.084900
     20 OAT        -8.2870   -1.4610    7.1050 o         1 KZQ     -0.648500
     21 CAU        -5.3750   -2.2170    3.8830 ca        1 KZQ     -0.158300
     22 CAV        -6.1170   -1.2680    3.1730 ca        1 KZQ     -0.091000
     23 CAW        -6.3340   -1.4130    1.8070 ca        1 KZQ     -0.168500
     24 CAX        -5.7970   -2.5290    1.1370 ca        1 KZQ      0.134900
     25 CAY        -5.0490   -3.4880    1.8450 ca        1 KZQ     -0.168500
     26 CAZ        -4.8470   -3.3250    3.2120 ca        1 KZQ     -0.091000
     27 FBA        -6.0010   -2.6790   -0.1930 f         1 KZQ     -0.134900
     28 HAA        -0.5380   -0.4580   -1.0030 h4        1 KZQ      0.181000
     29 HAF         1.7010    0.3670    3.9930 ha        1 KZQ      0.149000
     30 HAG        -0.4680    0.1070    5.1480 ha        1 KZQ      0.171000
     31 HAI        -2.5150   -0.5820    1.3460 ha        1 KZQ      0.133000
     32 HNAJ       -3.6740   -0.4520    3.3800 hn        1 KZQ      0.323500
     33 HNAO       -6.9970    0.6570    7.3730 hn        1 KZQ      0.344500
     34 HNAQ       -6.9040   -3.1300    5.8570 hn        1 KZQ      0.331500
     35 HAR        -4.4290   -2.8870    5.7030 h1        1 KZQ      0.081700
     36 HAS        -4.8260    1.7890    7.8510 hc        1 KZQ      0.070033
     37 HASA       -3.4790    1.4660    6.6840 hc        1 KZQ      0.070033
     38 HASB       -4.9830    2.3250    6.1220 hc        1 KZQ      0.070033
     39 HAV        -6.5380   -0.3980    3.7020 ha        1 KZQ      0.147500
     40 HAW        -6.9210   -0.6710    1.2470 ha        1 KZQ      0.155500
     41 HAY        -4.6340   -4.3570    1.3140 ha        1 KZQ      0.155500
     42 HAZ        -4.2620   -4.0780    3.7640 ha        1 KZQ      0.147500
     43 HNAB        1.9930   -0.0200   -0.8730 hn        1 KZQ      0.321700
@<TRIPOS>BOND
     1    1    2 1   
     2    1    5 2   
     3    1   28 1   
     4    2    3 1   
     5    2   43 1   
     6    3    4 2   
     7    4    5 ar  
     8    4    6 ar  
     9    5    9 ar  
    10    6    7 ar  
    11    6   29 1   
    12    7    8 ar  
    13    7   30 1   
    14    8    9 ar  
    15    8   10 1   
    16    9   31 1   
    17   10   11 1   
    18   10   32 1   
    19   11   12 2   
    20   11   13 1   
    21   13   14 2   
    22   13   18 1   
    23   14   15 1   
    24   14   19 1   
    25   15   16 1   
    26   15   33 1   
    27   16   17 1   
    28   16   20 2   
    29   17   18 1   
    30   17   34 1   
    31   18   21 1   
    32   18   35 1   
    33   19   36 1   
    34   19   37 1   
    35   19   38 1   
    36   21   22 ar  
    37   21   26 ar  
    38   22   23 ar  
    39   22   39 1   
    40   23   24 ar  
    41   23   40 1   
    42   24   25 ar  
    43   24   27 1   
    44   25   26 ar  
    45   25   41 1   
    46   26   42 1   
@<TRIPOS>SUBSTRUCTURE
     1 KZQ         1 TEMP              0 ****  ****    0 ROOT
