@<TRIPOS>MOLECULE
D01
   48    52     1     0     0
SMALL
bcc


@<TRIPOS>ATOM
      1 N1         -0.1680    0.4200    0.0830 na        1 D01     -0.117400
      2 C1          1.1840    0.7290    0.0480 ca        1 D01     -0.009200
      3 C2          2.0990    0.9880    1.0910 ca        1 D01     -0.144000
      4 C3          3.3920    1.3240    0.7470 ca        1 D01     -0.081000
      5 C4          3.7950    1.4100   -0.6090 ca        1 D01     -0.019600
      6 CL1         5.4080    1.8330   -0.9490 cl        1 D01     -0.092400
      7 C5          2.9170    1.1600   -1.6510 ca        1 D01     -0.053000
      8 C6          1.5980    0.8120   -1.3360 ca        1 D01     -0.131800
      9 C7          0.4410    0.4870   -2.1220 cc        1 D01     -0.018200
     10 C8         -0.6180    0.2250   -1.2390 cd        1 D01     -0.359200
     11 S1         -2.1940   -0.2430   -1.6160 sy        1 D01      1.517800
     12 O1         -2.1540   -1.0140   -2.7940 o         1 D01     -0.648300
     13 O2         -2.7260   -0.8480   -0.4530 o         1 D01     -0.648300
     14 N2         -2.9590    1.1610   -1.9020 n3        1 D01     -0.814500
     15 C9         -3.0440    1.7450   -3.2170 c3        1 D01      0.195300
     16 C10        -4.4570    2.2650   -3.5740 c3        1 D01      0.070500
     17 N3         -5.0580    3.0610   -2.5220 n         1 D01     -0.446800
     18 C11        -5.2280    4.4300   -2.7150 c         1 D01      0.693300
     19 O3         -5.1010    4.9250   -3.8520 o         1 D01     -0.579100
     20 C12        -5.6440    5.2710   -1.5710 cc        1 D01     -0.183600
     21 C13        -4.8460    5.5940   -0.5010 cd        1 D01     -0.058200
     22 C14        -5.5290    6.4940    0.3940 ca        1 D01     -0.183100
     23 C15        -6.8390    6.8130   -0.0730 ca        1 D01     -0.064100
     24 S2         -7.1530    6.0300   -1.5180 ss        1 D01      0.166500
     25 C16        -7.6530    7.6800    0.6710 ca        1 D01     -0.136000
     26 C17        -7.1410    8.2010    1.8450 ca        1 D01     -0.074000
     27 C18        -5.8460    7.8720    2.2900 ca        1 D01     -0.235300
     28 N4         -5.0140    7.0220    1.5900 na        1 D01      0.287600
     29 O4         -3.8950    6.7300    1.9810 o         1 D01     -0.273000
     30 C19        -4.9890    2.4450   -1.2180 c3        1 D01      0.070500
     31 C20        -3.5730    1.9340   -0.8540 c3        1 D01      0.195300
     32 HN1        -0.6540    0.0660    0.8710 hn        1 D01      0.315700
     33 H2          1.7880    0.9250    2.1420 ha        1 D01      0.146000
     34 H3          4.1310    1.5310    1.5380 ha        1 D01      0.151000
     35 H5          3.2350    1.2290   -2.7020 ha        1 D01      0.154000
     36 H7          0.3980    0.4420   -3.2100 ha        1 D01      0.170000
     37 H91        -2.7640    0.9680   -3.9870 h1        1 D01      0.063950
     38 H92        -2.3140    2.6030   -3.2920 h1        1 D01      0.063950
     39 H101       -4.3770    2.8700   -4.5200 h1        1 D01      0.073950
     40 H102       -5.1380    1.3870   -3.7630 h1        1 D01      0.073950
     41 H13        -3.8240    5.2480   -0.3150 ha        1 D01      0.185000
     42 H16        -8.6640    7.9360    0.3250 ha        1 D01      0.154000
     43 H17        -7.7340    8.8890    2.4660 ha        1 D01      0.157000
     44 H18        -5.4260    8.2800    3.2250 h4        1 D01      0.189000
     45 H191       -5.7020    1.5710   -1.2230 h1        1 D01      0.073950
     46 H192       -5.3150    3.1590   -0.4130 h1        1 D01      0.073950
     47 H201       -2.9210    2.8230   -0.6100 h1        1 D01      0.063950
     48 H202       -3.6700    1.2960    0.0720 h1        1 D01      0.063950
@<TRIPOS>BOND
     1    1    2 1   
     2    1   10 1   
     3    1   32 1   
     4    2    3 ar  
     5    2    8 ar  
     6    3    4 ar  
     7    3   33 1   
     8    4    5 ar  
     9    4   34 1   
    10    5    6 1   
    11    5    7 ar  
    12    7    8 ar  
    13    7   35 1   
    14    8    9 1   
    15    9   10 2   
    16    9   36 1   
    17   10   11 1   
    18   11   12 2   
    19   11   13 2   
    20   11   14 1   
    21   14   15 1   
    22   14   31 1   
    23   15   16 1   
    24   15   37 1   
    25   15   38 1   
    26   16   17 1   
    27   16   39 1   
    28   16   40 1   
    29   17   18 1   
    30   17   30 1   
    31   18   19 2   
    32   18   20 1   
    33   20   21 2   
    34   20   24 1   
    35   21   22 1   
    36   21   41 1   
    37   22   23 ar  
    38   22   28 2   
    39   23   24 1   
    40   23   25 ar  
    41   25   26 ar  
    42   25   42 1   
    43   26   27 ar  
    44   26   43 1   
    45   27   28 1   
    46   27   44 1   
    47   28   29 1   
    48   30   31 1   
    49   30   45 1   
    50   30   46 1   
    51   31   47 1   
    52   31   48 1   
@<TRIPOS>SUBSTRUCTURE
     1 D01         1 TEMP              0 ****  ****    0 ROOT
