@<TRIPOS>MOLECULE
D01
   48    52     1     0     0
SMALL
bcc


@<TRIPOS>ATOM
      1 N1         -3.2150    0.2480   -1.3860 na        1 D01     -0.117400
      2 C1         -4.1050    1.1320   -0.7960 ca        1 D01     -0.009200
      3 C2         -4.5830    2.3880   -1.2290 ca        1 D01     -0.144000
      4 C3         -5.4390    3.0760   -0.3940 ca        1 D01     -0.081000
      5 C4         -5.8290    2.5450    0.8610 ca        1 D01     -0.019600
      6 CL1        -6.8860    3.4590    1.8320 cl        1 D01     -0.092400
      7 C5         -5.3750    1.3150    1.3090 ca        1 D01     -0.053000
      8 C6         -4.5080    0.5890    0.4830 ca        1 D01     -0.131800
      9 C7         -3.8560   -0.6840    0.6040 cc        1 D01     -0.018200
     10 C8         -3.0930   -0.8860   -0.5570 cd        1 D01     -0.359200
     11 S1         -2.1560   -2.2290   -0.9650 sy        1 D01      1.517800
     12 O1         -2.7560   -3.3710   -0.4010 o         1 D01     -0.648300
     13 O2         -1.9940   -2.1980   -2.3690 o         1 D01     -0.648300
     14 N2         -0.7300   -1.9420   -0.2410 n3        1 D01     -0.814500
     15 C9         -0.4290   -2.4020    1.0920 c3        1 D01      0.195300
     16 C10         0.9730   -3.0410    1.2240 c3        1 D01      0.070500
     17 N3          2.0240   -2.2550    0.6080 n         1 D01     -0.446800
     18 C11         2.9640   -1.6210    1.4150 c         1 D01      0.693300
     19 O3          3.0590   -1.9170    2.6230 o         1 D01     -0.579100
     20 C12         3.9020   -0.6540    0.8030 cc        1 D01     -0.183600
     21 C13         3.5590    0.5950    0.3460 cd        1 D01     -0.058200
     22 C14         4.7230    1.3090   -0.1150 ca        1 D01     -0.183100
     23 C15         5.9120    0.5370    0.0330 ca        1 D01     -0.064100
     24 S2          5.5620   -0.9570    0.7000 ss        1 D01      0.166500
     25 C16         7.1470    1.0730   -0.3630 ca        1 D01     -0.136000
     26 C17         7.1580    2.3520   -0.8870 ca        1 D01     -0.074000
     27 C18         5.9720    3.0980   -1.0270 ca        1 D01     -0.235300
     28 N4          4.7380    2.6070   -0.6530 na        1 D01      0.287600
     29 O4          3.7080    3.2510   -0.7830 o         1 D01     -0.273000
     30 C19         1.7150   -1.8300   -0.7370 c3        1 D01      0.070500
     31 C20         0.3160   -1.1790   -0.8700 c3        1 D01      0.195300
     32 HN1        -2.9710    0.2370   -2.3470 hn        1 D01      0.315700
     33 H2         -4.2800    2.8020   -2.2000 ha        1 D01      0.146000
     34 H3         -5.8310    4.0580   -0.7040 ha        1 D01      0.151000
     35 H5         -5.6800    0.9090    2.2840 ha        1 D01      0.154000
     36 H7         -3.9460   -1.3740    1.4420 ha        1 D01      0.170000
     37 H91        -1.1870   -3.1820    1.3950 h1        1 D01      0.063950
     38 H92        -0.5000   -1.5350    1.8100 h1        1 D01      0.063950
     39 H101        0.9700   -4.0510    0.7230 h1        1 D01      0.073950
     40 H102        1.1890   -3.1840    2.3210 h1        1 D01      0.073950
     41 H13         2.5560    1.0340    0.3240 ha        1 D01      0.185000
     42 H16         8.0720    0.4910   -0.2540 ha        1 D01      0.154000
     43 H17         8.0990    2.8240   -1.2100 ha        1 D01      0.157000
     44 H18         5.9670    4.1200   -1.4440 h4        1 D01      0.189000
     45 H191        2.4750   -1.0930   -1.1150 h1        1 D01      0.073950
     46 H192        1.7560   -2.7460   -1.3950 h1        1 D01      0.073950
     47 H201        0.0930   -1.0770   -1.9710 h1        1 D01      0.063950
     48 H202        0.3540   -0.1460   -0.4150 h1        1 D01      0.063950
@<TRIPOS>BOND
     1    1    2 1   
     2    1   10 1   
     3    1   32 1   
     4    2    3 ar  
     5    2    8 ar  
     6    3    4 ar  
     7    3   33 1   
     8    4    5 ar  
     9    4   34 1   
    10    5    6 1   
    11    5    7 ar  
    12    7    8 ar  
    13    7   35 1   
    14    8    9 1   
    15    9   10 2   
    16    9   36 1   
    17   10   11 1   
    18   11   12 2   
    19   11   13 2   
    20   11   14 1   
    21   14   15 1   
    22   14   31 1   
    23   15   16 1   
    24   15   37 1   
    25   15   38 1   
    26   16   17 1   
    27   16   39 1   
    28   16   40 1   
    29   17   18 1   
    30   17   30 1   
    31   18   19 2   
    32   18   20 1   
    33   20   21 2   
    34   20   24 1   
    35   21   22 1   
    36   21   41 1   
    37   22   23 ar  
    38   22   28 2   
    39   23   24 1   
    40   23   25 ar  
    41   25   26 ar  
    42   25   42 1   
    43   26   27 ar  
    44   26   43 1   
    45   27   28 1   
    46   27   44 1   
    47   28   29 1   
    48   30   31 1   
    49   30   45 1   
    50   30   46 1   
    51   31   47 1   
    52   31   48 1   
@<TRIPOS>SUBSTRUCTURE
     1 D01         1 TEMP              0 ****  ****    0 ROOT
