@<TRIPOS>MOLECULE
D01
   48    52     1     0     0
SMALL
bcc


@<TRIPOS>ATOM
      1 N1         -0.1530    0.4350    0.0900 na        1 D01     -0.117400
      2 C1          1.1970    0.7470    0.0390 ca        1 D01     -0.009200
      3 C2          2.1210    1.0190    1.0710 ca        1 D01     -0.144000
      4 C3          3.4100    1.3530    0.7120 ca        1 D01     -0.081000
      5 C4          3.8010    1.4250   -0.6480 ca        1 D01     -0.019600
      6 CL1         5.4100    1.8470   -1.0080 cl        1 D01     -0.092400
      7 C5          2.9140    1.1620   -1.6800 ca        1 D01     -0.053000
      8 C6          1.5980    0.8150   -1.3490 ca        1 D01     -0.131800
      9 C7          0.4350    0.4790   -2.1210 cc        1 D01     -0.018200
     10 C8         -0.6150    0.2250   -1.2260 cd        1 D01     -0.359200
     11 S1         -2.1940   -0.2510   -1.5830 sy        1 D01      1.517800
     12 O1         -2.1630   -1.0340   -2.7520 o         1 D01     -0.648300
     13 O2         -2.7130   -0.8440   -0.4090 o         1 D01     -0.648300
     14 N2         -2.9640    1.1480   -1.8780 n3        1 D01     -0.814500
     15 C9         -3.0640    1.7160   -3.1990 c3        1 D01      0.195300
     16 C10        -4.4810    2.2290   -3.5470 c3        1 D01      0.070500
     17 N3         -5.0740    3.0360   -2.4990 n         1 D01     -0.447800
     18 C11        -5.2500    4.4020   -2.7070 c         1 D01      0.693300
     19 O3         -5.1360    4.8840   -3.8510 o         1 D01     -0.579100
     20 C12        -5.6570    5.2550   -1.5690 cc        1 D01     -0.183600
     21 C13        -4.8490    5.5950   -0.5110 cd        1 D01     -0.058200
     22 C14        -5.5260    6.5030    0.3790 ca        1 D01     -0.183100
     23 C15        -6.8410    6.8110   -0.0770 ca        1 D01     -0.064100
     24 S2         -7.1680    6.0100   -1.5090 ss        1 D01      0.166500
     25 C16        -7.6510    7.6850    0.6650 ca        1 D01     -0.136000
     26 C17        -7.1280    8.2220    1.8270 ca        1 D01     -0.074000
     27 C18        -5.8280    7.9030    2.2620 ca        1 D01     -0.235300
     28 N4         -5.0000    7.0470    1.5640 na        1 D01      0.287600
     29 O4         -3.8760    6.7640    1.9460 o         1 D01     -0.273000
     30 C19        -4.9900    2.4370   -1.1890 c3        1 D01      0.070500
     31 C20        -3.5690    1.9330   -0.8330 c3        1 D01      0.195300
     32 HN1        -0.6320    0.0890    0.8860 hn        1 D01      0.315700
     33 H2          1.8200    0.9660    2.1260 ha        1 D01      0.146000
     34 H3          4.1560    1.5700    1.4940 ha        1 D01      0.151000
     35 H5          3.2220    1.2200   -2.7340 ha        1 D01      0.154000
     36 H7          0.3820    0.4220   -3.2080 ha        1 D01      0.170000
     37 H91        -2.7900    0.9310   -3.9620 h1        1 D01      0.063950
     38 H92        -2.3370    2.5750   -3.2920 h1        1 D01      0.063950
     39 H101       -4.4130    2.8230   -4.5020 h1        1 D01      0.073950
     40 H102       -5.1630    1.3480   -3.7190 h1        1 D01      0.073950
     41 H13        -3.8240    5.2550   -0.3320 ha        1 D01      0.185000
     42 H16        -8.6660    7.9330    0.3260 ha        1 D01      0.154000
     43 H17        -7.7180    8.9150    2.4460 ha        1 D01      0.157000
     44 H18        -5.3990    8.3240    3.1870 h4        1 D01      0.189000
     45 H191       -5.7010    1.5600   -1.1750 h1        1 D01      0.073950
     46 H192       -5.3090    3.1590   -0.3890 h1        1 D01      0.073950
     47 H201       -2.9160    2.8260   -0.6070 h1        1 D01      0.063950
     48 H202       -3.6550    1.3060    0.1010 h1        1 D01      0.063950
@<TRIPOS>BOND
     1    1    2 1   
     2    1   10 1   
     3    1   32 1   
     4    2    3 ar  
     5    2    8 ar  
     6    3    4 ar  
     7    3   33 1   
     8    4    5 ar  
     9    4   34 1   
    10    5    6 1   
    11    5    7 ar  
    12    7    8 ar  
    13    7   35 1   
    14    8    9 1   
    15    9   10 2   
    16    9   36 1   
    17   10   11 1   
    18   11   12 2   
    19   11   13 2   
    20   11   14 1   
    21   14   15 1   
    22   14   31 1   
    23   15   16 1   
    24   15   37 1   
    25   15   38 1   
    26   16   17 1   
    27   16   39 1   
    28   16   40 1   
    29   17   18 1   
    30   17   30 1   
    31   18   19 2   
    32   18   20 1   
    33   20   21 2   
    34   20   24 1   
    35   21   22 1   
    36   21   41 1   
    37   22   23 ar  
    38   22   28 2   
    39   23   24 1   
    40   23   25 ar  
    41   25   26 ar  
    42   25   42 1   
    43   26   27 ar  
    44   26   43 1   
    45   27   28 1   
    46   27   44 1   
    47   28   29 1   
    48   30   31 1   
    49   30   45 1   
    50   30   46 1   
    51   31   47 1   
    52   31   48 1   
@<TRIPOS>SUBSTRUCTURE
     1 D01         1 TEMP              0 ****  ****    0 ROOT
