@<TRIPOS>MOLECULE
D01
   48    52     1     0     0
SMALL
bcc


@<TRIPOS>ATOM
      1 N1         -0.1270    0.4590    0.0890 na        1 D01     -0.117400
      2 C1          1.2210    0.7780    0.0240 ca        1 D01     -0.009200
      3 C2          2.1530    1.0650    1.0450 ca        1 D01     -0.144000
      4 C3          3.4370    1.4030    0.6710 ca        1 D01     -0.081000
      5 C4          3.8150    1.4650   -0.6930 ca        1 D01     -0.019600
      6 Cl1         5.4180    1.8930   -1.0710 cl        1 D01     -0.092400
      7 C5          2.9200    1.1880   -1.7140 ca        1 D01     -0.053000
      8 C6          1.6090    0.8370   -1.3680 ca        1 D01     -0.131800
      9 C7          0.4420    0.4870   -2.1270 cc        1 D01     -0.018200
     10 C8         -0.5990    0.2350   -1.2200 cd        1 D01     -0.359200
     11 S1         -2.1780   -0.2530   -1.5590 sy        1 D01      1.517800
     12 O1         -2.1530   -1.0460   -2.7230 o         1 D01     -0.648300
     13 O2         -2.6840   -0.8390   -0.3760 o         1 D01     -0.648300
     14 N2         -2.9600    1.1390   -1.8590 n3        1 D01     -0.814500
     15 C9         -3.0720    1.6970   -3.1830 c3        1 D01      0.195300
     16 C10        -4.4950    2.1980   -3.5250 c3        1 D01      0.070500
     17 N3         -5.0860    3.0090   -2.4790 n         1 D01     -0.447800
     18 C11        -5.2720    4.3720   -2.6950 c         1 D01      0.693300
     19 O3         -5.1680    4.8460   -3.8440 o         1 D01     -0.579100
     20 C12        -5.6770    5.2310   -1.5610 cc        1 D01     -0.183600
     21 C13        -4.8650    5.5830   -0.5110 cd        1 D01     -0.058200
     22 C14        -5.5410    6.4940    0.3770 ca        1 D01     -0.183100
     23 C15        -6.8620    6.7910   -0.0720 ca        1 D01     -0.064100
     24 S2         -7.1930    5.9770   -1.4960 ss        1 D01      0.166500
     25 C16        -7.6720    7.6650    0.6680 ca        1 D01     -0.136000
     26 C17        -7.1450    8.2130    1.8220 ca        1 D01     -0.074000
     27 C18        -5.8400    7.9060    2.2510 ca        1 D01     -0.235300
     28 N4         -5.0110    7.0500    1.5540 na        1 D01      0.287600
     29 O4         -3.8820    6.7770    1.9310 o         1 D01     -0.273000
     30 C19        -4.9890    2.4200   -1.1650 c3        1 D01      0.070500
     31 C20        -3.5620    1.9280   -0.8150 c3        1 D01      0.195300
     32 HN1        -0.5960    0.1180    0.8930 hn        1 D01      0.315700
     33 H2          1.8610    1.0200    2.1030 ha        1 D01      0.146000
     34 H3          4.1890    1.6310    1.4440 ha        1 D01      0.151000
     35 H5          3.2190    1.2390   -2.7720 ha        1 D01      0.154000
     36 H7          0.3790    0.4200   -3.2130 ha        1 D01      0.170000
     37 H91        -2.3520    2.5590   -3.2870 h1        1 D01      0.063950
     38 H92        -2.7990    0.9080   -3.9430 h1        1 D01      0.063950
     39 H101       -4.4370    2.7860   -4.4840 h1        1 D01      0.073950
     40 H102       -5.1720    1.3110   -3.6860 h1        1 D01      0.073950
     41 H13        -3.8360    5.2510   -0.3360 ha        1 D01      0.185000
     42 H16        -8.6910    7.9040    0.3340 ha        1 D01      0.154000
     43 H17        -7.7350    8.9080    2.4400 ha        1 D01      0.157000
     44 H18        -5.4070    8.3370    3.1710 h4        1 D01      0.189000
     45 H191       -5.6940    1.5390   -1.1400 h1        1 D01      0.073950
     46 H192       -5.3070    3.1460   -0.3680 h1        1 D01      0.073950
     47 H201       -2.9140    2.8270   -0.6000 h1        1 D01      0.063950
     48 H202       -3.6380    1.3070    0.1240 h1        1 D01      0.063950
@<TRIPOS>BOND
     1    1    2 1   
     2    1   10 1   
     3    1   32 1   
     4    2    3 ar  
     5    2    8 ar  
     6    3    4 ar  
     7    3   33 1   
     8    4    5 ar  
     9    4   34 1   
    10    5    6 1   
    11    5    7 ar  
    12    7    8 ar  
    13    7   35 1   
    14    8    9 1   
    15    9   10 2   
    16    9   36 1   
    17   10   11 1   
    18   11   12 2   
    19   11   13 2   
    20   11   14 1   
    21   14   15 1   
    22   14   31 1   
    23   15   16 1   
    24   15   37 1   
    25   15   38 1   
    26   16   17 1   
    27   16   39 1   
    28   16   40 1   
    29   17   18 1   
    30   17   30 1   
    31   18   19 2   
    32   18   20 1   
    33   20   21 2   
    34   20   24 1   
    35   21   22 1   
    36   21   41 1   
    37   22   23 ar  
    38   22   28 2   
    39   23   24 1   
    40   23   25 ar  
    41   25   26 ar  
    42   25   42 1   
    43   26   27 ar  
    44   26   43 1   
    45   27   28 1   
    46   27   44 1   
    47   28   29 1   
    48   30   31 1   
    49   30   45 1   
    50   30   46 1   
    51   31   47 1   
    52   31   48 1   
@<TRIPOS>SUBSTRUCTURE
     1 D01         1 TEMP              0 ****  ****    0 ROOT
