@<TRIPOS>MOLECULE
D02
   29    28     1     0     0
SMALL
bcc


@<TRIPOS>ATOM
      1 CAA        -5.3150   -2.5370   -2.9960 c3        1 D02     -0.066000
      2 NAB         5.0120    1.8910    2.5810 n3        1 D02     -0.955000
      3 OAC        -4.4840   -0.5590   -1.5220 o         1 D02     -0.353000
      4 OAD         2.9690    2.8320    3.7700 o         1 D02     -0.909000
      5 OAE         3.4830    0.7240    4.2460 o         1 D02     -0.909000
      6 FAF         1.4360   -1.9990    0.2300 f         1 D02     -0.061500
      7 FAG        -0.0440    2.4320   -0.4490 f         1 D02     -0.061500
      8 FAH         3.1780   -1.1250    2.1340 f         1 D02     -0.055000
      9 FAI         1.6990    3.3050    1.4550 f         1 D02     -0.055000
     10 CAJ        -1.4520   -0.6600   -0.6800 c1        1 D02     -0.018000
     11 NAK        -1.3590   -0.5340   -2.8650 n2        1 D02     -0.013000
     12 NAL        -0.1600   -0.1470   -2.3600 n2        1 D02      0.043000
     13 OAM        -3.9510   -2.1810   -3.0190 os        1 D02     -0.241000
     14 CAN        -3.6100   -1.1740   -2.1020 c2        1 D02      0.388000
     15 CAO        -2.1570   -0.8500   -1.8410 c2        1 D02     -0.195000
     16 CAP         1.4860   -0.6980    0.5460 c2        1 D02      0.046000
     17 CAQ         0.7320    1.5550    0.2020 c2        1 D02      0.046000
     18 CAR         2.3670   -0.2550    1.5190 c2        1 D02      0.181500
     19 CAS         1.6130    1.9980    1.1750 c2        1 D02      0.181500
     20 CAT         0.6680    0.2070   -0.1130 c1        1 D02      0.084000
     21 CAU         2.4310    1.0930    1.8340 c2        1 D02     -0.803000
     22 NAV        -0.2290   -0.2300   -1.0070 n2        1 D02     -0.154000
     23 SAW         3.4890    1.6470    3.1450 s6        1 D02      2.862000
     24 HAA        -5.5320   -2.9430   -2.1300 h1        1 D02      0.095333
     25 HAAA       -5.4970   -3.1790   -3.7140 h1        1 D02      0.095333
     26 HAAB       -5.8650   -1.7340   -3.1270 h1        1 D02      0.095333
     27 HNAB        5.1610    2.4980    1.9130 hn        1 D02      0.256000
     28 HNAA        5.7140    1.4350    2.9480 hn        1 D02      0.256000
     29 HAJ        -1.7840   -0.8130    0.2250 DU        1 D02      0.224000
@<TRIPOS>BOND
     1    1   13 1   
     2    1   24 1   
     3    1   25 1   
     4    1   26 1   
     5    2   23 1   
     6    2   27 1   
     7    2   28 1   
     8    3   14 1   
     9    4   23 1   
    10    5   23 1   
    11    6   16 1   
    12    7   17 1   
    13    8   18 1   
    14    9   19 1   
    15   10   15 1   
    16   10   22 1   
    17   11   12 1   
    18   11   15 1   
    19   12   22 1   
    20   13   14 1   
    21   14   15 1   
    22   16   18 1   
    23   16   20 1   
    24   17   19 1   
    25   17   20 1   
    26   18   21 1   
    27   19   21 1   
    28   21   23 1   
@<TRIPOS>SUBSTRUCTURE
     1 D02         1 TEMP              0 ****  ****    0 ROOT
