@<TRIPOS>MOLECULE
D02
   30    31     1     0     0
SMALL
bcc


@<TRIPOS>ATOM
      1 CAA         0.0660    0.0050   -0.1260 c3        1 D02      0.122700
      2 NAB        10.5110    1.5260    6.1720 n4        1 D02     -0.792500
      3 OAC         1.2270   -0.4080    2.1870 o         1 D02     -0.519000
      4 OAD        11.5520   -0.4110    4.8880 o         1 D02     -0.539300
      5 OAE        10.0930   -0.9070    6.7380 o         1 D02     -0.539300
      6 CAJ         4.1960   -0.1470    2.5390 cc        1 D02     -0.110600
      7 NAK         4.3440    0.4190    0.3350 nd        1 D02     -0.237000
      8 NAL         5.5130    0.4430    0.7630 nc        1 D02     -0.103800
      9 OAM         1.4870    0.1430    0.0230 os        1 D02     -0.394900
     10 CAN         1.9840   -0.0960    1.2640 c         1 D02      0.567600
     11 CAO         3.4350    0.0480    1.3860 cd        1 D02      0.270800
     12 CAP         7.9560   -0.2660    2.3620 ca        1 D02      0.075400
     13 CAQ         6.6220    0.3330    4.3160 ca        1 D02      0.075400
     14 CAR         9.1120   -0.2950    3.1860 ca        1 D02      0.244900
     15 CAS         7.7840    0.2860    5.1070 ca        1 D02      0.244900
     16 CAT         6.6770    0.0500    2.9110 ca        1 D02      0.144800
     17 CAU         9.0650   -0.0560    4.5850 ca        1 D02     -0.570500
     18 NAV         5.5320    0.1050    2.1200 na        1 D02      0.047300
     19 SAW        10.3610   -0.2640    5.5550 sy        1 D02      1.484200
     20 HAA        -0.0970    0.2440   -1.2060 h1        1 D02      0.065033
     21 HAAA       -0.4560    0.7310    0.5430 h1        1 D02      0.065033
     22 HAAB       -0.2400   -1.0400    0.1200 h1        1 D02      0.065033
     23 HNAB       11.4070    1.9290    5.8980 hn        1 D02      0.464133
     24 HNAA        9.7760    2.1310    5.8150 hn        1 D02      0.464133
     25 HAJ         3.9140   -0.4350    3.5560 h4        1 D02      0.235000
     26 FAG         5.4580    0.6710    4.9130 f         1 D02     -0.068400
     27 FAH        10.2860   -0.5920    2.6010 f         1 D02     -0.078400
     28 FAI         7.6840    0.6120    6.4150 f         1 D02     -0.078400
     29 HAB3       10.4580    1.5520    7.1920 hn        1 D02      0.464133
     30 FAF         8.1200   -0.5580    1.0580 f         1 D02     -0.068400
@<TRIPOS>BOND
     1    1    9 1   
     2    1   20 1   
     3    1   21 1   
     4    1   22 1   
     5    2   19 1   
     6    2   23 1   
     7    2   24 1   
     8    2   29 1   
     9    3   10 2   
    10    4   19 2   
    11    5   19 2   
    12    6   11 2   
    13    6   18 1   
    14    6   25 1   
    15    7    8 2   
    16    7   11 1   
    17    8   18 1   
    18    9   10 1   
    19   10   11 1   
    20   12   14 ar  
    21   12   16 ar  
    22   12   30 1   
    23   13   15 ar  
    24   13   16 ar  
    25   13   26 1   
    26   14   17 ar  
    27   14   27 1   
    28   15   17 ar  
    29   15   28 1   
    30   16   18 1   
    31   17   19 1   
@<TRIPOS>SUBSTRUCTURE
     1 D02         1 TEMP              0 ****  ****    0 ROOT
