@<TRIPOS>MOLECULE
D02
   29    30     1     0     0
SMALL
bcc


@<TRIPOS>ATOM
      1 CAA         7.4830    0.3720   -0.0080 c3        1 D02      0.123700
      2 NAB        -4.7670    0.6120    1.3270 n3        1 D02     -1.028700
      3 OAC         5.3370    1.6840   -0.6580 o         1 D02     -0.543000
      4 OAD        -4.9030   -1.1320   -0.3970 o         1 D02     -0.629800
      5 OAE        -4.5870    1.1560   -1.0700 o         1 D02     -0.629800
      6 CAJ         2.5720    0.5680   -0.2010 cc        1 D02     -0.107600
      7 NAK         3.5550   -1.2980    0.6560 nd        1 D02     -0.276000
      8 NAL         2.3160   -1.4950    0.7160 nc        1 D02     -0.125800
      9 OAM         6.1880   -0.1910    0.2220 os        1 D02     -0.402900
     10 CAN         5.1250    0.5760   -0.1550 c         1 D02      0.577600
     11 CAO         3.8180   -0.0170    0.0860 cd        1 D02      0.222800
     12 CAP        -0.5670   -1.3790   -0.2820 ca        1 D02      0.080900
     13 CAQ        -0.4110    0.9310    0.4710 ca        1 D02      0.080900
     14 CAR        -1.9870   -1.2480   -0.3330 ca        1 D02      0.216900
     15 CAS        -1.8220    1.0330    0.3990 ca        1 D02      0.216900
     16 CAT         0.2360   -0.2880    0.1290 ca        1 D02      0.036800
     17 CAU        -2.6330   -0.0460   -0.0030 ca        1 D02     -0.359500
     18 NAV         1.6430   -0.4030    0.2090 na        1 D02      0.085300
     19 SAW        -4.3700    0.1360   -0.1360 sy        1 D02      1.523200
     20 HAA         7.5920    1.3240    0.5650 h1        1 D02      0.055700
     21 HAAA        8.1770   -0.4190    0.3700 h1        1 D02      0.055700
     22 HAAB        7.6290    0.5600   -1.0990 h1        1 D02      0.055700
     23 HNAB       -4.7100    1.5540    1.6320 hn        1 D02      0.459800
     24 HNAA       -5.1020    0.0020    2.0320 hn        1 D02      0.459800
     25 HAJ         2.2970    1.5360   -0.6270 h4        1 D02      0.223000
     26 FAF        -0.0250   -2.5620   -0.6400 f         1 D02     -0.095900
     27 FAG         0.2990    2.0120    0.8670 f         1 D02     -0.095900
     28 FAH        -2.6890   -2.3290   -0.7230 f         1 D02     -0.089900
     29 FAI        -2.3810    2.2150    0.7440 f         1 D02     -0.089900
@<TRIPOS>BOND
     1    1    9 1   
     2    1   20 1   
     3    1   21 1   
     4    1   22 1   
     5    2   19 1   
     6    2   23 1   
     7    2   24 1   
     8    3   10 2   
     9    4   19 2   
    10    5   19 2   
    11    6   11 2   
    12    6   18 1   
    13    6   25 1   
    14    7    8 2   
    15    7   11 1   
    16    8   18 1   
    17    9   10 1   
    18   10   11 1   
    19   12   14 ar  
    20   12   16 ar  
    21   12   26 1   
    22   13   15 ar  
    23   13   16 ar  
    24   13   27 1   
    25   14   17 ar  
    26   14   28 1   
    27   15   17 ar  
    28   15   29 1   
    29   16   18 1   
    30   17   19 1   
@<TRIPOS>SUBSTRUCTURE
     1 D02         1 TEMP              0 ****  ****    0 ROOT
