@<TRIPOS>MOLECULE
D02
   30    31     1     0     0
SMALL
bcc


@<TRIPOS>ATOM
      1 CAA         0.0650   -0.0090   -0.1410 c3        1 D02      0.122700
      2 NAB        10.4770    1.5650    6.1990 nz        1 D02     -0.792500
      3 OAC         1.2220   -0.4250    2.1720 o         1 D02     -0.519000
      4 OAD        11.5370   -0.3580    4.9100 o         1 D02     -0.539300
      5 OAE        10.0760   -0.8730    6.7520 o         1 D02     -0.539300
      6 CAJ         4.1880   -0.1410    2.5370 cc        1 D02     -0.110600
      7 NAK         4.3380    0.4360    0.3350 nd        1 D02     -0.237000
      8 NAL         5.5060    0.4670    0.7670 nc        1 D02     -0.103800
      9 OAM         1.4840    0.1400    0.0130 os        1 D02     -0.394900
     10 CAN         1.9800   -0.1020    1.2540 c         1 D02      0.567600
     11 CAO         3.4290    0.0540    1.3810 cd        1 D02      0.270800
     12 CAP         7.9490   -0.2290    2.3720 ca        1 D02      0.075400
     13 CAQ         6.6040    0.3510    4.3240 ca        1 D02      0.075400
     14 CAR         9.1020   -0.2530    3.1990 ca        1 D02      0.244900
     15 CAS         7.7630    0.3100    5.1180 ca        1 D02      0.244900
     16 CAT         6.6660    0.0750    2.9170 ca        1 D02      0.144800
     17 CAU         9.0480   -0.0200    4.6000 ca        1 D02     -0.570500
     18 NAV         5.5230    0.1240    2.1230 na        1 D02      0.047300
     19 SAW        10.3440   -0.2230    5.5730 sy        1 D02      1.484200
     20 HAA        -0.4650    0.7080    0.5300 h1        1 D02      0.065367
     21 HAAA       -0.2330   -1.0580    0.0970 h1        1 D02      0.065367
     22 HAAB       -0.0960    0.2340   -1.2210 h1        1 D02      0.065367
     23 HNAB       11.3710    1.9760    5.9300 hn        1 D02      0.464133
     24 HNAA        9.7390    2.1660    5.8420 hn        1 D02      0.464133
     25 HAJ         3.9050   -0.4350    3.5510 h4        1 D02      0.235000
     26 FAG         5.4360    0.6780    4.9180 f         1 D02     -0.068400
     27 FAH        10.2810   -0.5380    2.6170 f         1 D02     -0.078400
     28 FAI         7.6570    0.6300    6.4270 f         1 D02     -0.078400
     29 HAB3       10.4190    1.5870    7.2190 hn        1 D02      0.464133
     30 FAF         8.1200   -0.5140    1.0670 f         1 D02     -0.068400
@<TRIPOS>BOND
     1    1    9 1   
     2    1   20 1   
     3    1   21 1   
     4    1   22 1   
     5    2   19 1   
     6    2   23 1   
     7    2   24 1   
     8    2   29 1   
     9    3   10 2   
    10    4   19 2   
    11    5   19 2   
    12    6   11 2   
    13    6   18 1   
    14    6   25 1   
    15    7    8 2   
    16    7   11 1   
    17    8   18 1   
    18    9   10 1   
    19   10   11 1   
    20   12   14 ar  
    21   12   16 ar  
    22   12   30 1   
    23   13   15 ar  
    24   13   16 ar  
    25   13   26 1   
    26   14   17 ar  
    27   14   27 1   
    28   15   17 ar  
    29   15   28 1   
    30   16   18 1   
    31   17   19 1   
@<TRIPOS>SUBSTRUCTURE
     1 D02         1 TEMP              0 ****  ****    0 ROOT
