@<TRIPOS>MOLECULE
D02
   30    31     1     0     0
SMALL
bcc


@<TRIPOS>ATOM
      1 CAA         0.0600   -0.0080   -0.1320 c3        1 D02      0.122700
      2 NAB        10.4760    1.5580    6.2040 n4        1 D02     -0.792500
      3 OAC         1.2240   -0.4420    2.1750 o         1 D02     -0.519000
      4 OAD        11.5440   -0.3480    4.8950 o         1 D02     -0.539300
      5 OAE        10.0880   -0.8880    6.7350 o         1 D02     -0.539300
      6 CAJ         4.1890   -0.1450    2.5370 cc        1 D02     -0.110600
      7 NAK         4.3320    0.4530    0.3410 nd        1 D02     -0.237000
      8 NAL         5.5010    0.4860    0.7710 nc        1 D02     -0.103800
      9 OAM         1.4790    0.1470    0.0210 os        1 D02     -0.394900
     10 CAN         1.9780   -0.1050    1.2590 c         1 D02      0.567600
     11 CAO         3.4270    0.0560    1.3850 cd        1 D02      0.270800
     12 CAP         7.9500   -0.2130    2.3650 ca        1 D02      0.075400
     13 CAQ         6.6050    0.3420    4.3240 ca        1 D02      0.075400
     14 CAR         9.1050   -0.2390    3.1890 ca        1 D02      0.244900
     15 CAS         7.7670    0.2990    5.1160 ca        1 D02      0.244900
     16 CAT         6.6670    0.0790    2.9150 ca        1 D02      0.144800
     17 CAU         9.0520   -0.0190    4.5920 ca        1 D02     -0.570500
     18 NAV         5.5210    0.1300    2.1230 na        1 D02      0.047300
     19 SAW        10.3500   -0.2250    5.5620 sy        1 D02      1.484200
     20 HAA        -0.4720    0.6990    0.5470 h1        1 D02      0.065367
     21 HAAA       -0.2320   -1.0610    0.0950 h1        1 D02      0.065367
     22 HAAB       -0.1040    0.2460   -1.2090 h1        1 D02      0.065367
     23 HNAB       11.3680    1.9760    5.9370 hn        1 D02      0.464133
     24 HNAA        9.7340    2.1590    5.8530 hn        1 D02      0.464133
     25 HAJ         3.9090   -0.4510    3.5490 h4        1 D02      0.235000
     26 FAG         5.4360    0.6570    4.9240 f         1 D02     -0.068400
     27 FAH        10.2840   -0.5120    2.6030 f         1 D02     -0.078400
     28 FAI         7.6600    0.6060    6.4280 f         1 D02     -0.078400
     29 HAB3       10.4200    1.5700    7.2240 hn        1 D02      0.464133
     30 FAF         8.1200   -0.4850    1.0560 f         1 D02     -0.068400
@<TRIPOS>BOND
     1    1    9 1   
     2    1   20 1   
     3    1   21 1   
     4    1   22 1   
     5    2   19 1   
     6    2   23 1   
     7    2   24 1   
     8    2   29 1   
     9    3   10 2   
    10    4   19 2   
    11    5   19 2   
    12    6   11 2   
    13    6   18 1   
    14    6   25 1   
    15    7    8 2   
    16    7   11 1   
    17    8   18 1   
    18    9   10 1   
    19   10   11 1   
    20   12   14 ar  
    21   12   16 ar  
    22   12   30 1   
    23   13   15 ar  
    24   13   16 ar  
    25   13   26 1   
    26   14   17 ar  
    27   14   27 1   
    28   15   17 ar  
    29   15   28 1   
    30   16   18 1   
    31   17   19 1   
@<TRIPOS>SUBSTRUCTURE
     1 D02         1 TEMP              0 ****  ****    0 ROOT
