@<TRIPOS>MOLECULE
D04
   40    39     1     0     0
SMALL
bcc


@<TRIPOS>ATOM
      1 NAA        -0.4300    0.5490    1.2680 nz        1 D04     -0.512000
      2 OAB         1.8260   -0.4810    1.7810 o         1 D04     -0.823500
      3 OAC         0.6570   -1.2490   -0.1750 o         1 D04     -0.823500
      4 CAH         3.7250    4.4970   -3.7370 c2        1 D04     -0.130000
      5 CAI         5.3580    9.3430   -8.1280 c2        1 D04     -0.175000
      6 CAJ         5.8140   10.2930   -7.3140 c2        1 D04     -0.225000
      7 CAK         3.9810    8.8100   -8.0930 c3        1 D04     -0.195000
      8 CAL         5.8550    7.4790   -4.9470 c3        1 D04     -0.157000
      9 CAM         4.6310    5.8720   -6.3160 c1        1 D04      0.274000
     10 NAN         5.1000    5.8900   -2.5740 n2        1 D04     -0.012000
     11 NAO         4.6000    5.1380   -1.7200 n2        1 D04      0.077000
     12 CAP         2.7440    3.3180   -0.2600 ca        1 D04      0.022500
     13 CAQ         2.5750    2.0560   -2.3410 ca        1 D04      0.022500
     14 CAR         2.1110    2.2550    0.4060 ca        1 D04      0.215500
     15 CAS         1.9270    1.0110   -1.6440 ca        1 D04      0.215500
     16 CAT         4.6030    5.5690   -3.8970 c2        1 D04     -0.008000
     17 CAU         3.0370    3.2310   -1.6670 ca        1 D04      0.212000
     18 CAV         1.7150    1.0450   -0.2370 ca        1 D04     -1.037000
     19 CAW         4.9940    6.2650   -5.0910 c2        1 D04     -0.353000
     20 NAX         3.7280    4.2310   -2.3310 na        1 D04     -0.180000
     21 SAY         1.1700   -0.2370    0.5990 s6        1 D04      2.828000
     22 HNAA       -1.2490    0.0440    0.9290 hn        1 D04      0.257333
     23 HNAB       -0.4390    0.5110    2.2880 hn        1 D04      0.257333
     24 HAH         3.1190    3.9370   -4.4500 h4        1 D04      0.224000
     25 HAI         6.0600    6.7920   -7.9420 ha        1 D04      0.009000
     26 HAIA        6.5040    6.3970   -7.6110 ha        1 D04      0.009000
     27 HAJ         5.9350    8.0330   -5.9200 hc        1 D04      0.107000
     28 HAJA        6.8790    7.1780   -4.6150 hc        1 D04      0.107000
     29 HAK         6.0090    8.8990   -8.9010 ha        1 D04      0.124000
     30 HAKA        3.5140    8.8830   -9.1070 hc        1 D04      0.082000
     31 HAL         5.1900   10.7670   -6.5430 ha        1 D04      0.114500
     32 HALA        6.8420   10.6730   -7.3740 ha        1 D04      0.114500
     33 HAM         3.9960    7.7280   -7.7960 hc        1 D04      0.082000
     34 HAMA        3.3370    9.3650   -7.3690 hc        1 D04      0.082000
     35 HAW         5.4150    8.1700   -4.1860 hc        1 D04      0.107000
     36 FAE         2.7560    1.8920   -3.6710 f         1 D04     -0.039500
     37 FAF         1.8330    2.4010    1.7220 f         1 D04     -0.047000
     38 FAG         1.5280   -0.0620   -2.3500 f         1 D04     -0.047000
     39 HAA3       -0.5310    1.5240    0.9990 hn        1 D04      0.257333
     40 FAD         3.0410    4.4180    0.4610 f         1 D04     -0.039500
@<TRIPOS>BOND
     1    1   21 1   
     2    1   22 1   
     3    1   23 1   
     4    1   39 1   
     5    2   21 1   
     6    3   21 1   
     7    4   16 1   
     8    4   20 1   
     9    4   24 1   
    10    5    6 1   
    11    5    7 1   
    12    5   29 1   
    13    6   31 1   
    14    6   32 1   
    15    7   30 1   
    16    7   33 1   
    17    7   34 1   
    18    8   19 1   
    19    8   27 1   
    20    8   28 1   
    21    8   35 1   
    22    9   19 1   
    23   10   11 1   
    24   10   16 1   
    25   11   20 1   
    26   12   14 1   
    27   12   17 1   
    28   12   40 1   
    29   13   15 1   
    30   13   17 1   
    31   13   36 1   
    32   14   18 1   
    33   14   37 1   
    34   15   18 1   
    35   15   38 1   
    36   16   19 1   
    37   17   20 1   
    38   18   21 1   
    39   25   26 1   
@<TRIPOS>SUBSTRUCTURE
     1 D04         1 TEMP              0 ****  ****    0 ROOT
