@<TRIPOS>MOLECULE
D04
   40    39     1     0     0
SMALL
bcc


@<TRIPOS>ATOM
      1 NAA        -0.3670    0.2590    0.8130 n4        1 D04     -0.790500
      2 OAB         1.8940   -0.6920    1.5080 o         1 D04     -0.545800
      3 OAC         1.0450   -1.2270   -0.6760 o         1 D04     -0.545800
      4 CAH         3.4830    5.0630   -3.4110 cc        1 D04     -0.205600
      5 CAI         6.5530    9.0610   -8.6800 c2        1 D04     -0.220500
      6 CAJ         6.5010    9.7670   -7.5580 c2        1 D04     -0.220500
      7 CAK         3.4220    6.6390   -6.9790 c2        1 D04     -0.210100
      8 CAL         5.2830    8.3290   -4.4020 c3        1 D04     -0.052900
      9 CAM         3.9080    6.8600   -5.8000 c1        1 D04     -0.010800
     10 NAN         4.6820    6.5320   -2.1530 nd        1 D04     -0.277000
     11 NAO         4.3470    5.6310   -1.3670 nc        1 D04     -0.095800
     12 CAP         3.5970    2.9510   -0.2660 ca        1 D04      0.056900
     13 CAQ         1.9010    2.8780   -2.0180 ca        1 D04      0.056900
     14 CAR         3.0240    1.7940    0.3100 ca        1 D04      0.249900
     15 CAS         1.3610    1.7250   -1.4260 ca        1 D04      0.249900
     16 CAT         4.1880    6.2630   -3.4890 cd        1 D04      0.402100
     17 CAU         3.0560    3.5290   -1.4600 ca        1 D04      0.166800
     18 CAV         1.9130    1.1130   -0.2630 ca        1 D04     -0.596500
     19 CAW         4.4300    7.1300   -4.6220 cf        1 D04     -0.185100
     20 NAX         3.5950    4.6620   -2.0410 na        1 D04      0.055300
     21 SAY         1.3750   -0.3130    0.2940 sy        1 D04      1.491200
     22 HNAA       -1.0770   -0.2980    0.3360 hn        1 D04      0.461467
     23 HNAB       -0.5010    0.1410    1.8170 hn        1 D04      0.461467
     24 HAH         2.9540    4.4770   -4.1620 h4        1 D04      0.221000
     25 HAI         5.7100    6.6820   -9.3540 ha        1 D04      0.000500
     26 HAIA        5.4790    6.0580   -9.4840 ha        1 D04      0.000500
     27 HAJ         5.4520    8.8780   -5.3630 hc        1 D04      0.062033
     28 HAJA        6.2770    8.0260   -3.9880 hc        1 D04      0.062033
     29 HAK         7.3850    8.3850   -8.9190 ha        1 D04      0.110750
     30 HAKA        5.7710    9.1110   -9.4500 ha        1 D04      0.110750
     31 HAL         5.6740   10.4500   -7.3240 ha        1 D04      0.110750
     32 HALA        7.2890    9.7240   -6.7940 ha        1 D04      0.110750
     33 HAM         3.9660    6.0550   -7.7410 ha        1 D04      0.152500
     34 HAMA        2.4450    7.0350   -7.2980 ha        1 D04      0.152500
     35 HAW         4.7920    9.0220   -3.6750 hc        1 D04      0.062033
     36 FAE         1.2840    3.3720   -3.1160 f         1 D04     -0.073900
     37 FAF         3.5850    1.3120    1.4350 f         1 D04     -0.081900
     38 FAG         0.2420    1.1900   -1.9660 f         1 D04     -0.081900
     39 HAA3       -0.5420    1.2350    0.5880 hn        1 D04      0.461467
     40 FAD         4.6790    3.4710    0.3500 f         1 D04     -0.073900
@<TRIPOS>BOND
     1    1   21 1   
     2    1   22 1   
     3    1   23 1   
     4    1   39 1   
     5    2   21 2   
     6    3   21 2   
     7    4   16 2   
     8    4   20 1   
     9    4   24 1   
    10    5    6 2   
    11    5   29 1   
    12    5   30 1   
    13    6   31 1   
    14    6   32 1   
    15    7    9 2   
    16    7   33 1   
    17    7   34 1   
    18    8   19 1   
    19    8   27 1   
    20    8   28 1   
    21    8   35 1   
    22    9   19 2   
    23   10   11 2   
    24   10   16 1   
    25   11   20 1   
    26   12   14 ar  
    27   12   17 ar  
    28   12   40 1   
    29   13   15 ar  
    30   13   17 ar  
    31   13   36 1   
    32   14   18 ar  
    33   14   37 1   
    34   15   18 ar  
    35   15   38 1   
    36   16   19 1   
    37   17   20 1   
    38   18   21 1   
    39   25   26 1   
@<TRIPOS>SUBSTRUCTURE
     1 D04         1 TEMP              0 ****  ****    0 ROOT
