@<TRIPOS>MOLECULE
D04
   39    41     1     0     0
SMALL
bcc


@<TRIPOS>ATOM
      1 NAA         5.2680    0.5320   -1.4230 n3        1 D04     -1.028700
      2 OAB         5.4580   -0.3920    0.8450 o         1 D04     -0.632800
      3 OAC         4.8620    1.9220    0.5710 o         1 D04     -0.632800
      4 CAH        -2.1200    0.2030   -0.2360 cc        1 D04     -0.195600
      5 CAI        -7.0420    1.3160    0.6050 c3        1 D04     -0.079400
      6 CAJ        -6.9180   -0.1810    0.7980 c3        1 D04     -0.076900
      7 CAK        -6.2650    1.7780   -0.6110 c3        1 D04     -0.076900
      8 CAL        -5.4680   -0.6140    0.8750 c3        1 D04     -0.074400
      9 CAM        -4.8140    1.3530   -0.5330 c3        1 D04     -0.074400
     10 NAN        -2.8550   -1.9410   -0.2670 nd        1 D04     -0.334000
     11 NAO        -1.6010   -2.0100   -0.2040 nc        1 D04     -0.123800
     12 CAP         1.1870   -1.1930    0.7060 ca        1 D04      0.071900
     13 CAQ         0.8530    0.6260   -0.8760 ca        1 D04      0.071900
     14 CAR         2.5790   -0.8830    0.7410 ca        1 D04      0.217400
     15 CAS         2.2370    0.9170   -0.8080 ca        1 D04      0.217400
     16 CAT        -3.2820   -0.5760   -0.2880 cd        1 D04      0.288600
     17 CAU         0.3060   -0.4430   -0.1130 ca        1 D04      0.056800
     18 CAV         3.1230    0.1760   -0.0030 ca        1 D04     -0.371500
     19 CAW        -4.7010   -0.1590   -0.3630 c3        1 D04     -0.082000
     20 NAX        -1.0700   -0.7450   -0.1790 na        1 D04      0.077300
     21 SAY         4.8140    0.6040    0.0990 sy        1 D04      1.524200
     22 HNAA        5.1340    1.2700   -2.0710 hn        1 D04      0.458800
     23 HNAB        5.7150   -0.2540   -1.8270 hn        1 D04      0.458800
     24 HAH        -1.9470    1.2770   -0.2420 h4        1 D04      0.205000
     25 HAI        -8.1210    1.5930    0.4880 hc        1 D04      0.041700
     26 HAIA       -6.6560    1.8440    1.5170 hc        1 D04      0.041700
     27 HAJ        -7.4450   -0.4830    1.7410 hc        1 D04      0.043200
     28 HAJA       -7.4210   -0.7110   -0.0530 hc        1 D04      0.043200
     29 HAK        -6.7310    1.3490   -1.5380 hc        1 D04      0.043200
     30 HAKA       -6.3210    2.8950   -0.6920 hc        1 D04      0.043200
     31 HAL        -4.9920   -0.1770    1.7910 hc        1 D04      0.046950
     32 HALA       -5.4130   -1.7300    0.9610 hc        1 D04      0.046950
     33 HAM        -4.2770    1.6670   -1.4660 hc        1 D04      0.046950
     34 HAMA       -4.3190    1.8640    0.3340 hc        1 D04      0.046950
     35 HAW        -5.1660   -0.6530   -1.2670 hc        1 D04      0.073700
     36 FAD         0.7460   -2.2110    1.4750 f         1 D04     -0.098400
     37 FAE         0.0720    1.3850   -1.6790 f         1 D04     -0.098400
     38 FAF         3.3570   -1.6450    1.5340 f         1 D04     -0.092900
     39 FAG         2.6980    1.9410   -1.5630 f         1 D04     -0.092900
@<TRIPOS>BOND
     1    1   21 1   
     2    1   22 1   
     3    1   23 1   
     4    2   21 2   
     5    3   21 2   
     6    4   16 2   
     7    4   20 1   
     8    4   24 1   
     9    5    6 1   
    10    5    7 1   
    11    5   25 1   
    12    5   26 1   
    13    6    8 1   
    14    6   27 1   
    15    6   28 1   
    16    7    9 1   
    17    7   29 1   
    18    7   30 1   
    19    8   19 1   
    20    8   31 1   
    21    8   32 1   
    22    9   19 1   
    23    9   33 1   
    24    9   34 1   
    25   10   11 2   
    26   10   16 1   
    27   11   20 1   
    28   12   14 ar  
    29   12   17 ar  
    30   12   36 1   
    31   13   15 ar  
    32   13   17 ar  
    33   13   37 1   
    34   14   18 ar  
    35   14   38 1   
    36   15   18 ar  
    37   15   39 1   
    38   16   19 1   
    39   17   20 1   
    40   18   21 1   
    41   19   35 1   
@<TRIPOS>SUBSTRUCTURE
     1 D04         1 TEMP              0 ****  ****    0 ROOT
