@<TRIPOS>MOLECULE
D04
   39    38     1     0     0
SMALL
bcc


@<TRIPOS>ATOM
      1 NAA        -4.6710   -3.6380    4.2240 n3        1 D04     -0.955000
      2 OAB        -2.4560   -4.6300    4.9890 o         1 D04     -0.912000
      3 OAC        -3.2580   -5.4140    3.0730 o         1 D04     -0.912000
      4 FAD         0.4360   -0.5730    3.3000 f         1 D04     -0.063500
      5 FAE        -1.8070   -2.1170   -0.5550 f         1 D04     -0.063500
      6 FAF        -1.1660   -2.1340    4.8570 f         1 D04     -0.058000
      7 FAG        -3.0680   -3.7020    0.6600 f         1 D04     -0.058000
      8 CAH         0.7040    0.0040   -0.4520 c1        1 D04     -0.120000
      9 CAI         2.7470    2.6870   -3.9170 c3        1 D04     -0.158000
     10 CAJ         3.4750    2.8590   -2.5980 c3        1 D04     -0.155500
     11 CAK         1.2590    2.9560   -3.7980 c3        1 D04     -0.155500
     12 CAL         2.8330    2.0700   -1.4770 c3        1 D04     -0.153000
     13 CAM         0.6170    2.1670   -2.6780 c3        1 D04     -0.153000
     14 NAN         0.1110    1.7100    0.7890 n2        1 D04     -0.116500
     15 NAO        -0.3320    0.5710    1.3800 n2        1 D04      0.046000
     16 CAP        -0.5180   -1.3250    2.7370 c2        1 D04      0.037000
     17 CAQ        -1.6520   -2.1180    0.7750 c2        1 D04      0.037000
     18 CAR        -1.3110   -2.1440    3.5260 c2        1 D04      0.182500
     19 CAS        -2.4460   -2.9360    1.5650 c2        1 D04      0.182500
     20 CAT         0.7490    1.3700   -0.3360 c1        1 D04     -0.120000
     21 CAU        -0.6880   -1.3130    1.3620 c1        1 D04      0.102000
     22 CAV        -2.2750   -2.9490    2.9400 c2        1 D04     -0.816000
     23 CAW         1.3450    2.3390   -1.3580 c2        1 D04     -0.027000
     24 NAX         0.0400   -0.4780    0.6030 n2        1 D04     -0.116500
     25 SAY        -3.1770   -4.1930    3.8260 s6        1 D04      2.863000
     26 HNAA       -4.7570   -2.8960    4.7500 hn        1 D04      0.254000
     27 HNAB       -5.4160   -4.0850    3.9380 hn        1 D04      0.254000
     28 HAH         1.0900   -0.5240   -1.1770 DU        1 D04      0.205000
     29 HAI         2.8790    1.7710   -4.2340 hc        1 D04      0.081000
     30 HAIA        3.1290    3.3070   -4.5710 hc        1 D04      0.081000
     31 HAJ         3.4750    3.8070   -2.3570 hc        1 D04      0.082500
     32 HAJA        4.4000    2.5590   -2.7060 hc        1 D04      0.082500
     33 HAK         1.1220    3.9100   -3.6320 hc        1 D04      0.082500
     34 HAKA        0.8260    2.7160   -4.6420 hc        1 D04      0.082500
     35 HAL         3.2670    2.3100   -0.6340 hc        1 D04      0.086250
     36 HALA        2.9700    1.1160   -1.6430 hc        1 D04      0.086250
     37 HAM         0.6170    1.2190   -2.9180 hc        1 D04      0.086250
     38 HAMA       -0.3080    2.4670   -2.5700 hc        1 D04      0.086250
     39 HAW         1.2130    3.2530   -1.0410 ha        1 D04      0.113000
@<TRIPOS>BOND
     1    1   25 1   
     2    1   26 1   
     3    1   27 1   
     4    2   25 1   
     5    3   25 1   
     6    4   16 1   
     7    5   17 1   
     8    6   18 1   
     9    7   19 1   
    10    8   20 1   
    11    8   24 1   
    12    9   10 1   
    13    9   11 1   
    14    9   29 1   
    15    9   30 1   
    16   10   12 1   
    17   10   31 1   
    18   10   32 1   
    19   11   13 1   
    20   11   33 1   
    21   11   34 1   
    22   12   23 1   
    23   12   35 1   
    24   12   36 1   
    25   13   23 1   
    26   13   37 1   
    27   13   38 1   
    28   14   15 1   
    29   14   20 1   
    30   15   24 1   
    31   16   18 1   
    32   16   21 1   
    33   17   19 1   
    34   17   21 1   
    35   18   22 1   
    36   19   22 1   
    37   22   25 1   
    38   23   39 1   
@<TRIPOS>SUBSTRUCTURE
     1 D04         1 TEMP              0 ****  ****    0 ROOT
