@<TRIPOS>MOLECULE
D05
   45    48     1     0     0
SMALL
bcc


@<TRIPOS>ATOM
      1 N8          1.7140    0.3140    0.2180 ns        1 D05     -0.486400
      2 C7          2.7940   -0.4410    0.6680 cc        1 D05      0.514900
      3 N6          3.0000   -0.8210    1.9330 nd        1 D05     -0.618100
      4 C5          2.0220   -0.3980    2.8240 cd        1 D05      0.202100
      5 C4          0.8720    0.3780    2.4620 cc        1 D05     -0.374900
      6 C9          0.6900    0.7770    1.0890 c         1 D05      0.749100
      7 N1          1.9210   -0.6100    4.2100 na        1 D05      0.156300
      8 N2          0.7970   -0.0390    4.7140 nd        1 D05     -0.484800
      9 C3          0.1400    0.5740    3.6950 cc        1 D05      0.405600
     10 O9         -0.2340    1.4550    0.6090 o         1 D05     -0.622500
     11 C11         2.8300   -1.3740    4.9890 ca        1 D05      0.031800
     12 C16         2.4200   -2.5820    5.5990 ca        1 D05      0.048900
     13 C12         4.1620   -0.9390    5.1770 ca        1 D05      0.048900
     14 C15         3.3160   -3.3330    6.3630 ca        1 D05     -0.125000
     15 C13         5.0590   -1.6990    5.9310 ca        1 D05     -0.125000
     16 C14         4.6310   -2.8900    6.5210 ca        1 D05      0.038400
     17 Cl14        5.7200   -3.8070    7.4420 cl        1 D05     -0.068400
     18 C1         -1.1390    1.3150    3.8130 c3        1 D05     -0.119700
     19 C2         -1.1230    2.3380    4.9210 c3        1 D05     -0.089100
     20 C20         3.8000   -0.8950   -0.3850 c3        1 D05     -0.075400
     21 Cl16        0.8360   -3.1560    5.4170 cl        1 D05     -0.046900
     22 Cl12        4.7090    0.5150    4.4980 cl        1 D05     -0.046900
     23 C21         4.1880    0.2100   -1.3040 ca        1 D05     -0.105300
     24 C22         3.5280    0.3590   -2.5290 ca        1 D05     -0.141000
     25 C23         3.9080    1.3850   -3.4010 ca        1 D05      0.117100
     26 C24         4.9530    2.2640   -3.0370 ca        1 D05      0.052100
     27 C25         5.6080    2.1080   -1.8130 ca        1 D05     -0.167000
     28 C26         5.2230    1.0810   -0.9530 ca        1 D05     -0.111000
     29 O23         3.2310    1.4830   -4.5910 oh        1 D05     -0.490100
     30 O24         5.2660    3.2460   -3.9520 oh        1 D05     -0.512100
     31 HN8         1.6740    0.5790   -0.7440 hn        1 D05      0.344500
     32 H15         2.9840   -4.2720    6.8360 ha        1 D05      0.169500
     33 H13         6.0970   -1.3530    6.0640 ha        1 D05      0.169500
     34 H11        -1.9680    0.5770    3.9900 hc        1 D05      0.071200
     35 H12        -1.3370    1.8180    2.8250 hc        1 D05      0.071200
     36 H21        -0.2930    3.0700    4.7720 hc        1 D05      0.040367
     37 H22A       -2.0900    2.8970    4.9300 hc        1 D05      0.040367
     38 H23A       -0.9860    1.8490    5.9160 hc        1 D05      0.040367
     39 H201        3.3250   -1.7380   -0.9590 hc        1 D05      0.089200
     40 H202        4.7160   -1.3050    0.1220 hc        1 D05      0.089200
     41 H22         2.7200   -0.3250   -2.8300 ha        1 D05      0.155000
     42 H25         6.4210    2.7920   -1.5320 ha        1 D05      0.141000
     43 H26         5.7410    0.9580    0.0110 ha        1 D05      0.146000
     44 H23         3.5830    2.2460   -5.0770 ho        1 D05      0.441000
     45 H24         5.9660    3.7960   -3.5720 ho        1 D05      0.433000
@<TRIPOS>BOND
     1    1    2 1   
     2    1    6 1   
     3    1   31 1   
     4    2    3 2   
     5    2   20 1   
     6    3    4 1   
     7    4    5 2   
     8    4    7 1   
     9    5    6 1   
    10    5    9 1   
    11    6   10 2   
    12    7    8 1   
    13    7   11 1   
    14    8    9 2   
    15    9   18 1   
    16   11   12 ar  
    17   11   13 ar  
    18   12   14 ar  
    19   12   21 1   
    20   13   15 ar  
    21   13   22 1   
    22   14   16 ar  
    23   14   32 1   
    24   15   16 ar  
    25   15   33 1   
    26   16   17 1   
    27   18   19 1   
    28   18   34 1   
    29   18   35 1   
    30   19   36 1   
    31   19   37 1   
    32   19   38 1   
    33   20   23 1   
    34   20   39 1   
    35   20   40 1   
    36   23   24 ar  
    37   23   28 ar  
    38   24   25 ar  
    39   24   41 1   
    40   25   26 ar  
    41   25   29 1   
    42   26   27 ar  
    43   26   30 1   
    44   27   28 ar  
    45   27   42 1   
    46   28   43 1   
    47   29   44 1   
    48   30   45 1   
@<TRIPOS>SUBSTRUCTURE
     1 D05         1 TEMP              0 ****  ****    0 ROOT
