@<TRIPOS>MOLECULE
D05
   45    48     1     0     0
SMALL
bcc


@<TRIPOS>ATOM
      1 N8          0.9830   -2.3030   -0.7480 n         1 D05     -0.486400
      2 C7          0.0130   -1.8860    0.1610 cc        1 D05      0.513900
      3 N6          0.0700   -0.7730    0.8980 nd        1 D05     -0.619100
      4 C5          1.2140   -0.0120    0.6980 cd        1 D05      0.201100
      5 C4          2.2660   -0.3470   -0.2180 cc        1 D05     -0.373900
      6 C9          2.1660   -1.5550   -0.9990 c         1 D05      0.750100
      7 N1          1.6020    1.1980    1.3000 na        1 D05      0.157300
      8 N2          2.7940    1.6300    0.8140 nd        1 D05     -0.483800
      9 C3          3.2320    0.7230   -0.1000 cc        1 D05      0.405600
     10 O9          2.9770   -1.9930   -1.8320 o         1 D05     -0.622500
     11 C11         0.8340    1.9230    2.2500 ca        1 D05      0.031800
     12 C16         0.3130    3.1990    1.9350 ca        1 D05      0.048400
     13 C12         0.5800    1.3850    3.5330 ca        1 D05      0.048400
     14 C15        -0.4430    3.9090    2.8700 ca        1 D05     -0.125000
     15 C13        -0.1870    2.0930    4.4610 ca        1 D05     -0.125000
     16 C14        -0.6930    3.3500    4.1250 ca        1 D05      0.038400
     17 CL14       -1.6190    4.2100    5.2570 cl        1 D05     -0.067400
     18 C1          4.4940    0.8150   -0.8720 c3        1 D05     -0.119700
     19 C2          5.6970    1.0710    0.0020 c3        1 D05     -0.089100
     20 C20        -1.1920   -2.8030    0.3440 c3        1 D05     -0.074400
     21 CL16        0.5850    3.9000    0.4170 cl        1 D05     -0.046400
     22 CL12        1.2010   -0.1260    3.9850 cl        1 D05     -0.046400
     23 C21        -1.7600   -3.2460   -0.9580 ca        1 D05     -0.111300
     24 C22        -2.6860   -2.4340   -1.6230 ca        1 D05     -0.152000
     25 C23        -3.2330   -2.8610   -2.8340 ca        1 D05      0.044100
     26 C24        -2.8600   -4.1060   -3.3890 ca        1 D05      0.124100
     27 C25        -1.9350   -4.9130   -2.7150 ca        1 D05     -0.131000
     28 C26        -1.3920   -4.4780   -1.5090 ca        1 D05     -0.128000
     29 O23        -4.1540   -2.1290   -3.5540 oh        1 D05     -0.513100
     30 O24        -3.3700   -4.5770   -4.5720 oh        1 D05     -0.488100
     31 HN8         0.8230   -3.1300   -1.2820 hn        1 D05      0.343500
     32 H15        -0.8410    4.9050    2.6140 ha        1 D05      0.170000
     33 H13        -0.3840    1.6600    5.4550 ha        1 D05      0.170000
     34 H11         4.3940    1.6400   -1.6300 hc        1 D05      0.071200
     35 H12         4.6240   -0.1500   -1.4360 hc        1 D05      0.071200
     36 H21         5.6110    2.0540    0.5240 hc        1 D05      0.040700
     37 H22A        5.8040    0.2700    0.7720 hc        1 D05      0.040700
     38 H23A        6.6210    1.0830   -0.6260 hc        1 D05      0.040700
     39 H201       -0.8500   -3.6890    0.9470 hc        1 D05      0.087200
     40 H202       -1.9810   -2.2730    0.9430 hc        1 D05      0.087200
     41 H22        -2.9820   -1.4640   -1.1950 ha        1 D05      0.145000
     42 H25        -1.6490   -5.8820   -3.1510 ha        1 D05      0.160000
     43 H26        -0.6720   -5.1230   -0.9810 ha        1 D05      0.138000
     44 H23        -4.2830   -1.2840   -3.1000 ho        1 D05      0.433000
     45 H24        -3.9760   -3.9080   -4.9280 ho        1 D05      0.441000
@<TRIPOS>BOND
     1    1    2 1   
     2    1    6 1   
     3    1   31 1   
     4    2    3 2   
     5    2   20 1   
     6    3    4 1   
     7    4    5 2   
     8    4    7 1   
     9    5    6 1   
    10    5    9 1   
    11    6   10 2   
    12    7    8 1   
    13    7   11 1   
    14    8    9 2   
    15    9   18 1   
    16   11   12 ar  
    17   11   13 ar  
    18   12   14 ar  
    19   12   21 1   
    20   13   15 ar  
    21   13   22 1   
    22   14   16 ar  
    23   14   32 1   
    24   15   16 ar  
    25   15   33 1   
    26   16   17 1   
    27   18   19 1   
    28   18   34 1   
    29   18   35 1   
    30   19   36 1   
    31   19   37 1   
    32   19   38 1   
    33   20   23 1   
    34   20   39 1   
    35   20   40 1   
    36   23   24 ar  
    37   23   28 ar  
    38   24   25 ar  
    39   24   41 1   
    40   25   26 ar  
    41   25   29 1   
    42   26   27 ar  
    43   26   30 1   
    44   27   28 ar  
    45   27   42 1   
    46   28   43 1   
    47   29   44 1   
    48   30   45 1   
@<TRIPOS>SUBSTRUCTURE
     1 D05         1 TEMP              0 ****  ****    0 ROOT
