@<TRIPOS>MOLECULE
D05
   45    48     1     0     0
SMALL
bcc


@<TRIPOS>ATOM
      1 N8          1.7120    0.2740    0.2150 n         1 D05     -0.486400
      2 C7          2.7840   -0.4790    0.6880 cc        1 D05      0.514900
      3 N6          2.9870   -0.8210    1.9640 nd        1 D05     -0.618100
      4 C5          2.0160   -0.3580    2.8420 cd        1 D05      0.202100
      5 C4          0.8740    0.4200    2.4570 cc        1 D05     -0.374900
      6 C9          0.6960    0.7770    1.0730 c         1 D05      0.749100
      7 N1          1.9150   -0.5240    4.2340 na        1 D05      0.156300
      8 N2          0.7990    0.0770    4.7220 nd        1 D05     -0.484800
      9 C3          0.1470    0.6640    3.6840 cc        1 D05      0.405600
     10 O9         -0.2210    1.4500    0.5720 o         1 D05     -0.622500
     11 C11         2.8160   -1.2740    5.0370 ca        1 D05      0.031800
     12 C16         2.3920   -2.4560    5.6860 ca        1 D05      0.048900
     13 C12         4.1540   -0.8490    5.2080 ca        1 D05      0.048900
     14 C15         3.2810   -3.1930    6.4720 ca        1 D05     -0.125000
     15 C13         5.0420   -1.5950    5.9850 ca        1 D05     -0.125000
     16 C14         4.6010   -2.7610    6.6140 ca        1 D05      0.038400
     17 CL14        5.6810   -3.6620    7.5620 cl        1 D05     -0.068400
     18 C1         -1.1220    1.4240    3.7800 c3        1 D05     -0.119700
     19 C2         -1.0930    2.4820    4.8550 c3        1 D05     -0.089100
     20 C20         3.7820   -0.9790   -0.3510 c3        1 D05     -0.075400
     21 CL16        0.8010   -3.0160    5.5250 cl        1 D05     -0.046900
     22 CL12        4.7160    0.5760    4.4830 cl        1 D05     -0.046900
     23 C21         4.1830    0.0920   -1.3040 ca        1 D05     -0.105300
     24 C22         3.5240    0.2120   -2.5330 ca        1 D05     -0.141000
     25 C23         3.9160    1.2060   -3.4370 ca        1 D05      0.117100
     26 C24         4.9720    2.0820   -3.1010 ca        1 D05      0.052100
     27 C25         5.6270    1.9550   -1.8730 ca        1 D05     -0.167000
     28 C26         5.2300    0.9610   -0.9810 ca        1 D05     -0.111000
     29 O23         3.2380    1.2750   -4.6290 oh        1 D05     -0.490100
     30 O24         5.2970    3.0300   -4.0470 oh        1 D05     -0.512100
     31 HN8         1.6740    0.5080   -0.7540 hn        1 D05      0.344500
     32 H15         2.9380   -4.1130    6.9750 ha        1 D05      0.169500
     33 H13         6.0850   -1.2580    6.1050 ha        1 D05      0.169500
     34 H11        -1.9600    0.7020    3.9820 hc        1 D05      0.071200
     35 H12        -1.3170    1.8970    2.7770 hc        1 D05      0.071200
     36 H21        -0.2550    3.1990    4.6810 hc        1 D05      0.040367
     37 H22A       -2.0530    3.0520    4.8470 hc        1 D05      0.040367
     38 H23A       -0.9600    2.0230    5.8640 hc        1 D05      0.040367
     39 H201        3.2960   -1.8330   -0.8980 hc        1 D05      0.089200
     40 H202        4.6940   -1.3850    0.1680 hc        1 D05      0.089200
     41 H22         2.7070   -0.4700   -2.8120 ha        1 D05      0.155000
     42 H25         6.4490    2.6370   -1.6140 ha        1 D05      0.141000
     43 H26         5.7480    0.8610   -0.0150 ha        1 D05      0.146000
     44 H23         3.6000    2.0180   -5.1380 ho        1 D05      0.441000
     45 H24         6.0050    3.5820   -3.6840 ho        1 D05      0.433000
@<TRIPOS>BOND
     1    1    2 1   
     2    1    6 1   
     3    1   31 1   
     4    2    3 2   
     5    2   20 1   
     6    3    4 1   
     7    4    5 2   
     8    4    7 1   
     9    5    6 1   
    10    5    9 1   
    11    6   10 2   
    12    7    8 1   
    13    7   11 1   
    14    8    9 2   
    15    9   18 1   
    16   11   12 ar  
    17   11   13 ar  
    18   12   14 ar  
    19   12   21 1   
    20   13   15 ar  
    21   13   22 1   
    22   14   16 ar  
    23   14   32 1   
    24   15   16 ar  
    25   15   33 1   
    26   16   17 1   
    27   18   19 1   
    28   18   34 1   
    29   18   35 1   
    30   19   36 1   
    31   19   37 1   
    32   19   38 1   
    33   20   23 1   
    34   20   39 1   
    35   20   40 1   
    36   23   24 ar  
    37   23   28 ar  
    38   24   25 ar  
    39   24   41 1   
    40   25   26 ar  
    41   25   29 1   
    42   26   27 ar  
    43   26   30 1   
    44   27   28 ar  
    45   27   42 1   
    46   28   43 1   
    47   29   44 1   
    48   30   45 1   
@<TRIPOS>SUBSTRUCTURE
     1 D05         1 TEMP              0 ****  ****    0 ROOT
