@<TRIPOS>MOLECULE
D05
   45    37     1     0     0
SMALL
bcc


@<TRIPOS>ATOM
      1 N8         -1.5250   -0.0550   -1.5490 n2        1 D05     -0.326000
      2 C7         -0.1620    0.0780   -1.5830 c1        1 D05      0.145000
      3 N6          0.5420    0.2060   -0.4180 n1        1 D05     -0.192000
      4 C5         -0.1140    0.2030    0.7840 c1        1 D05     -0.101000
      5 C4         -1.4580    0.0720    0.8180 c1        1 D05     -0.101000
      6 C9         -2.1730   -0.0590   -0.3680 c1        1 D05      0.386000
      7 N1          0.3360    0.3130    2.0810 n2        1 D05     -0.083000
      8 N2         -0.7530    0.2480    2.9160 n2        1 D05     -0.052000
      9 C3         -1.8580    0.1000    2.1520 c1        1 D05     -0.017000
     10 O9         -3.3800   -0.2160   -0.3370 o         1 D05     -0.347000
     11 C11         0.8170    1.0100    3.1360 c1        1 D05      0.077000
     12 C16         1.4200    0.3400    4.1910 c1        1 D05     -0.034500
     13 C12         0.5890    2.3800    3.2230 c1        1 D05     -0.031000
     14 C15         1.7970    1.0360    5.3330 c1        1 D05     -0.124500
     15 C13         0.9660    3.0760    4.3640 c1        1 D05     -0.124500
     16 C14         1.5700    2.4050    5.4190 c1        1 D05     -0.034500
     17 CL14        2.0300    3.2770    6.8590 cl        1 D05      0.020000
     18 C1         -2.9400   -0.6910    2.9040 c2        1 D05     -0.104000
     19 C2         -4.0410    0.2650    3.3690 c3        1 D05     -0.207000
     20 C20        -0.3420   -1.1420   -2.5090 c3        1 D05     -0.086000
     21 CL16        1.7230   -1.3760    4.0760 cl        1 D05      0.020000
     22 CL12       -0.1350    3.2300    1.8810 cl        1 D05      0.034000
     23 C21         0.7990   -1.1790   -3.5340 c2        1 D05     -0.098000
     24 C22         0.8880   -0.1880   -4.5050 c2        1 D05     -0.141000
     25 C23         1.8100   -0.3090   -5.5420 c1        1 D05      0.072000
     26 C24         2.6410   -1.4210   -5.6060 c1        1 D05      0.007000
     27 C25         2.5530   -2.4120   -4.6350 c1        1 D05     -0.167000
     28 C26         1.6330   -2.2920   -3.5990 c1        1 D05     -0.111000
     29 O23         1.8660    0.6730   -6.5530 oh        1 D05     -0.244000
     30 O24         3.5270   -1.5770   -6.6960 oh        1 D05     -0.266000
     31 HN8        -1.9960   -0.1410   -2.3300 hn        1 D05      0.258000
     32 H15         2.2240    0.5620    6.0780 ha        1 D05      0.169000
     33 H13         0.8060    4.0420    4.4250 ha        1 D05      0.169000
     34 H11        -2.5390   -1.1340    3.6850 ha        1 D05      0.111000
     35 H12        -3.3250   -1.3690    2.3050 ha        1 D05      0.111000
     36 H21        -4.2130    0.9310    2.6690 hc        1 D05      0.079333
     37 H22A       -3.7540    0.7210    4.1910 hc        1 D05      0.079333
     38 H23A       -4.8640   -0.2440    3.5460 hc        1 D05      0.079333
     39 H201       -1.2020   -1.0720   -2.9780 hc        1 D05      0.128000
     40 H202       -0.3280   -1.9630   -1.9740 hc        1 D05      0.128000
     41 H22         0.3020    0.5960   -4.4600 ha        1 D05      0.155000
     42 H25         3.1410   -3.1980   -4.6810 ha        1 D05      0.142000
     43 H26         1.5710   -2.9910   -2.9150 ha        1 D05      0.146000
     44 H23         2.4180    1.3240   -6.3040 ho        1 D05      0.240000
     45 H24         3.1340   -2.0610   -7.3310 ho        1 D05      0.233000
@<TRIPOS>BOND
     1    1    6 1   
     2    1   31 1   
     3    2    3 1   
     4    2   20 1   
     5    4    5 1   
     6    6   10 1   
     7    7    8 1   
     8    7   11 1   
     9    8    9 1   
    10   11   13 1   
    11   12   14 1   
    12   12   21 1   
    13   13   22 1   
    14   14   32 1   
    15   15   16 1   
    16   15   33 1   
    17   16   17 1   
    18   18   19 1   
    19   18   34 1   
    20   18   35 1   
    21   19   36 1   
    22   19   37 1   
    23   19   38 1   
    24   20   23 1   
    25   20   39 1   
    26   20   40 1   
    27   23   24 1   
    28   23   28 1   
    29   24   25 1   
    30   24   41 1   
    31   25   29 1   
    32   26   27 1   
    33   26   30 1   
    34   27   42 1   
    35   28   43 1   
    36   29   44 1   
    37   30   45 1   
@<TRIPOS>SUBSTRUCTURE
     1 D05         1 TEMP              0 ****  ****    0 ROOT
