@<TRIPOS>MOLECULE
D09
   38    40     1     0     0
SMALL
bcc


@<TRIPOS>ATOM
      1 C'1         2.7640    0.3060   -0.4520 ca        1 D09     -0.090800
      2 C'2         3.6170   -0.3280    0.4810 ca        1 D09      0.137100
      3 C'3         4.8500   -0.8570    0.0770 ca        1 D09     -0.206000
      4 C'4         5.2390   -0.7610   -1.2580 ca        1 D09     -0.092000
      5 C'5         4.4060   -0.1470   -2.1900 ca        1 D09     -0.164000
      6 C'6         3.1790    0.3770   -1.7870 ca        1 D09     -0.091000
      7 N1'        -4.5690    0.6840    0.0660 nb        1 D09     -0.764000
      8 C10         1.5080    1.9620    0.9470 c3        1 D09     -0.067900
      9 C11         1.4700    0.8840   -0.0700 ce        1 D09     -0.016400
     10 C13         3.9930   -1.0460    2.7240 c3        1 D09      0.111700
     11 O13         3.1500   -0.3960    1.7800 os        1 D09     -0.325900
     12 C2'        -4.7600   -0.6990    0.1240 ca        1 D09      0.918900
     13 N2'        -6.0570   -1.1380    0.3990 nh        1 D09     -0.931500
     14 N3'        -3.7860   -1.6820   -0.0010 nb        1 D09     -0.835000
     15 C4'        -2.4890   -1.2830   -0.1890 ca        1 D09      0.762200
     16 N4'        -1.5010   -2.2350   -0.3720 nh        1 D09     -0.942500
     17 C5'        -2.1730    0.1040   -0.2520 ca        1 D09     -0.435400
     18 C6'        -0.9900    0.9270   -0.4180 cd        1 D09     -0.032200
     19 C7'        -1.4190    2.2350   -0.3580 cc        1 D09     -0.043900
     20 C8'        -3.2760    1.0120   -0.1060 ca        1 D09      0.646600
     21 O8'        -2.8130    2.3300   -0.1720 os        1 D09     -0.305400
     22 C9'         0.3420    0.4390   -0.6570 cf        1 D09     -0.130000
     23 H'3         5.5160   -1.3480    0.7990 ha        1 D09      0.138000
     24 H'4         6.2090   -1.1740   -1.5720 ha        1 D09      0.134000
     25 H'5         4.7130   -0.0750   -3.2440 ha        1 D09      0.136000
     26 H'6         2.5190    0.8600   -2.5250 ha        1 D09      0.140000
     27 H10         1.9340    2.8930    0.4960 hc        1 D09      0.052700
     28 H10A        0.4830    2.1910    1.3330 hc        1 D09      0.052700
     29 H10B        2.1540    1.6600    1.8090 hc        1 D09      0.052700
     30 H13         4.9680   -0.5080    2.8210 h1        1 D09      0.045700
     31 H13A        3.4100   -0.9800    3.6780 h1        1 D09      0.045700
     32 H13B        4.1600   -2.1130    2.4370 h1        1 D09      0.045700
     33 HN2'       -6.7920   -0.4830    0.2700 hn        1 D09      0.432300
     34 HN2A       -6.2630   -2.0900    0.2060 hn        1 D09      0.432300
     35 HN4'       -1.7100   -3.1810   -0.1540 hn        1 D09      0.429800
     36 HN4A       -0.5700   -1.9290   -0.2060 hn        1 D09      0.429800
     37 H7'        -0.9330    3.2040   -0.4340 h4        1 D09      0.195000
     38 H9'         0.4040   -0.3700   -1.4100 ha        1 D09      0.134000
@<TRIPOS>BOND
     1    1    2 ar  
     2    1    6 ar  
     3    1    9 1   
     4    2    3 ar  
     5    2   11 1   
     6    3    4 ar  
     7    3   23 1   
     8    4    5 ar  
     9    4   24 1   
    10    5    6 ar  
    11    5   25 1   
    12    6   26 1   
    13    7   12 ar  
    14    7   20 ar  
    15    8    9 1   
    16    8   27 1   
    17    8   28 1   
    18    8   29 1   
    19    9   22 2   
    20   10   11 1   
    21   10   30 1   
    22   10   31 1   
    23   10   32 1   
    24   12   13 1   
    25   12   14 ar  
    26   13   33 1   
    27   13   34 1   
    28   14   15 ar  
    29   15   16 1   
    30   15   17 ar  
    31   16   35 1   
    32   16   36 1   
    33   17   18 1   
    34   17   20 ar  
    35   18   19 2   
    36   18   22 1   
    37   19   21 1   
    38   19   37 1   
    39   20   21 1   
    40   22   38 1   
@<TRIPOS>SUBSTRUCTURE
     1 D09         1 TEMP              0 ****  ****    0 ROOT
