@<TRIPOS>MOLECULE
D09
   40    42     1     0     0
SMALL
bcc


@<TRIPOS>ATOM
      1 C'1        -0.2260   -0.0390   -0.0580 ca        1 D09     -0.146800
      2 C'2         1.0170    0.6250   -0.1300 ca        1 D09      0.107100
      3 C'3         1.9020    0.6160    0.9520 ca        1 D09     -0.164000
      4 C'4         1.5450   -0.0610    2.1180 ca        1 D09     -0.064000
      5 C'5         0.3160   -0.7150    2.2070 ca        1 D09     -0.124000
      6 C'6        -0.5670   -0.6980    1.1280 ca        1 D09     -0.072000
      7 N1'        -4.0170    2.7000   -5.3530 nb        1 D09     -0.571000
      8 C10        -0.6990   -0.8300   -2.3780 c3        1 D09     -0.097900
      9 C11        -1.1310   -0.0270   -1.2100 ce        1 D09      0.057600
     10 C13         2.6660    1.4460   -1.6420 c3        1 D09      0.115700
     11 O13         1.2790    1.3300   -1.3060 os        1 D09     -0.444900
     12 C2'        -2.9030    3.5050   -5.5300 ca        1 D09      0.712900
     13 N2'        -2.9500    4.3850   -6.7340 n4        1 D09     -0.810300
     14 N3'        -1.7800    3.5990   -4.7510 nb        1 D09     -0.662000
     15 C4'        -1.7350    2.7980   -3.6460 ca        1 D09      0.544200
     16 N4'        -0.5570    2.8630   -2.7660 n4        1 D09     -0.824300
     17 C5'        -2.7870    1.9220   -3.3330 ca        1 D09     -0.230400
     18 C6'        -3.1110    0.9650   -2.3070 cd        1 D09     -0.075200
     19 C7'        -4.3640    0.4630   -2.6290 cc        1 D09      0.129100
     20 C8'        -3.9220    1.9340   -4.2570 ca        1 D09      0.615600
     21 O8'        -4.8790    1.0300   -3.8070 os        1 D09     -0.234400
     22 C9'        -2.2600    0.7140   -1.1730 cf        1 D09     -0.237000
     23 H'3         2.8730    1.1310    0.8900 ha        1 D09      0.159000
     24 H'4         2.2430   -0.0780    2.9730 ha        1 D09      0.169000
     25 H'5         0.0410   -1.2490    3.1320 ha        1 D09      0.169000
     26 H'6        -1.5360   -1.2180    1.2020 ha        1 D09      0.154000
     27 H10         0.3750   -0.6240   -2.6190 hc        1 D09      0.070367
     28 H10A       -0.7830   -1.9200   -2.1200 hc        1 D09      0.070367
     29 H10B       -1.3270   -0.6360   -3.2800 hc        1 D09      0.070367
     30 H13         3.1330    2.2550   -1.0280 h1        1 D09      0.060033
     31 H13A        2.6580    1.7220   -2.7260 h1        1 D09      0.060033
     32 H13B        3.1990    0.4760   -1.4870 h1        1 D09      0.060033
     33 HN2'       -3.7670    5.0130   -6.6600 hn        1 D09      0.498800
     34 HN2A       -3.0500    3.7990   -7.5770 hn        1 D09      0.498800
     35 HN4'       -0.4640    3.8030   -2.3590 hn        1 D09      0.497800
     36 HN4A       -0.6600    2.1610   -1.9940 hn        1 D09      0.497800
     37 H7'        -5.0440   -0.2720   -2.1760 h4        1 D09      0.263000
     38 H9'        -2.5880    1.1860   -0.2270 ha        1 D09      0.178000
     39 H2'3       -2.0900    4.9490   -6.8060 hn        1 D09      0.498800
     40 H4'3        0.3070    2.6350   -3.2810 hn        1 D09      0.497800
@<TRIPOS>BOND
     1    1    2 ar  
     2    1    6 ar  
     3    1    9 1   
     4    2    3 ar  
     5    2   11 1   
     6    3    4 ar  
     7    3   23 1   
     8    4    5 ar  
     9    4   24 1   
    10    5    6 ar  
    11    5   25 1   
    12    6   26 1   
    13    7   12 ar  
    14    7   20 ar  
    15    8    9 1   
    16    8   27 1   
    17    8   28 1   
    18    8   29 1   
    19    9   22 2   
    20   10   11 1   
    21   10   30 1   
    22   10   31 1   
    23   10   32 1   
    24   12   13 1   
    25   12   14 ar  
    26   13   33 1   
    27   13   34 1   
    28   13   39 1   
    29   14   15 ar  
    30   15   16 1   
    31   15   17 ar  
    32   16   35 1   
    33   16   36 1   
    34   16   40 1   
    35   17   18 1   
    36   17   20 ar  
    37   18   19 2   
    38   18   22 1   
    39   19   21 1   
    40   19   37 1   
    41   20   21 1   
    42   22   38 1   
@<TRIPOS>SUBSTRUCTURE
     1 D09         1 TEMP              0 ****  ****    0 ROOT
