@<TRIPOS>MOLECULE
D09
   38    40     1     0     0
SMALL
bcc


@<TRIPOS>ATOM
      1 C'1        -0.0090   -0.0150   -0.0850 ca        1 D09     -0.090800
      2 C'2         1.4040    0.0270   -0.0240 ca        1 D09      0.137100
      3 C'3         2.0640    0.0780    1.2110 ca        1 D09     -0.206000
      4 C'4         1.3230    0.0900    2.3900 ca        1 D09     -0.092000
      5 C'5        -0.0690    0.0590    2.3460 ca        1 D09     -0.164000
      6 C'6        -0.7240    0.0090    1.1170 ca        1 D09     -0.091000
      7 N1'        -4.1030    2.5170   -5.6540 nb        1 D09     -0.764000
      8 C10        -0.4580   -1.2550   -2.2160 c3        1 D09     -0.067900
      9 C11        -0.7410   -0.0820   -1.3560 ce        1 D09     -0.016400
     10 C13         3.4830    0.0860   -1.1900 c3        1 D09      0.111700
     11 O13         2.0620    0.0270   -1.2390 os        1 D09     -0.325900
     12 C2'        -3.6010    3.8200   -5.5930 ca        1 D09      0.918900
     13 N2'        -3.9890    4.6850   -6.6190 nv        1 D09     -0.931500
     14 N3'        -2.7100    4.3290   -4.6570 nb        1 D09     -0.835000
     15 C4'        -2.2460    3.4830   -3.6840 ca        1 D09      0.762200
     16 N4'        -1.4000    3.9690   -2.7020 nv        1 D09     -0.942500
     17 C5'        -2.6790    2.1260   -3.6540 ca        1 D09     -0.435400
     18 C6'        -2.4420    0.9430   -2.8480 cd        1 D09     -0.032200
     19 C7'        -3.1940   -0.0640   -3.4140 cc        1 D09     -0.043900
     20 C8'        -3.6000    1.7330   -4.6830 ca        1 D09      0.646600
     21 O8'        -3.9210    0.3790   -4.5370 os        1 D09     -0.305400
     22 C9'        -1.6260    0.8870   -1.6660 cf        1 D09     -0.130000
     23 H'3         3.1610    0.1080    1.2620 ha        1 D09      0.138000
     24 H'4         1.8440    0.1280    3.3590 ha        1 D09      0.134000
     25 H'5        -0.6520    0.0720    3.2780 ha        1 D09      0.136000
     26 H'6        -1.8250   -0.0130    1.0820 ha        1 D09      0.140000
     27 H10        -0.8830   -1.1190   -3.2410 hc        1 D09      0.052700
     28 H10A       -0.9080   -2.1740   -1.7630 hc        1 D09      0.052700
     29 H10B        0.6470   -1.4140   -2.3060 hc        1 D09      0.052700
     30 H13         3.7790    0.0800   -2.2700 h1        1 D09      0.045700
     31 H13A        3.8240    1.0270   -0.6940 h1        1 D09      0.045700
     32 H13B        3.8980   -0.8080   -0.6640 h1        1 D09      0.045700
     33 HN2'       -3.8500    5.6570   -6.4690 hn        1 D09      0.432300
     34 HN2A       -4.7810    4.4210   -7.1570 hn        1 D09      0.432300
     35 HN4'       -0.9790    4.8570   -2.8390 hn        1 D09      0.429800
     36 HN4A       -0.8650    3.2870   -2.2160 hn        1 D09      0.429800
     37 H7'        -3.3630   -1.1130   -3.1850 h4        1 D09      0.195000
     38 H9'        -1.7770    1.7290   -0.9640 ha        1 D09      0.134000
@<TRIPOS>BOND
     1    1    2 ar  
     2    1    6 ar  
     3    1    9 1   
     4    2    3 ar  
     5    2   11 1   
     6    3    4 ar  
     7    3   23 1   
     8    4    5 ar  
     9    4   24 1   
    10    5    6 ar  
    11    5   25 1   
    12    6   26 1   
    13    7   12 ar  
    14    7   20 ar  
    15    8    9 1   
    16    8   27 1   
    17    8   28 1   
    18    8   29 1   
    19    9   22 2   
    20   10   11 1   
    21   10   30 1   
    22   10   31 1   
    23   10   32 1   
    24   12   13 1   
    25   12   14 ar  
    26   13   33 1   
    27   13   34 1   
    28   14   15 ar  
    29   15   16 1   
    30   15   17 ar  
    31   16   35 1   
    32   16   36 1   
    33   17   18 1   
    34   17   20 ar  
    35   18   19 2   
    36   18   22 1   
    37   19   21 1   
    38   19   37 1   
    39   20   21 1   
    40   22   38 1   
@<TRIPOS>SUBSTRUCTURE
     1 D09         1 TEMP              0 ****  ****    0 ROOT
