@<TRIPOS>MOLECULE
D09
   38    30     1     0     0
SMALL
bcc


@<TRIPOS>ATOM
      1 C'1         0.5190   -1.5640    0.9630 c1        1 D09     -0.070000
      2 C'2         1.9100   -1.4830    0.9900 c2        1 D09      0.076000
      3 C'3         2.5800   -1.4040    2.2070 c1        1 D09     -0.198000
      4 C'4         1.8600   -1.4040    3.3990 c1        1 D09     -0.124500
      5 C'5         0.4710   -1.4840    3.3730 c1        1 D09     -0.124500
      6 C'6        -0.2000   -1.5640    2.1550 c1        1 D09     -0.080000
      7 N1'        -3.3220    3.1620   -1.0900 n1        1 D09     -0.242000
      8 C10        -0.0430   -3.0790   -1.1460 c3        1 D09     -0.185000
      9 C11        -0.2120   -1.7670   -0.3730 c1        1 D09     -0.045000
     10 C13         3.7760   -2.2940   -0.2500 c3        1 D09     -0.077000
     11 O13         2.6420   -1.4370   -0.2260 os        1 D09     -0.230000
     12 C2'        -2.5040    4.1040   -1.6560 c1        1 D09      0.200000
     13 N2'        -3.0640    5.3040   -2.1940 n2        1 D09     -0.329000
     14 N3'        -1.1510    3.8860   -1.7270 n2        1 D09     -0.313000
     15 C4'        -0.6240    2.7460   -1.2400 c1        1 D09      0.244000
     16 N4'         0.7930    2.5600   -1.2340 n3        1 D09     -0.329000
     17 C5'        -1.4510    1.7900   -0.6670 c1        1 D09     -0.070500
     18 C6'        -1.1870    0.5400   -0.1030 c1        1 D09     -0.048000
     19 C7'        -2.3860   -0.0010    0.3110 c1        1 D09     -0.096000
     20 C8'        -2.7930    2.0070   -0.5970 c1        1 D09     -0.070500
     21 O8'        -3.3800    0.8930    0.0110 o         1 D09     -0.092000
     22 C9'        -1.0180   -0.7720   -0.8760 c1        1 D09     -0.109000
     23 H'3         3.5590   -1.3470    2.2260 ha        1 D09      0.138000
     24 H'4         2.3320   -1.3480    4.2580 ha        1 D09      0.136500
     25 H'5        -0.0370   -1.4850    4.2140 ha        1 D09      0.136500
     26 H'6        -1.1790   -1.6200    2.1370 ha        1 D09      0.141000
     27 H10         0.4270   -3.7320   -0.5840 hc        1 D09      0.088667
     28 H10A        0.4790   -2.9130   -1.9630 hc        1 D09      0.088667
     29 H10B       -0.9280   -3.4330   -1.3890 hc        1 D09      0.088667
     30 H13         4.5470   -1.8280    0.1420 h1        1 D09      0.086333
     31 H13A        3.9800   -2.5420   -1.1790 h1        1 D09      0.086333
     32 H13B        3.5840   -3.1050    0.2710 h1        1 D09      0.086333
     33 HN2'       -2.5220    5.9180   -2.6050 hn        1 D09      0.225500
     34 HN2A       -3.9670    5.4540   -2.1380 hn        1 D09      0.225500
     35 HN4'        1.3460    3.2400   -1.5080 hn        1 D09      0.227500
     36 HN4A        1.1490    1.7660   -0.9530 hn        1 D09      0.227500
     37 H7'        -2.5020   -0.8580    0.7720 DU        1 D09      0.192000
     38 H9'        -1.4850   -0.9020   -1.7300 ha        1 D09      0.137000
@<TRIPOS>BOND
     1    1    2 1   
     2    1    6 1   
     3    2    3 1   
     4    2   11 1   
     5    3   23 1   
     6    4    5 1   
     7    4   24 1   
     8    5   25 1   
     9    6   26 1   
    10    7   12 1   
    11    8    9 1   
    12    8   27 1   
    13    8   28 1   
    14    8   29 1   
    15    9   22 1   
    16   10   11 1   
    17   10   30 1   
    18   10   31 1   
    19   10   32 1   
    20   12   14 1   
    21   13   33 1   
    22   13   34 1   
    23   14   15 1   
    24   15   16 1   
    25   16   35 1   
    26   16   36 1   
    27   17   20 1   
    28   18   19 1   
    29   19   21 1   
    30   22   38 1   
@<TRIPOS>SUBSTRUCTURE
     1 D09         1 TEMP              0 ****  ****    0 ROOT
