@<TRIPOS>MOLECULE
D0M
   20    19     1     0     0
SMALL
bcc


@<TRIPOS>ATOM
      1 N1         -0.0460    0.0470   -0.0190 nz        1 D0M     -0.842600
      2 C1          1.4620    0.0160   -0.0080 c3        1 D0M      0.122500
      3 C2          2.0020    0.0370    1.4230 c3        1 D0M     -0.114400
      4 C3          1.5660    1.2500    2.2010 c3        1 D0M     -0.124100
      5 C4          1.9920   -1.2050   -0.7620 c3        1 D0M     -0.114400
      6 C5          1.5460   -1.2500   -2.2000 c3        1 D0M     -0.124100
      7 H1         -0.4130   -0.7830    0.4550 hn        1 D0M      0.459467
      8 H2          1.7900    0.9590   -0.5450 hx        1 D0M      0.111700
      9 H3          1.7070   -0.9020    1.9640 hc        1 D0M      0.089700
     10 H4          3.1240    0.0290    1.3420 hc        1 D0M      0.089700
     11 H5          1.7180    2.1870    1.6120 hc        1 D0M      0.058033
     12 H6          2.1750    1.3320    3.1370 hc        1 D0M      0.058033
     13 H7          0.4930    1.1850    2.5080 hc        1 D0M      0.058033
     14 H8          1.6970   -2.1490   -0.2310 hc        1 D0M      0.089700
     15 H9          3.1150   -1.1440   -0.7210 hc        1 D0M      0.089700
     16 H10         0.4720   -1.5430   -2.2940 hc        1 D0M      0.058033
     17 H11         1.6990   -0.2650   -2.7040 hc        1 D0M      0.058033
     18 H12         2.1480   -2.0150   -2.7530 hc        1 D0M      0.058033
     19 H13        -0.3740    0.8850    0.4710 hn        1 D0M      0.459467
     20 H131       -0.3810    0.0560   -0.9870 hn        1 D0M      0.459467
@<TRIPOS>BOND
     1    1    2 1   
     2    1    7 1   
     3    1   19 1   
     4    1   20 1   
     5    2    3 1   
     6    2    5 1   
     7    2    8 1   
     8    3    4 1   
     9    3    9 1   
    10    3   10 1   
    11    4   11 1   
    12    4   12 1   
    13    4   13 1   
    14    5    6 1   
    15    5   14 1   
    16    5   15 1   
    17    6   16 1   
    18    6   17 1   
    19    6   18 1   
@<TRIPOS>SUBSTRUCTURE
     1 D0M         1 TEMP              0 ****  ****    0 ROOT
