@<TRIPOS>MOLECULE
D0M
   20    19     1     0     0
SMALL
bcc


@<TRIPOS>ATOM
      1 N1         -0.0440    0.0520   -0.0300 n4        1 D0M     -0.842600
      2 C1          1.4630    0.0150   -0.0090 c3        1 D0M      0.122500
      3 C2          1.9930    0.0440    1.4260 c3        1 D0M     -0.114400
      4 C3          1.5570    1.2640    2.1920 c3        1 D0M     -0.124100
      5 C4          1.9930   -1.2140   -0.7500 c3        1 D0M     -0.114400
      6 C5          1.5570   -1.2680   -2.1900 c3        1 D0M     -0.124100
      7 H1         -0.4180   -0.7730    0.4460 hn        1 D0M      0.459467
      8 H2          1.8000    0.9530   -0.5510 hx        1 D0M      0.111700
      9 H3          1.6910   -0.8900    1.9710 hc        1 D0M      0.089700
     10 H4          3.1160    0.0310    1.3530 hc        1 D0M      0.089700
     11 H5          1.7180    2.1960    1.5970 hc        1 D0M      0.058033
     12 H6          2.1600    1.3500    3.1320 hc        1 D0M      0.058033
     13 H7          0.4820    1.2060    2.4920 hc        1 D0M      0.058033
     14 H8          1.6910   -2.1520   -0.2140 hc        1 D0M      0.089700
     15 H9          3.1160   -1.1570   -0.7020 hc        1 D0M      0.089700
     16 H10         0.4820   -1.5570   -2.2900 hc        1 D0M      0.058033
     17 H11         1.7180   -0.2870   -2.7010 hc        1 D0M      0.058033
     18 H12         2.1600   -2.0390   -2.7340 hc        1 D0M      0.058033
     19 H13        -0.3720    0.8950    0.4520 hn        1 D0M      0.459467
     20 H131       -0.3720    0.0560   -1.0010 hn        1 D0M      0.459467
@<TRIPOS>BOND
     1    1    2 1   
     2    1    7 1   
     3    1   19 1   
     4    1   20 1   
     5    2    3 1   
     6    2    5 1   
     7    2    8 1   
     8    3    4 1   
     9    3    9 1   
    10    3   10 1   
    11    4   11 1   
    12    4   12 1   
    13    4   13 1   
    14    5    6 1   
    15    5   14 1   
    16    5   15 1   
    17    6   16 1   
    18    6   17 1   
    19    6   18 1   
@<TRIPOS>SUBSTRUCTURE
     1 D0M         1 TEMP              0 ****  ****    0 ROOT
