@<TRIPOS>MOLECULE
D0M
   19    18     1     0     0
SMALL
bcc


@<TRIPOS>ATOM
      1 N1          0.0120    1.4970   -0.1100 n3        1 D0M     -0.900800
      2 C1          0.0060    0.0810    0.2070 c3        1 D0M      0.161500
      3 C2         -1.2320   -0.6920   -0.2830 c3        1 D0M     -0.097400
      4 C3         -2.5170   -0.1410    0.2760 c3        1 D0M     -0.091600
      5 C4          1.2550   -0.6400   -0.3240 c3        1 D0M     -0.097400
      6 C5          2.5250   -0.1150    0.2900 c3        1 D0M     -0.091600
      7 H1          0.1060    1.6380   -1.0970 hn        1 D0M      0.344800
      8 H2          0.0230    0.0150    1.3370 h1        1 D0M      0.058700
      9 H3         -1.2660   -0.6780   -1.4030 hc        1 D0M      0.039950
     10 H4         -1.1230   -1.7630    0.0320 hc        1 D0M      0.039950
     11 H5         -2.4420   -0.0040    1.3820 hc        1 D0M      0.034867
     12 H6         -2.7690    0.8460   -0.1830 hc        1 D0M      0.034867
     13 H7         -3.3610   -0.8410    0.0640 hc        1 D0M      0.034867
     14 H8          1.1490   -1.7320   -0.0870 hc        1 D0M      0.039950
     15 H9          1.3020   -0.5450   -1.4400 hc        1 D0M      0.039950
     16 H10         2.6970    0.9510    0.0050 hc        1 D0M      0.034867
     17 H11         2.4780   -0.1750    1.4040 hc        1 D0M      0.034867
     18 H12         3.3980   -0.7190   -0.0600 hc        1 D0M      0.034867
     19 H13        -0.8420    1.9200    0.1970 hn        1 D0M      0.344800
@<TRIPOS>BOND
     1    1    2 1   
     2    1    7 1   
     3    1   19 1   
     4    2    3 1   
     5    2    5 1   
     6    2    8 1   
     7    3    4 1   
     8    3    9 1   
     9    3   10 1   
    10    4   11 1   
    11    4   12 1   
    12    4   13 1   
    13    5    6 1   
    14    5   14 1   
    15    5   15 1   
    16    6   16 1   
    17    6   17 1   
    18    6   18 1   
@<TRIPOS>SUBSTRUCTURE
     1 D0M         1 TEMP              0 ****  ****    0 ROOT
