@<TRIPOS>MOLECULE
D0M
   20    19     1     0     0
SMALL
bcc


@<TRIPOS>ATOM
      1 N1         -0.0450    0.0450   -0.0260 n4        1 D0M     -0.842600
      2 C1          1.4620    0.0160   -0.0090 c3        1 D0M      0.122500
      3 C2          1.9960    0.0480    1.4240 c3        1 D0M     -0.114400
      4 C3          1.5560    1.2660    2.1910 c3        1 D0M     -0.124100
      5 C4          1.9960   -1.2110   -0.7510 c3        1 D0M     -0.114400
      6 C5          1.5560   -1.2680   -2.1900 c3        1 D0M     -0.124100
      7 H1         -0.4140   -0.7810    0.4520 hn        1 D0M      0.459467
      8 H2          1.7920    0.9540   -0.5530 hx        1 D0M      0.111700
      9 H3          3.1190    0.0400    1.3470 hc        1 D0M      0.089700
     10 H4          1.7000   -0.8870    1.9710 hc        1 D0M      0.089700
     11 H5          0.4830    1.2030    2.4940 hc        1 D0M      0.058033
     12 H6          1.7100    2.1990    1.5940 hc        1 D0M      0.058033
     13 H7          2.1610    1.3560    3.1290 hc        1 D0M      0.058033
     14 H8          1.6990   -2.1510   -0.2140 hc        1 D0M      0.089700
     15 H9          3.1190   -1.1490   -0.7060 hc        1 D0M      0.089700
     16 H10         1.7120   -0.2870   -2.7010 hc        1 D0M      0.058033
     17 H11         2.1610   -2.0370   -2.7350 hc        1 D0M      0.058033
     18 H12         0.4820   -1.5620   -2.2870 hc        1 D0M      0.058033
     19 H13        -0.3770    0.0460   -0.9960 hn        1 D0M      0.459467
     20 H131       -0.3760    0.8870    0.4560 hn        1 D0M      0.459467
@<TRIPOS>BOND
     1    1    2 1   
     2    1    7 1   
     3    1   19 1   
     4    1   20 1   
     5    2    3 1   
     6    2    5 1   
     7    2    8 1   
     8    3    4 1   
     9    3    9 1   
    10    3   10 1   
    11    4   11 1   
    12    4   12 1   
    13    4   13 1   
    14    5    6 1   
    15    5   14 1   
    16    5   15 1   
    17    6   16 1   
    18    6   17 1   
    19    6   18 1   
@<TRIPOS>SUBSTRUCTURE
     1 D0M         1 TEMP              0 ****  ****    0 ROOT
