@<TRIPOS>MOLECULE
D0M
   19    18     1     0     0
SMALL
bcc


@<TRIPOS>ATOM
      1 N1         -1.6730   -0.1150   -0.0540 n3        1 D0M     -0.900800
      2 C1         -0.2480   -0.1150   -0.0540 c3        1 D0M      0.161500
      3 C2          0.2580   -0.1150    1.3750 c3        1 D0M     -0.097400
      4 C3          0.8660   -1.4630    1.6940 c3        1 D0M     -0.091600
      5 C4          0.2570    1.1230   -0.7680 c3        1 D0M     -0.097400
      6 C5          0.0340    0.9730   -2.2580 c3        1 D0M     -0.091600
      7 H1         -1.9770    0.2520    0.7230 hn        1 D0M      0.344800
      8 H2          0.0780   -0.9120   -0.5140 h1        1 D0M      0.058700
      9 H3          0.9340    0.5810    1.4800 hc        1 D0M      0.039950
     10 H4         -0.4860    0.0590    1.9830 hc        1 D0M      0.039950
     11 H5          0.1900   -2.1580    1.5870 hc        1 D0M      0.034867
     12 H6          1.1900   -1.4630    2.6150 hc        1 D0M      0.034867
     13 H7          1.6100   -1.6360    1.0870 hc        1 D0M      0.034867
     14 H8          1.2110    1.2340   -0.5910 hc        1 D0M      0.039950
     15 H9         -0.2270    1.9060   -0.4440 hc        1 D0M      0.039950
     16 H10         0.5290    0.1970   -2.5850 hc        1 D0M      0.034867
     17 H11         0.3480    1.7750   -2.7170 hc        1 D0M      0.034867
     18 H12        -0.9180    0.8490   -2.4340 hc        1 D0M      0.034867
     19 H13        -1.9770   -0.9720   -0.1250 hn        1 D0M      0.344800
@<TRIPOS>BOND
     1    1    2 1   
     2    1    7 1   
     3    1   19 1   
     4    2    3 1   
     5    2    5 1   
     6    2    8 1   
     7    3    4 1   
     8    3    9 1   
     9    3   10 1   
    10    4   11 1   
    11    4   12 1   
    12    4   13 1   
    13    5    6 1   
    14    5   14 1   
    15    5   15 1   
    16    6   16 1   
    17    6   17 1   
    18    6   18 1   
@<TRIPOS>SUBSTRUCTURE
     1 D0M         1 TEMP              0 ****  ****    0 ROOT
