@<TRIPOS>MOLECULE
D0R
   86    88     1     0     0
SMALL
bcc


@<TRIPOS>ATOM
      1 C21         1.8350    2.1610   -0.1870 c         1 D0R      0.766100
      2 N74         3.2220    2.4350   -0.1090 n         1 D0R     -0.445800
      3 C75         3.8170    2.4590    1.2070 c3        1 D0R      0.068700
      4 O76         1.1180    2.2070    0.8490 o         1 D0R     -0.669100
      5 C77         4.3270    1.1520    1.7450 cc        1 D0R      0.304600
      6 C80         4.0510    0.6970    3.0290 cd        1 D0R     -0.243400
      7 S81         4.8160   -0.7560    3.3180 ss        1 D0R     -0.090300
      8 C82         5.4890   -0.7490    1.7260 cd        1 D0R      0.401700
      9 N83         5.1530    0.3170    0.9980 nc        1 D0R     -0.639000
     10 C85         6.3560   -1.8660    1.2440 c3        1 D0R     -0.098000
     11 C86         7.7330   -1.3580    0.8640 c3        1 D0R     -0.097100
     12 C90         6.4610   -2.9570    2.2930 c3        1 D0R     -0.097100
     13 C95         4.0790    2.1420   -1.2250 c3        1 D0R      0.069300
     14 N20         1.2420    1.8880   -1.4210 n         1 D0R     -0.561900
     15 C19        -0.1890    1.9930   -1.5750 c3        1 D0R      0.047700
     16 C18        -0.8520    0.5950   -1.4160 c         1 D0R      0.658100
     17 O61        -1.4510    0.0410   -2.3600 o         1 D0R     -0.629100
     18 C62        -0.6240    2.6110   -2.9230 c3        1 D0R     -0.072700
     19 C64        -2.0910    2.9900   -2.8410 c3        1 D0R     -0.093600
     20 C68         0.1990    3.8300   -3.2840 c3        1 D0R     -0.093600
     21 N11        -5.0330   -0.1000    2.6630 n3        1 D0R     -0.901800
     22 C12        -5.0030   -0.2610    1.2240 c3        1 D0R      0.136500
     23 C13        -3.5920    0.0190    0.6370 c3        1 D0R      0.144100
     24 C14        -2.5800   -0.9960    1.1530 c3        1 D0R     -0.125400
     25 C15        -1.4100   -1.2110    0.1740 c3        1 D0R      0.101700
     26 C28        -7.4070    0.4040    0.9210 ca        1 D0R     -0.082300
     27 C31        -7.9130    1.1680    1.9800 ca        1 D0R     -0.132000
     28 C32        -9.2220    0.9800    2.4230 ca        1 D0R     -0.126500
     29 C33       -10.0370    0.0270    1.8120 ca        1 D0R     -0.132000
     30 C34        -9.5390   -0.7370    0.7560 ca        1 D0R     -0.126500
     31 C35        -8.2320   -0.5500    0.3120 ca        1 D0R     -0.132000
     32 O41        -3.2010    1.3570    0.8950 oh        1 D0R     -0.601800
     33 C44        -0.4620   -2.2510    0.8070 c3        1 D0R     -0.047100
     34 C45         0.5170   -2.8000   -0.1690 ca        1 D0R     -0.072300
     35 C48         1.8770   -2.4880   -0.0650 ca        1 D0R     -0.121000
     36 C49         2.7930   -3.0220   -0.9700 ca        1 D0R     -0.129000
     37 C50         2.3600   -3.8720   -1.9860 ca        1 D0R     -0.133000
     38 C51         1.0050   -4.1860   -2.0960 ca        1 D0R     -0.129000
     39 C52         0.0880   -3.6540   -1.1930 ca        1 D0R     -0.121000
     40 N58        -0.7340    0.0140   -0.1750 n         1 D0R     -0.549900
     41 H75         4.6870    3.1790    1.1620 h1        1 D0R      0.078700
     42 H75A        3.0530    2.8610    1.9350 h1        1 D0R      0.078700
     43 H80         3.4120    1.2070    3.7480 h4        1 D0R      0.186000
     44 H85         5.8700   -2.3050    0.3220 hc        1 D0R      0.072700
     45 H86         8.2410   -0.8960    1.7440 hc        1 D0R      0.044533
     46 H86A        8.3590   -2.2070    0.4970 hc        1 D0R      0.044533
     47 H86B        7.6590   -0.5930    0.0540 hc        1 D0R      0.044533
     48 H90         5.4500   -3.3510    2.5560 hc        1 D0R      0.044533
     49 H90A        7.0780   -3.8000    1.8980 hc        1 D0R      0.044533
     50 H90B        6.9480   -2.5690    3.2210 hc        1 D0R      0.044533
     51 H95         3.8010    2.8050   -2.0900 h1        1 D0R      0.045700
     52 H95A        5.1450    2.3550   -0.9470 h1        1 D0R      0.045700
     53 H95B        4.0090    1.0680   -1.5490 h1        1 D0R      0.045700
     54 HN20        1.7850    1.8560   -2.2510 hn        1 D0R      0.319500
     55 H19        -0.5980    2.6480   -0.7420 h1        1 D0R      0.095700
     56 H62        -0.5020    1.8290   -3.7250 hc        1 D0R      0.076700
     57 H64        -2.2510    3.7920   -2.0810 hc        1 D0R      0.039533
     58 H64A       -2.4410    3.3640   -3.8330 hc        1 D0R      0.039533
     59 H64B       -2.7050    2.0990   -2.5610 hc        1 D0R      0.039533
     60 H68         1.2290    3.5470   -3.6080 hc        1 D0R      0.039533
     61 H68A       -0.2860    4.3750   -4.1310 hc        1 D0R      0.039533
     62 H68B        0.2760    4.5280   -2.4160 hc        1 D0R      0.039533
     63 HN11       -4.8200    0.8490    2.9090 hn        1 D0R      0.348800
     64 H12        -5.2470   -1.3440    1.0110 h1        1 D0R      0.062700
     65 H13        -3.6600   -0.0310   -0.4890 h1        1 D0R      0.087700
     66 H14        -2.1910   -0.6680    2.1520 hc        1 D0R      0.058700
     67 H14A       -3.0900   -1.9830    1.3000 hc        1 D0R      0.058700
     68 H15        -1.8280   -1.6560   -0.7820 h1        1 D0R      0.087700
     69 H31        -7.2760    1.9270    2.4570 ha        1 D0R      0.131000
     70 H32        -9.6110    1.5860    3.2530 ha        1 D0R      0.131500
     71 H33       -11.0690   -0.1210    2.1610 ha        1 D0R      0.131000
     72 H34       -10.1810   -1.4870    0.2710 ha        1 D0R      0.131500
     73 H35        -7.8440   -1.1510   -0.5240 ha        1 D0R      0.131000
     74 HO41       -2.8590    1.4000    1.7960 ho        1 D0R      0.402000
     75 H44         0.0730   -1.7940    1.6810 hc        1 D0R      0.052700
     76 H44A       -1.0930   -3.0920    1.2020 hc        1 D0R      0.052700
     77 H48         2.2230   -1.8120    0.7320 ha        1 D0R      0.131500
     78 H49         3.8600   -2.7670   -0.8810 ha        1 D0R      0.128000
     79 H50         3.0830   -4.2910   -2.7000 ha        1 D0R      0.128000
     80 H51         0.6590   -4.8520   -2.9000 ha        1 D0R      0.128000
     81 H52        -0.9810   -3.8990   -1.2860 ha        1 D0R      0.131500
     82 HN58       -0.3070    0.5300    0.5620 hn        1 D0R      0.334500
     83 HN1A       -5.9490   -0.3180    3.0100 hn        1 D0R      0.348800
     84 C26        -6.0130    0.6070    0.4460 c3        1 D0R     -0.079100
     85 H26        -5.7190    1.6860    0.5500 hc        1 D0R      0.063200
     86 H26A       -5.9390    0.3450   -0.6420 hc        1 D0R      0.063200
@<TRIPOS>BOND
     1    1    2 1   
     2    1    4 2   
     3    1   14 1   
     4    2    3 1   
     5    2   13 1   
     6    3    5 1   
     7    3   41 1   
     8    3   42 1   
     9    5    6 2   
    10    5    9 1   
    11    6    7 1   
    12    6   43 1   
    13    7    8 1   
    14    8    9 2   
    15    8   10 1   
    16   10   11 1   
    17   10   12 1   
    18   10   44 1   
    19   11   45 1   
    20   11   46 1   
    21   11   47 1   
    22   12   48 1   
    23   12   49 1   
    24   12   50 1   
    25   13   51 1   
    26   13   52 1   
    27   13   53 1   
    28   14   15 1   
    29   14   54 1   
    30   15   16 1   
    31   15   18 1   
    32   15   55 1   
    33   16   17 2   
    34   16   40 1   
    35   18   19 1   
    36   18   20 1   
    37   18   56 1   
    38   19   57 1   
    39   19   58 1   
    40   19   59 1   
    41   20   60 1   
    42   20   61 1   
    43   20   62 1   
    44   21   22 1   
    45   21   63 1   
    46   21   83 1   
    47   22   23 1   
    48   22   64 1   
    49   22   84 1   
    50   23   24 1   
    51   23   32 1   
    52   23   65 1   
    53   24   25 1   
    54   24   66 1   
    55   24   67 1   
    56   25   33 1   
    57   25   40 1   
    58   25   68 1   
    59   26   27 ar  
    60   26   31 ar  
    61   26   84 1   
    62   27   28 ar  
    63   27   69 1   
    64   28   29 ar  
    65   28   70 1   
    66   29   30 ar  
    67   29   71 1   
    68   30   31 ar  
    69   30   72 1   
    70   31   73 1   
    71   32   74 1   
    72   33   34 1   
    73   33   75 1   
    74   33   76 1   
    75   34   35 ar  
    76   34   39 ar  
    77   35   36 ar  
    78   35   77 1   
    79   36   37 ar  
    80   36   78 1   
    81   37   38 ar  
    82   37   79 1   
    83   38   39 ar  
    84   38   80 1   
    85   39   81 1   
    86   40   82 1   
    87   84   85 1   
    88   84   86 1   
@<TRIPOS>SUBSTRUCTURE
     1 D0R         1 TEMP              0 ****  ****    0 ROOT
