@<TRIPOS>MOLECULE
D0R
   86    81     1     0     0
SMALL
bcc


@<TRIPOS>ATOM
      1 C21         3.6430    1.0900    2.5600 c1        1 D0R      0.390000
      2 N74         3.8400    2.5640    2.6730 n3        1 D0R     -0.297000
      3 C75         3.6670    3.2030    3.9230 c3        1 D0R      0.044000
      4 O76         4.1790    0.3380    3.3640 o         1 D0R     -0.432000
      5 C77         3.2700    4.6770    3.6990 c2        1 D0R     -0.124000
      6 C80         2.4450    5.1730    2.6240 c1        1 D0R     -0.439000
      7 S81         2.1820    6.6560    2.8810 ss        1 D0R      0.492000
      8 C82         2.9040    7.0380    4.1910 c1        1 D0R     -0.269000
      9 N83         3.5570    5.8670    4.6890 n2        1 D0R     -0.112000
     10 C85         2.8590    8.4140    4.8800 c2        1 D0R     -0.043000
     11 C86         2.6930    9.5390    3.7960 c3        1 D0R     -0.214500
     12 C90         1.6560    8.4610    5.8660 c3        1 D0R     -0.214500
     13 C95         4.3620    3.2990    1.5710 c3        1 D0R     -0.091000
     14 N20         2.7800    0.5350    1.4830 n2        1 D0R     -0.363000
     15 C19         2.0050   -0.6720    1.7230 c3        1 D0R      0.016000
     16 C18         1.4510   -1.2050    0.3770 c2        1 D0R      0.276000
     17 O61         2.1030   -1.0940   -0.6230 o         1 D0R     -0.375000
     18 C62         0.8790   -0.3650    2.6390 c3        1 D0R     -0.105000
     19 C64         1.1780   -0.9730    4.0640 c3        1 D0R     -0.209000
     20 C68         0.7160    1.1410    2.7520 c3        1 D0R     -0.209000
     21 N11        -2.4400   -0.5500   -4.7230 n3        1 D0R     -0.343000
     22 C12        -2.5070   -1.6000   -3.7620 c3        1 D0R     -0.070000
     23 C13        -1.1400   -1.7930   -3.1290 c3        1 D0R      0.047000
     24 C14        -1.2480   -1.6030   -1.5830 c3        1 D0R     -0.172000
     25 C15        -0.2680   -2.5610   -0.8790 c3        1 D0R      0.033000
     26 C26        -2.9330   -2.8830   -4.4460 c3        1 D0R     -0.162000
     27 C28        -4.5160   -2.9730   -4.4660 c2        1 D0R     -0.081000
     28 C31        -5.1900   -3.0060   -5.6790 c2        1 D0R     -0.138000
     29 C32        -6.5630   -3.2350   -5.7080 c1        1 D0R     -0.126000
     30 C33        -7.2530   -3.4290   -4.5280 c1        1 D0R     -0.130250
     31 C34        -6.5770   -3.3960   -3.3100 c1        1 D0R     -0.130250
     32 C35        -5.2130   -3.1690   -3.2820 c1        1 D0R     -0.123000
     33 O41        -0.2540   -0.8620   -3.6540 oh        1 D0R     -0.329000
     34 C44        -0.9640   -3.8600   -0.5790 c3        1 D0R     -0.136000
     35 C45        -0.5550   -4.8980   -1.6030 c2        1 D0R     -0.068000
     36 C48         0.0340   -6.1030   -1.1800 c2        1 D0R     -0.127000
     37 C49         0.2500   -7.1320   -2.0970 c1        1 D0R     -0.134000
     38 C50        -0.1150   -6.9670   -3.4250 c1        1 D0R     -0.130250
     39 C51        -0.7000   -5.7710   -3.8470 c1        1 D0R     -0.130250
     40 C52        -0.9190   -4.7360   -2.9300 c1        1 D0R     -0.117000
     41 N58         0.1870   -1.9620    0.3500 n         1 D0R     -0.373000
     42 H75         2.9560    2.7440    4.4330 h1        1 D0R      0.118500
     43 H75A        4.4920    3.1660    4.4180 h1        1 D0R      0.118500
     44 H80         2.1110    4.6530    1.8660 DU        1 D0R      0.189000
     45 H85         3.6970    8.5590    5.3760 ha        1 D0R      0.115000
     46 H86         2.1590   10.2740    4.1670 hc        1 D0R      0.083000
     47 H86A        3.5890    9.8790    3.5320 hc        1 D0R      0.083000
     48 H86B        2.2290    9.1630    2.9910 hc        1 D0R      0.083000
     49 H90         1.7360    9.2540    6.4420 hc        1 D0R      0.083000
     50 H90A        1.6560    7.6520    6.4210 hc        1 D0R      0.083000
     51 H90B        0.8330    8.5070    5.3680 hc        1 D0R      0.083000
     52 H95         5.1750    2.8680    1.2460 h1        1 D0R      0.086333
     53 H95A        4.5750    4.2410    1.8670 h1        1 D0R      0.086333
     54 H95B        3.7130    3.3250    0.8700 h1        1 D0R      0.086333
     55 HN20        2.6750    1.0030    0.6850 hn        1 D0R      0.231000
     56 H19         2.5790   -1.3530    2.1300 h1        1 D0R      0.134000
     57 H62         0.1000   -0.7340    2.3040 hc        1 D0R      0.114000
     58 H64         0.8730   -1.9320    4.0900 hc        1 D0R      0.078333
     59 H64A        2.1430   -0.9310    4.2420 hc        1 D0R      0.078333
     60 H64B        0.6780   -0.4370    4.7730 hc        1 D0R      0.078333
     61 H68        -0.0580    1.3450    3.3220 hc        1 D0R      0.078333
     62 H68A        1.5050    1.5190    3.1380 hc        1 D0R      0.078333
     63 H68B        0.5760    1.5160    1.8760 hc        1 D0R      0.078333
     64 HN11       -2.5850   -0.8970   -5.5720 hn        1 D0R      0.148000
     65 H12        -3.1500   -1.3700   -3.0760 h1        1 D0R      0.115000
     66 H13        -0.8270   -2.6660   -3.3160 h1        1 D0R      0.068000
     67 H14        -1.0220   -0.6660   -1.3480 hc        1 D0R      0.090000
     68 H14A       -2.1740   -1.8020   -1.2900 hc        1 D0R      0.090000
     69 H15         0.5170   -2.7350   -1.4770 h1        1 D0R      0.151000
     70 H26        -2.5900   -2.8900   -5.3780 hc        1 D0R      0.096000
     71 H26A       -2.5790   -3.6250   -3.9740 hc        1 D0R      0.096000
     72 H31        -4.7030   -2.8700   -6.5080 ha        1 D0R      0.128000
     73 H32        -7.0590   -3.2590   -6.6000 ha        1 D0R      0.133000
     74 H33        -8.2250   -3.5910   -4.5470 ha        1 D0R      0.131250
     75 H34        -7.0710   -3.5350   -2.4660 ha        1 D0R      0.131250
     76 H35        -4.7280   -3.1460   -2.4070 ha        1 D0R      0.135000
     77 HO41        0.1050   -1.1860   -4.4110 ho        1 D0R      0.221000
     78 H44        -0.7140   -4.1640    0.3010 hc        1 D0R      0.092500
     79 H44A       -1.9450   -3.7270   -0.6150 hc        1 D0R      0.092500
     80 H48         0.2880   -6.2190   -0.2590 ha        1 D0R      0.130000
     81 H49         0.6530   -7.9560   -1.8080 ha        1 D0R      0.126000
     82 H50         0.0350   -7.6740   -4.0550 ha        1 D0R      0.131250
     83 H51        -0.9540   -5.6580   -4.7750 ha        1 D0R      0.131250
     84 H52        -1.3250   -3.9050   -3.2250 ha        1 D0R      0.144000
     85 HN58       -0.3360   -2.0190    1.1160 hn        1 D0R      0.247000
     86 HN1A       -3.0890    0.0820   -4.5340 hn        1 D0R      0.148000
@<TRIPOS>BOND
     1    1    2 1   
     2    1    4 1   
     3    2    3 1   
     4    2   13 1   
     5    3    5 1   
     6    3   42 1   
     7    3   43 1   
     8    5    6 1   
     9    5    9 1   
    10    6    7 1   
    11    7    8 1   
    12    8    9 1   
    13   10   11 1   
    14   10   12 1   
    15   10   45 1   
    16   11   46 1   
    17   11   47 1   
    18   11   48 1   
    19   12   49 1   
    20   12   50 1   
    21   12   51 1   
    22   13   52 1   
    23   13   53 1   
    24   13   54 1   
    25   14   15 1   
    26   14   55 1   
    27   15   16 1   
    28   15   18 1   
    29   15   56 1   
    30   16   17 1   
    31   16   41 1   
    32   18   19 1   
    33   18   20 1   
    34   18   57 1   
    35   19   58 1   
    36   19   59 1   
    37   19   60 1   
    38   20   61 1   
    39   20   62 1   
    40   20   63 1   
    41   21   22 1   
    42   21   64 1   
    43   21   86 1   
    44   22   23 1   
    45   22   26 1   
    46   22   65 1   
    47   23   24 1   
    48   23   33 1   
    49   23   66 1   
    50   24   25 1   
    51   24   67 1   
    52   24   68 1   
    53   25   34 1   
    54   25   41 1   
    55   25   69 1   
    56   26   27 1   
    57   26   70 1   
    58   26   71 1   
    59   27   28 1   
    60   27   32 1   
    61   28   29 1   
    62   28   72 1   
    63   29   73 1   
    64   30   31 1   
    65   30   74 1   
    66   31   75 1   
    67   32   76 1   
    68   33   77 1   
    69   34   35 1   
    70   34   78 1   
    71   34   79 1   
    72   35   36 1   
    73   35   40 1   
    74   36   37 1   
    75   36   80 1   
    76   37   81 1   
    77   38   39 1   
    78   38   82 1   
    79   39   83 1   
    80   40   84 1   
    81   41   85 1   
@<TRIPOS>SUBSTRUCTURE
     1 D0R         1 TEMP              0 ****  ****    0 ROOT
