@<TRIPOS>MOLECULE
D0T
   66    54     1     0     0
SMALL
bcc


@<TRIPOS>ATOM
      1 C1         -3.8800    0.8180   -3.3910 c1        1 D0T     -0.138600
      2 C2         -4.4710    0.4790   -2.1720 c1        1 D0T     -0.138600
      3 C3         -2.8160    1.7320   -3.4250 c1        1 D0T     -0.138600
      4 C4         -4.0030    1.0510   -0.9860 c1        1 D0T     -0.138600
      5 C5         -1.3230   -1.5420    2.2400 c1        1 D0T     -0.138600
      6 C6         -0.5190   -2.6750    2.5780 c1        1 D0T     -0.138600
      7 C7         -2.3500    2.3030   -2.2420 c1        1 D0T     -0.022250
      8 C8          0.0660   -0.1040    3.7210 c1        1 D0T     -0.059000
      9 C9         -2.9430    1.9630   -1.0190 c1        1 D0T     -0.022250
     10 C10        -1.0330   -0.2550    2.8100 c1        1 D0T     -0.124000
     11 C11         0.5440   -2.5330    3.4580 c1        1 D0T     -0.022250
     12 C12         0.8480   -1.1990    4.0510 c1        1 D0T     -0.022250
     13 C13        -1.1840    3.3240   -2.5260 c1        1 D0T      0.332000
     14 C14         0.8550    0.9820    4.4350 c2        1 D0T      0.379000
     15 C15         3.9290   -6.9740    5.4920 c1        1 D0T      0.328000
     16 C16         1.3610    2.6590   -8.4620 c1        1 D0T     -0.138600
     17 C17         0.6340    1.7650   -7.6830 c1        1 D0T     -0.138600
     18 C18         1.7240    3.8980   -7.9430 c1        1 D0T     -0.138600
     19 C19         0.2700    2.1110   -6.3820 c1        1 D0T     -0.138600
     20 C20         1.3600    4.2420   -6.6430 c1        1 D0T     -0.108000
     21 C21         2.8310   -2.1460    5.0000 c3        1 D0T     -0.056000
     22 C22         0.6330    3.3470   -5.8640 c1        1 D0T     -0.072000
     23 C23         2.1710   -3.4850    4.9350 c3        1 D0T     -0.008000
     24 C24        -2.6190    2.1060    0.4610 c2        1 D0T     -0.072000
     25 C25        -1.8710    0.9750    2.4020 c3        1 D0T     -0.030000
     26 C26        -1.2740    0.2120    0.2290 c3        1 D0T     -0.118000
     27 C27         2.7850   -5.9540    5.3640 c2        1 D0T     -0.222000
     28 C28         0.5640    3.5060   -4.3060 c3        1 D0T     -0.005000
     29 C29         3.3440   -4.6200    4.8720 c3        1 D0T     -0.140000
     30 N1         -0.8040    3.6300   -3.8990 n2        1 D0T     -0.334000
     31 N2         -2.3170    0.8250    1.0040 n3        1 D0T     -0.267000
     32 O1          1.6370    1.7190    3.7870 o         1 D0T     -0.576000
     33 O2          4.2070   -7.7390    4.5210 o         1 D0T     -0.590500
     34 O3         -0.6500    3.9240   -1.5910 o         1 D0T     -0.422000
     35 O4          0.7040    1.1590    5.6820 o         1 D0T     -0.576000
     36 O5          4.5730   -7.0700    6.5790 o         1 D0T     -0.590500
     37 O6          2.0460   -1.0960    4.9340 o         1 D0T     -0.184000
     38 O7          1.3540   -3.6930    3.9250 o         1 D0T     -0.216000
     39 H1         -4.2120    0.4140   -4.2290 ha        1 D0T      0.124200
     40 H2         -5.2160   -0.1620   -2.1480 ha        1 D0T      0.124200
     41 H3         -2.4030    1.9680   -4.2760 ha        1 D0T      0.124200
     42 H4         -4.4220    0.8120   -0.1220 ha        1 D0T      0.124200
     43 H5         -2.0650   -1.6420    1.6270 ha        1 D0T      0.124200
     44 H6         -0.7530   -3.5420    2.2490 ha        1 D0T      0.124200
     45 H7          1.6150    2.4180   -9.3700 ha        1 D0T      0.124200
     46 H8          0.3780    0.8920   -8.0490 ha        1 D0T      0.124200
     47 H9          2.3230    4.4850   -8.4540 ha        1 D0T      0.124200
     48 H10        -0.1900    1.4670   -5.8200 ha        1 D0T      0.124200
     49 H11         1.6140    5.1080   -6.2790 ha        1 D0T      0.156000
     50 H12         3.4750   -2.0900    4.2570 h1        1 D0T      0.104500
     51 H13         3.3340   -2.0960    5.8490 h1        1 D0T      0.104500
     52 H14         1.6670   -3.6130    5.7610 h1        1 D0T      0.093000
     53 H15        -3.3910    2.4860    0.9290 h4        1 D0T      0.128000
     54 H16        -1.8520    2.6950    0.5680 h4        1 D0T      0.128000
     55 H17        -2.6570    1.0470    2.9910 h1        1 D0T      0.104500
     56 H18        -1.3290    1.7790    2.4860 h1        1 D0T      0.104500
     57 H19        -1.1870   -0.7270    0.4840 h1        1 D0T      0.063000
     58 H20        -0.4280    0.6760    0.3970 h1        1 D0T      0.063000
     59 H21        -1.4990    0.2750   -0.7360 h1        1 D0T      0.063000
     60 H22         2.1190   -6.2860    4.7240 ha        1 D0T      0.062000
     61 H23         2.3600   -5.8260    6.2410 ha        1 D0T      0.062000
     62 H24         0.9610    2.7190   -3.8800 h1        1 D0T      0.125500
     63 H25         1.0630    4.3140   -4.0350 h1        1 D0T      0.125500
     64 H26         3.6570   -4.7170    3.9490 hc        1 D0T      0.098500
     65 H27         4.0880   -4.3510    5.4410 hc        1 D0T      0.098500
     66 H28        -1.4330    3.8480   -4.5010 hn        1 D0T      0.278000
@<TRIPOS>BOND
     1    1    3 1   
     2    1   39 1   
     3    2    4 1   
     4    2   40 1   
     5    3   41 1   
     6    4   42 1   
     7    5    6 1   
     8    5   43 1   
     9    6   44 1   
    10    7    9 1   
    11    8   10 1   
    12    8   14 1   
    13   10   25 1   
    14   11   12 1   
    15   13   34 1   
    16   14   32 1   
    17   14   35 1   
    18   15   33 1   
    19   15   36 1   
    20   16   18 1   
    21   16   45 1   
    22   17   19 1   
    23   17   46 1   
    24   18   47 1   
    25   19   48 1   
    26   20   22 1   
    27   20   49 1   
    28   21   23 1   
    29   21   37 1   
    30   21   50 1   
    31   21   51 1   
    32   22   28 1   
    33   23   29 1   
    34   23   38 1   
    35   23   52 1   
    36   24   31 1   
    37   24   53 1   
    38   24   54 1   
    39   25   31 1   
    40   25   55 1   
    41   25   56 1   
    42   26   31 1   
    43   26   57 1   
    44   26   58 1   
    45   26   59 1   
    46   27   29 1   
    47   27   60 1   
    48   27   61 1   
    49   28   30 1   
    50   28   62 1   
    51   28   63 1   
    52   29   64 1   
    53   29   65 1   
    54   30   66 1   
@<TRIPOS>SUBSTRUCTURE
     1 D0T         1 TEMP              0 ****  ****    0 ROOT
