@<TRIPOS>MOLECULE
D0T
   66    69     1     0     0
SMALL
bcc


@<TRIPOS>ATOM
      1 C1         -5.6200    2.9770   -2.3160 ca        1 D0T     -0.149000
      2 C2         -4.8030    4.0910   -2.1180 ca        1 D0T     -0.136000
      3 C3         -5.5070    1.8790   -1.4680 ca        1 D0T     -0.096000
      4 C4         -3.8710    4.0930   -1.0850 ca        1 D0T     -0.137000
      5 C5          1.8970    2.6830    1.1130 ca        1 D0T     -0.147000
      6 C6          3.1890    2.2920    0.7830 ca        1 D0T     -0.163000
      7 C7         -4.5690    1.8780   -0.4260 ca        1 D0T     -0.092600
      8 C8          1.0660    0.4150    0.7850 ca        1 D0T     -0.060600
      9 C9         -3.7340    2.9850   -0.2370 ca        1 D0T     -0.036300
     10 C10         0.8440    1.7610    1.1130 ca        1 D0T     -0.098300
     11 C11         3.4270    0.9530    0.4460 ca        1 D0T      0.060100
     12 C12         2.3720    0.0180    0.4530 ca        1 D0T      0.069100
     13 C13        -4.5920    0.6900    0.4920 c         1 D0T      0.651700
     14 C15         8.2320   -2.4300   -1.3200 c         1 D0T      0.908600
     15 C16        -4.4230   -4.8700   -0.9790 ca        1 D0T     -0.150000
     16 C17        -5.3890   -4.3240   -0.1350 ca        1 D0T     -0.155500
     17 C18        -3.1710   -4.2620   -1.0900 ca        1 D0T     -0.155500
     18 C19        -5.1050   -3.1710    0.5990 ca        1 D0T     -0.111500
     19 C20        -2.8800   -3.1130   -0.3570 ca        1 D0T     -0.111500
     20 C21         3.9670   -1.6910    0.1920 c3        1 D0T      0.094400
     21 C22        -3.8500   -2.5670    0.4950 ca        1 D0T     -0.091300
     22 C23         4.8770   -0.6740   -0.4880 c3        1 D0T      0.103100
     23 C24        -2.7050    3.0320    0.8600 c3        1 D0T      0.215100
     24 C25        -0.5280    2.2180    1.5200 c3        1 D0T      0.224100
     25 C26        -0.7710    3.5740   -0.4940 c3        1 D0T      0.159100
     26 C28        -3.5040   -1.3480    1.3070 c3        1 D0T      0.102300
     27 C29         6.3510   -1.0420   -0.3830 c3        1 D0T     -0.062400
     28 N1         -3.5020   -0.1240    0.5450 n         1 D0T     -0.516900
     29 N2         -1.3800    2.6330    0.4090 n3        1 D0T     -0.723600
     30 O1         -0.7290   -0.8200   -0.2300 o         1 D0T     -0.838300
     31 O2          8.9860   -2.3830   -2.3360 o         1 D0T     -0.855800
     32 O3         -5.6290    0.4790    1.1730 o         1 D0T     -0.674100
     33 O4         -0.4280   -1.0290    1.9610 o         1 D0T     -0.838300
     34 O5          8.6110   -2.8480   -0.1880 o         1 D0T     -0.855800
     35 O6          2.5920   -1.3040    0.1000 os        1 D0T     -0.299900
     36 O7          4.7350    0.6140    0.1510 os        1 D0T     -0.333900
     37 H1         -6.3500    2.9660   -3.1360 ha        1 D0T      0.117000
     38 H2         -4.8930    4.9630   -2.7800 ha        1 D0T      0.114000
     39 H3         -6.1600    1.0020   -1.6000 ha        1 D0T      0.141000
     40 H4         -3.2240    4.9700   -0.9310 ha        1 D0T      0.126000
     41 H5          1.7010    3.7320    1.3780 ha        1 D0T      0.106000
     42 H6          4.0230    3.0050    0.7840 ha        1 D0T      0.127000
     43 H7         -4.6470   -5.7770   -1.5560 ha        1 D0T      0.104000
     44 H8         -6.3760   -4.7980   -0.0490 ha        1 D0T      0.113500
     45 H9         -2.4090   -4.6900   -1.7560 ha        1 D0T      0.113500
     46 H10        -5.8690   -2.7310    1.2560 ha        1 D0T      0.171000
     47 H11        -1.8900   -2.6110   -0.4290 ha        1 D0T      0.171000
     48 H12         4.0070   -2.6800   -0.3350 h1        1 D0T      0.065700
     49 H13         4.2440   -1.8100    1.2710 h1        1 D0T      0.065700
     50 H14         4.5670   -0.5480   -1.5620 h1        1 D0T      0.054700
     51 H15        -2.7010    4.0820    1.2870 h1        1 D0T      0.035700
     52 H16        -3.0240    2.3370    1.6900 h1        1 D0T      0.035700
     53 H17        -1.0500    1.3530    2.0320 h1        1 D0T      0.043200
     54 H18        -0.4170    3.0560    2.2730 h1        1 D0T      0.043200
     55 H19         0.2410    3.1940   -0.7950 h1        1 D0T      0.026700
     56 H20        -1.4080    3.6580   -1.4140 h1        1 D0T      0.026700
     57 H21        -0.6510    4.6040   -0.0510 h1        1 D0T      0.026700
     58 H22         6.6570   -1.4780   -2.4860 hc        1 D0T      0.023200
     59 H23         6.1250   -2.8900   -1.4860 hc        1 D0T      0.023200
     60 H24        -4.2310   -1.2500    2.1620 h1        1 D0T      0.097200
     61 H25        -2.4470   -1.4810    1.7140 h1        1 D0T      0.097200
     62 H26         6.9600   -0.1010   -0.4320 hc        1 D0T      0.059200
     63 H27         6.5620   -1.5220    0.6080 hc        1 D0T      0.059200
     64 H28        -2.6640    0.0690    0.0210 hn        1 D0T      0.380500
     65 C27         6.7720   -1.9760   -1.4910 c3        1 D0T     -0.193400
     66 C14        -0.0950   -0.5590    0.8340 c         1 D0T      0.929200
@<TRIPOS>BOND
     1    1    2 ar  
     2    1    3 ar  
     3    1   37 1   
     4    2    4 ar  
     5    2   38 1   
     6    3    7 ar  
     7    3   39 1   
     8    4    9 ar  
     9    4   40 1   
    10    5    6 ar  
    11    5   10 ar  
    12    5   41 1   
    13    6   11 ar  
    14    6   42 1   
    15    7    9 ar  
    16    7   13 1   
    17    8   10 ar  
    18    8   12 ar  
    19    8   66 1   
    20    9   23 1   
    21   10   24 1   
    22   11   12 ar  
    23   11   36 1   
    24   12   35 1   
    25   13   28 1   
    26   13   32 2   
    27   14   31 1   
    28   14   34 1   
    29   14   65 1   
    30   15   16 ar  
    31   15   17 ar  
    32   15   43 1   
    33   16   18 ar  
    34   16   44 1   
    35   17   19 ar  
    36   17   45 1   
    37   18   21 ar  
    38   18   46 1   
    39   19   21 ar  
    40   19   47 1   
    41   20   22 1   
    42   20   35 1   
    43   20   48 1   
    44   20   49 1   
    45   21   26 1   
    46   22   27 1   
    47   22   36 1   
    48   22   50 1   
    49   23   29 1   
    50   23   51 1   
    51   23   52 1   
    52   24   29 1   
    53   24   53 1   
    54   24   54 1   
    55   25   29 1   
    56   25   55 1   
    57   25   56 1   
    58   25   57 1   
    59   26   28 1   
    60   26   60 1   
    61   26   61 1   
    62   27   62 1   
    63   27   63 1   
    64   27   65 1   
    65   28   64 1   
    66   30   66 1   
    67   33   66 1   
    68   58   65 1   
    69   59   65 1   
@<TRIPOS>SUBSTRUCTURE
     1 D0T         1 TEMP              0 ****  ****    0 ROOT
