@<TRIPOS>MOLECULE
D0T
   66    65     1     0     0
SMALL
bcc


@<TRIPOS>ATOM
      1 C1          0.9690   -0.7650    1.2430 c3        1 D0T     -0.089000
      2 C2          2.1700   -0.9440    2.1730 c3        1 D0T     -0.176000
      3 C3         -0.2440   -0.6030    1.9850 c1        1 D0T      0.002000
      4 C4          2.9300    0.2100    2.5060 c1        1 D0T     -0.032000
      5 C5          4.1840   -2.9580    6.2340 c2        1 D0T     -0.118000
      6 C6          4.2130   -4.2270    6.5980 c1        1 D0T     -0.269000
      7 C7         -1.2290   -0.5110    2.6600 c1        1 D0T     -0.186000
      8 C8          1.7430   -3.3250    6.0830 c2        1 D0T     -0.163000
      9 C9          2.7480    1.5310    2.3540 c1        1 D0T     -0.140000
     10 C10         2.8310   -2.3060    6.3770 c3        1 D0T     -0.042000
     11 C11         3.2080   -5.0840    6.8920 c2        1 D0T      0.161000
     12 C12         1.9380   -4.6620    6.2390 c2        1 D0T      0.018000
     13 C13        -2.3510   -0.4530    3.5120 c2        1 D0T      0.286000
     14 C15         3.0800  -10.6840    9.3080 c2        1 D0T      0.345000
     15 C16        -7.2360    1.5670    4.4670 c2        1 D0T     -0.149000
     16 C17        -8.0300    2.6360    4.5240 c2        1 D0T     -0.289000
     17 C18        -7.0890    0.5870    5.5750 c3        1 D0T     -0.108000
     18 C19        -4.5590    0.4090    3.7210 c1        1 D0T     -0.029000
     19 C20        -5.8150   -0.0730    5.7970 c1        1 D0T     -0.209000
     20 C21        -0.2990   -5.3710    5.8150 c3        1 D0T     -0.092000
     21 C22        -4.7110   -0.1480    4.9880 c2        1 D0T     -0.371000
     22 C23         2.4570   -7.2210    7.6420 c3        1 D0T      0.015000
     23 C24         2.7460    2.7460    2.3200 c1        1 D0T     -0.209000
     24 C25         2.5920   -1.6440    7.7150 c3        1 D0T     -0.202000
     25 C26         1.4850   -5.2540    2.4930 c2        1 D0T     -0.111000
     26 C28        -3.5610   -0.9430    5.5660 c3        1 D0T      0.003000
     27 C29         2.9770   -8.2960    8.5280 c2        1 D0T     -0.208000
     28 N1         -2.3860   -1.0290    4.7010 n3        1 D0T     -0.173000
     29 N2          1.2330   -4.1240    1.9700 n2        1 D0T     -0.289000
     30 O1          0.3540   -2.3690    4.3740 o         1 D0T     -0.590000
     31 O2          2.6930  -11.8580    9.0270 o         1 D0T     -0.580500
     32 O3         -3.4410    0.2640    3.0130 os        1 D0T     -0.102000
     33 O4         -0.4600   -2.3970    6.4120 o         1 D0T     -0.590000
     34 O5          3.8340  -10.4170   10.2870 o         1 D0T     -0.580500
     35 O6          1.0880   -5.6920    5.9020 os        1 D0T     -0.227000
     36 O7          3.3450   -6.0860    7.7930 os        1 D0T     -0.174000
     37 H1          0.8680   -1.6830    0.5950 hc        1 D0T      0.113000
     38 H2          1.8220   -1.3910    3.1770 hc        1 D0T      0.196000
     39 H3          1.1290    0.1190    0.5670 hc        1 D0T      0.113000
     40 H4          2.8630   -1.7250    1.7440 hc        1 D0T      0.196000
     41 H5          2.7670   -1.5250    5.5620 hc        1 D0T      0.112000
     42 H6          4.9910   -2.4070    5.7460 ha        1 D0T      0.130000
     43 H7         -7.8330   -0.2490    5.4060 hc        1 D0T      0.095500
     44 H8         -8.6380    2.8800    5.4040 ha        1 D0T      0.087500
     45 H9         -6.6190    1.3580    3.5720 ha        1 D0T      0.157000
     46 H10        -8.1180    3.3460    3.6930 ha        1 D0T      0.087500
     47 H11        -7.3770    1.0770    6.5500 hc        1 D0T      0.095500
     48 H12        -0.4940   -4.7980    4.8740 h1        1 D0T      0.092000
     49 H13        -0.7980   -6.3710    5.7860 h1        1 D0T      0.092000
     50 H14        -0.6310   -4.7760    6.7010 h1        1 D0T      0.092000
     51 H15         2.7540    3.8040    2.2990 ha        1 D0T      0.215000
     52 H16         0.9050   -3.4060    2.5900 hn        1 D0T      0.181000
     53 H17         2.7890   -2.3640    8.5450 hc        1 D0T      0.078667
     54 H18         1.5290   -1.3030    7.7850 hc        1 D0T      0.078667
     55 H19         1.3840   -5.5310    3.5630 h4        1 D0T      0.105500
     56 H20         3.2700   -0.7650    7.8350 hc        1 D0T      0.078667
     57 H21         1.8520   -6.0680    1.8380 h4        1 D0T      0.105500
     58 H22         1.8880   -9.8920    7.6300 ha        1 D0T      0.095000
     59 H23         2.4360   -7.5320    6.5650 h1        1 D0T      0.083500
     60 H24        -3.2180   -0.4850    6.5380 h1        1 D0T      0.111000
     61 H25        -3.8880   -2.0010    5.7800 h1        1 D0T      0.111000
     62 H26         3.6940   -7.9870    9.3060 ha        1 D0T      0.153000
     63 H27         1.4280   -6.8930    7.9520 h1        1 D0T      0.083500
     64 H28        -1.5710   -1.5530    5.0580 hn        1 D0T      0.341000
     65 C27         2.5960   -9.5690    8.4100 c2        1 D0T     -0.177000
     66 C14         0.4770   -2.6810    5.6050 c2        1 D0T      0.362000
@<TRIPOS>BOND
     1    1    2 1   
     2    1    3 1   
     3    1   37 1   
     4    1   39 1   
     5    2    4 1   
     6    2   38 1   
     7    2   40 1   
     8    3    7 1   
     9    4    9 1   
    10    5    6 1   
    11    5   10 1   
    12    5   42 1   
    13    6   11 1   
    14    7   13 1   
    15    8   10 1   
    16    8   12 1   
    17    8   66 1   
    18    9   23 1   
    19   10   24 1   
    20   10   41 1   
    21   11   12 1   
    22   11   36 1   
    23   12   35 1   
    24   13   28 1   
    25   13   32 1   
    26   14   31 1   
    27   14   34 1   
    28   14   65 1   
    29   15   16 1   
    30   15   17 1   
    31   15   45 1   
    32   16   44 1   
    33   16   46 1   
    34   17   19 1   
    35   17   43 1   
    36   17   47 1   
    37   18   21 1   
    38   18   32 1   
    39   19   21 1   
    40   20   35 1   
    41   20   48 1   
    42   20   49 1   
    43   20   50 1   
    44   21   26 1   
    45   22   27 1   
    46   22   36 1   
    47   22   59 1   
    48   22   63 1   
    49   23   51 1   
    50   24   53 1   
    51   24   54 1   
    52   24   56 1   
    53   25   29 1   
    54   25   55 1   
    55   25   57 1   
    56   26   28 1   
    57   26   60 1   
    58   26   61 1   
    59   27   62 1   
    60   27   65 1   
    61   28   64 1   
    62   29   52 1   
    63   30   66 1   
    64   33   66 1   
    65   58   65 1   
@<TRIPOS>SUBSTRUCTURE
     1 D0T         1 TEMP              0 ****  ****    0 ROOT
