@<TRIPOS>MOLECULE
D10
   32    31     1     0     0
SMALL
bcc


@<TRIPOS>ATOM
      1 C1         -0.2970   -0.0000    5.6290 c3        1 D10     -0.092100
      2 C2          0.5220   -0.0000    4.3640 c3        1 D10     -0.080400
      3 C3         -0.3580   -0.0000    3.1330 c3        1 D10     -0.079400
      4 C4          0.4680   -0.0000    1.8650 c3        1 D10     -0.079400
      5 C5         -0.4130   -0.0000    0.6340 c3        1 D10     -0.079400
      6 C6          0.4130   -0.0000   -0.6340 c3        1 D10     -0.079400
      7 C7         -0.4680   -0.0000   -1.8650 c3        1 D10     -0.079400
      8 C8          0.3580   -0.0000   -3.1330 c3        1 D10     -0.079400
      9 C9         -0.5220   -0.0000   -4.3640 c3        1 D10     -0.080400
     10 C10         0.2970   -0.0000   -5.6290 c3        1 D10     -0.092100
     11 H11         0.3710   -0.0000    6.5240 hc        1 D10      0.032700
     12 H12        -0.9500    0.9050    5.6770 hc        1 D10      0.032700
     13 H13        -0.9500   -0.9050    5.6770 hc        1 D10      0.032700
     14 H21         1.1890    0.9020    4.3470 hc        1 D10      0.038700
     15 H22         1.1890   -0.9020    4.3470 hc        1 D10      0.038700
     16 H31        -1.0250   -0.9020    3.1480 hc        1 D10      0.039700
     17 H32        -1.0250    0.9020    3.1480 hc        1 D10      0.039700
     18 H41         1.1340    0.9030    1.8500 hc        1 D10      0.039700
     19 H42         1.1340   -0.9030    1.8500 hc        1 D10      0.039700
     20 H51        -1.0800   -0.9030    0.6490 hc        1 D10      0.039700
     21 H52        -1.0800    0.9030    0.6490 hc        1 D10      0.039700
     22 H61         1.0800    0.9030   -0.6490 hc        1 D10      0.039700
     23 H62         1.0800   -0.9030   -0.6490 hc        1 D10      0.039700
     24 H71        -1.1340   -0.9030   -1.8500 hc        1 D10      0.039700
     25 H72        -1.1340    0.9030   -1.8500 hc        1 D10      0.039700
     26 H81         1.0250    0.9020   -3.1480 hc        1 D10      0.039700
     27 H82         1.0250   -0.9020   -3.1480 hc        1 D10      0.039700
     28 H91        -1.1890   -0.9020   -4.3470 hc        1 D10      0.038700
     29 H92        -1.1890    0.9020   -4.3470 hc        1 D10      0.038700
     30 H101       -0.3710    0.0000   -6.5240 hc        1 D10      0.032700
     31 H102        0.9500    0.9050   -5.6770 hc        1 D10      0.032700
     32 H103        0.9500   -0.9050   -5.6770 hc        1 D10      0.032700
@<TRIPOS>BOND
     1    1    2 1   
     2    1   11 1   
     3    1   12 1   
     4    1   13 1   
     5    2    3 1   
     6    2   14 1   
     7    2   15 1   
     8    3    4 1   
     9    3   16 1   
    10    3   17 1   
    11    4    5 1   
    12    4   18 1   
    13    4   19 1   
    14    5    6 1   
    15    5   20 1   
    16    5   21 1   
    17    6    7 1   
    18    6   22 1   
    19    6   23 1   
    20    7    8 1   
    21    7   24 1   
    22    7   25 1   
    23    8    9 1   
    24    8   26 1   
    25    8   27 1   
    26    9   10 1   
    27    9   28 1   
    28    9   29 1   
    29   10   30 1   
    30   10   31 1   
    31   10   32 1   
@<TRIPOS>SUBSTRUCTURE
     1 D10         1 TEMP              0 ****  ****    0 ROOT
