@<TRIPOS>MOLECULE
D10
   32    31     1     0     0
SMALL
bcc


@<TRIPOS>ATOM
      1 C1         -4.7910    0.0030   -2.8530 c3        1 D10     -0.092100
      2 C2         -3.2780    0.0030   -2.8530 c3        1 D10     -0.080400
      3 C3         -2.7740    0.0030   -1.4260 c3        1 D10     -0.079400
      4 C4         -1.2610    0.0010   -1.4260 c3        1 D10     -0.079400
      5 C5         -0.7560    0.0030   -0.0000 c3        1 D10     -0.079400
      6 C6          0.7560   -0.0020    0.0000 c3        1 D10     -0.079400
      7 C7          1.2610    0.0030    1.4260 c3        1 D10     -0.079400
      8 C8          2.7740   -0.0050    1.4260 c3        1 D10     -0.079400
      9 C9          3.2780    0.0020    2.8530 c3        1 D10     -0.080400
     10 C10         4.7910   -0.0070    2.8530 c3        1 D10     -0.092100
     11 H11        -5.1160   -0.7950   -2.3930 hc        1 D10      0.032700
     12 H12        -5.1160    0.0030   -3.7730 hc        1 D10      0.032700
     13 H13        -5.1160    0.7990   -2.3920 hc        1 D10      0.032700
     14 H21        -2.9530    0.8000   -3.3130 hc        1 D10      0.038700
     15 H22        -2.9530   -0.7940   -3.3130 hc        1 D10      0.038700
     16 H31        -3.0980    0.8000   -0.9670 hc        1 D10      0.039700
     17 H32        -3.1000   -0.7940   -0.9660 hc        1 D10      0.039700
     18 H41        -0.9360   -0.7970   -1.8850 hc        1 D10      0.039700
     19 H42        -0.9340    0.7970   -1.8880 hc        1 D10      0.039700
     20 H51        -1.0790    0.8020    0.4580 hc        1 D10      0.039700
     21 H52        -1.0840   -0.7920    0.4620 hc        1 D10      0.039700
     22 H61         1.0790   -0.8020   -0.4570 hc        1 D10      0.039700
     23 H62         1.0840    0.7920   -0.4630 hc        1 D10      0.039700
     24 H71         0.9390    0.8030    1.8830 hc        1 D10      0.039700
     25 H72         0.9320   -0.7910    1.8900 hc        1 D10      0.039700
     26 H81         3.0950   -0.8060    0.9710 hc        1 D10      0.039700
     27 H82         3.1030    0.7880    0.9610 hc        1 D10      0.039700
     28 H91         2.9570    0.8040    3.3080 hc        1 D10      0.038700
     29 H92         2.9480   -0.7900    3.3180 hc        1 D10      0.038700
     30 H101        5.1160   -0.0030    3.7730 hc        1 D10      0.032700
     31 H102        5.1110   -0.8100    2.3980 hc        1 D10      0.032700
     32 H103        5.1210    0.7840    2.3870 hc        1 D10      0.032700
@<TRIPOS>BOND
     1    1    2 1   
     2    1   11 1   
     3    1   12 1   
     4    1   13 1   
     5    2    3 1   
     6    2   14 1   
     7    2   15 1   
     8    3    4 1   
     9    3   16 1   
    10    3   17 1   
    11    4    5 1   
    12    4   18 1   
    13    4   19 1   
    14    5    6 1   
    15    5   20 1   
    16    5   21 1   
    17    6    7 1   
    18    6   22 1   
    19    6   23 1   
    20    7    8 1   
    21    7   24 1   
    22    7   25 1   
    23    8    9 1   
    24    8   26 1   
    25    8   27 1   
    26    9   10 1   
    27    9   28 1   
    28    9   29 1   
    29   10   30 1   
    30   10   31 1   
    31   10   32 1   
@<TRIPOS>SUBSTRUCTURE
     1 D10         1 TEMP              0 ****  ****    0 ROOT
