@<TRIPOS>MOLECULE
D11
   19    18     1     0     0
SMALL
bcc


@<TRIPOS>ATOM
      1 N           1.4780   -0.1970    1.5830 n3        1 D11     -0.932800
      2 CA          1.7500    0.6390    0.4220 c3        1 D11      0.042500
      3 CB          0.4560    0.9290   -0.4140 c3        1 D11      0.206100
      4 CG2         0.8340    1.6860   -1.6850 c3        1 D11     -0.092100
      5 OG1        -0.4270    1.6880    0.3370 os        1 D11     -0.587200
      6 P          -1.9350    0.9700    0.7250 p5        1 D11      1.324900
      7 O1P        -2.4830    0.4960   -0.5990 o         1 D11     -0.947167
      8 O2P        -1.5380   -0.1280    1.6850 o         1 D11     -0.947167
      9 O3P        -2.6940    2.1200    1.3440 o         1 D11     -0.947167
     10 C           2.9030    0.0820   -0.4480 c         1 D11      0.910600
     11 O           2.9460   -1.1460   -0.7740 o         1 D11     -0.905800
     12 OXT         3.8370    0.8730   -0.8060 o         1 D11     -0.905800
     13 H           0.5340    0.0120    1.9010 hn        1 D11      0.356300
     14 H2          1.4750   -1.1550    1.2800 hn        1 D11      0.356300
     15 HA          2.0950    1.6380    0.8220 h1        1 D11      0.026700
     16 HB         -0.0270   -0.0500   -0.7030 h1        1 D11      0.029700
     17 HG21        1.5700    1.0950   -2.2790 hc        1 D11      0.004033
     18 HG22       -0.0790    1.8720   -2.2990 hc        1 D11      0.004033
     19 HG23        1.2920    2.6690   -1.4230 hc        1 D11      0.004033
@<TRIPOS>BOND
     1    1    2 1   
     2    1   13 1   
     3    1   14 1   
     4    2    3 1   
     5    2   10 1   
     6    2   15 1   
     7    3    4 1   
     8    3    5 1   
     9    3   16 1   
    10    4   17 1   
    11    4   18 1   
    12    4   19 1   
    13    5    6 1   
    14    6    7 1   
    15    6    8 1   
    16    6    9 1   
    17   10   11 1   
    18   10   12 1   
@<TRIPOS>SUBSTRUCTURE
     1 D11         1 TEMP              0 ****  ****    0 ROOT
