@<TRIPOS>MOLECULE
D12
   38    37     1     0     0
SMALL
bcc


@<TRIPOS>ATOM
      1 C1         -5.7990   -0.0090   -3.5660 c3        1 D12     -0.092100
      2 C2         -4.2860   -0.0090   -3.5660 c3        1 D12     -0.080400
      3 C3         -3.7820   -0.0090   -2.1400 c3        1 D12     -0.079400
      4 C4         -2.2690   -0.0070   -2.1400 c3        1 D12     -0.079400
      5 C5         -1.7650   -0.0080   -0.7130 c3        1 D12     -0.079400
      6 C6         -0.2520   -0.0030   -0.7130 c3        1 D12     -0.079400
      7 C7          0.2520   -0.0040    0.7130 c3        1 D12     -0.079400
      8 C8          1.7650    0.0020    0.7130 c3        1 D12     -0.079400
      9 C9          2.2690    0.0030    2.1400 c3        1 D12     -0.079400
     10 C10         3.7820    0.0090    2.1400 c3        1 D12     -0.079400
     11 C11         4.2860    0.0130    3.5660 c3        1 D12     -0.080400
     12 C12         5.7990    0.0180    3.5660 c3        1 D12     -0.092100
     13 H11        -6.1250   -0.0090   -4.4860 hc        1 D12      0.032700
     14 H12        -6.1250    0.7890   -3.1060 hc        1 D12      0.032700
     15 H13        -6.1250   -0.8050   -3.1050 hc        1 D12      0.032700
     16 H21        -3.9610   -0.8060   -4.0260 hc        1 D12      0.038700
     17 H22        -3.9610    0.7880   -4.0260 hc        1 D12      0.038700
     18 H31        -4.1070   -0.8060   -1.6800 hc        1 D12      0.039700
     19 H32        -4.1090    0.7880   -1.6790 hc        1 D12      0.039700
     20 H41        -1.9430   -0.8030   -2.6010 hc        1 D12      0.039700
     21 H42        -1.9450    0.7910   -2.5990 hc        1 D12      0.039700
     22 H51        -2.0880   -0.8060   -0.2540 hc        1 D12      0.039700
     23 H52        -2.0930    0.7880   -0.2520 hc        1 D12      0.039700
     24 H61         0.0710    0.7950   -1.1720 hc        1 D12      0.039700
     25 H62         0.0750   -0.7990   -1.1740 hc        1 D12      0.039700
     26 H71        -0.0760    0.7910    1.1750 hc        1 D12      0.039700
     27 H72        -0.0700   -0.8030    1.1720 hc        1 D12      0.039700
     28 H81         2.0930   -0.7940    0.2530 hc        1 D12      0.039700
     29 H82         2.0870    0.8000    0.2530 hc        1 D12      0.039700
     30 H91         1.9470   -0.7950    2.5990 hc        1 D12      0.039700
     31 H92         1.9410    0.7990    2.6000 hc        1 D12      0.039700
     32 H101        4.1040    0.8070    1.6790 hc        1 D12      0.039700
     33 H102        4.1110   -0.7870    1.6800 hc        1 D12      0.039700
     34 H111        3.9580    0.8090    4.0250 hc        1 D12      0.038700
     35 H112        3.9640   -0.7850    4.0270 hc        1 D12      0.038700
     36 H121        6.1220    0.8150    3.1050 hc        1 D12      0.032700
     37 H122        6.1250    0.0200    4.4860 hc        1 D12      0.032700
     38 H123        6.1270   -0.7790    3.1070 hc        1 D12      0.032700
@<TRIPOS>BOND
     1    1    2 1   
     2    1   13 1   
     3    1   14 1   
     4    1   15 1   
     5    2    3 1   
     6    2   16 1   
     7    2   17 1   
     8    3    4 1   
     9    3   18 1   
    10    3   19 1   
    11    4    5 1   
    12    4   20 1   
    13    4   21 1   
    14    5    6 1   
    15    5   22 1   
    16    5   23 1   
    17    6    7 1   
    18    6   24 1   
    19    6   25 1   
    20    7    8 1   
    21    7   26 1   
    22    7   27 1   
    23    8    9 1   
    24    8   28 1   
    25    8   29 1   
    26    9   10 1   
    27    9   30 1   
    28    9   31 1   
    29   10   11 1   
    30   10   32 1   
    31   10   33 1   
    32   11   12 1   
    33   11   34 1   
    34   11   35 1   
    35   12   36 1   
    36   12   37 1   
    37   12   38 1   
@<TRIPOS>SUBSTRUCTURE
     1 D12         1 TEMP              0 ****  ****    0 ROOT
