@<TRIPOS>MOLECULE
D12
   38    37     1     0     0
SMALL
bcc


@<TRIPOS>ATOM
      1 C1         -0.3160   -0.0000    6.8770 c3        1 D12     -0.092100
      2 C2          0.5120    0.0000    5.6170 c3        1 D12     -0.080400
      3 C3         -0.3600    0.0000    4.3800 c3        1 D12     -0.079400
      4 C4          0.4740    0.0000    3.1170 c3        1 D12     -0.079400
      5 C5         -0.3990    0.0000    1.8810 c3        1 D12     -0.079400
      6 C6          0.4360   -0.0000    0.6180 c3        1 D12     -0.079400
      7 C7         -0.4360   -0.0000   -0.6180 c3        1 D12     -0.079400
      8 C8          0.3990   -0.0000   -1.8810 c3        1 D12     -0.079400
      9 C9         -0.4740   -0.0000   -3.1170 c3        1 D12     -0.079400
     10 C10         0.3600   -0.0000   -4.3800 c3        1 D12     -0.079400
     11 C11        -0.5120    0.0000   -5.6170 c3        1 D12     -0.080400
     12 C12         0.3160    0.0000   -6.8770 c3        1 D12     -0.092100
     13 H11        -0.9690   -0.9050    6.9200 hc        1 D12      0.032700
     14 H12         0.3460   -0.0000    7.7760 hc        1 D12      0.032700
     15 H13        -0.9690    0.9050    6.9200 hc        1 D12      0.032700
     16 H21         1.1780    0.9020    5.6040 hc        1 D12      0.038700
     17 H22         1.1780   -0.9020    5.6040 hc        1 D12      0.038700
     18 H31        -1.0270   -0.9020    4.3900 hc        1 D12      0.039700
     19 H32        -1.0270    0.9020    4.3900 hc        1 D12      0.039700
     20 H41         1.1410    0.9030    3.1070 hc        1 D12      0.039700
     21 H42         1.1410   -0.9030    3.1070 hc        1 D12      0.039700
     22 H51        -1.0650   -0.9030    1.8910 hc        1 D12      0.039700
     23 H52        -1.0650    0.9030    1.8910 hc        1 D12      0.039700
     24 H61         1.1030    0.9030    0.6080 hc        1 D12      0.039700
     25 H62         1.1030   -0.9030    0.6080 hc        1 D12      0.039700
     26 H71        -1.1030   -0.9030   -0.6080 hc        1 D12      0.039700
     27 H72        -1.1030    0.9030   -0.6080 hc        1 D12      0.039700
     28 H81         1.0650    0.9030   -1.8910 hc        1 D12      0.039700
     29 H82         1.0650   -0.9030   -1.8910 hc        1 D12      0.039700
     30 H91        -1.1410   -0.9030   -3.1070 hc        1 D12      0.039700
     31 H92        -1.1410    0.9030   -3.1070 hc        1 D12      0.039700
     32 H101        1.0270    0.9020   -4.3900 hc        1 D12      0.039700
     33 H102        1.0270   -0.9020   -4.3900 hc        1 D12      0.039700
     34 H111       -1.1780   -0.9020   -5.6040 hc        1 D12      0.038700
     35 H112       -1.1780    0.9020   -5.6040 hc        1 D12      0.038700
     36 H121       -0.3460    0.0000   -7.7760 hc        1 D12      0.032700
     37 H122        0.9690    0.9050   -6.9200 hc        1 D12      0.032700
     38 H123        0.9690   -0.9050   -6.9200 hc        1 D12      0.032700
@<TRIPOS>BOND
     1    1    2 1   
     2    1   13 1   
     3    1   14 1   
     4    1   15 1   
     5    2    3 1   
     6    2   16 1   
     7    2   17 1   
     8    3    4 1   
     9    3   18 1   
    10    3   19 1   
    11    4    5 1   
    12    4   20 1   
    13    4   21 1   
    14    5    6 1   
    15    5   22 1   
    16    5   23 1   
    17    6    7 1   
    18    6   24 1   
    19    6   25 1   
    20    7    8 1   
    21    7   26 1   
    22    7   27 1   
    23    8    9 1   
    24    8   28 1   
    25    8   29 1   
    26    9   10 1   
    27    9   30 1   
    28    9   31 1   
    29   10   11 1   
    30   10   32 1   
    31   10   33 1   
    32   11   12 1   
    33   11   34 1   
    34   11   35 1   
    35   12   36 1   
    36   12   37 1   
    37   12   38 1   
@<TRIPOS>SUBSTRUCTURE
     1 D12         1 TEMP              0 ****  ****    0 ROOT
