@<TRIPOS>MOLECULE
D13
   43    46     1     0     0
SMALL
bcc


@<TRIPOS>ATOM
      1 C1          0.0850   -0.0560    0.0030 cc        1 D13      0.454000
      2 N2          1.4420    0.0280   -0.0370 nd        1 D13     -0.640000
      3 C3          1.8760    0.0190    1.2920 cd        1 D13      0.366800
      4 C4          0.7520   -0.0640    2.1620 cc        1 D13     -0.133600
      5 N5         -0.3700   -0.1190    1.3310 na        1 D13     -0.297900
      6 C6          3.2830    0.0640    1.6530 ca        1 D13     -0.073500
      7 C7          3.7620   -0.6190    2.7800 ca        1 D13     -0.229300
      8 C8          5.1350   -0.5550    3.0750 ca        1 D13      0.388200
      9 N9          6.0270    0.1280    2.3320 nb        1 D13     -0.662000
     10 C10         5.5550    0.7760    1.2500 ca        1 D13      0.388200
     11 C11         4.2020    0.7760    0.8670 ca        1 D13     -0.229300
     12 C12         0.6510   -0.0710    3.6100 ca        1 D13     -0.031000
     13 C13         1.4190    0.8250    4.3700 ca        1 D13     -0.071000
     14 C14         1.3100    0.8360    5.7590 ca        1 D13      0.020900
     15 I14         2.4160    2.1310    6.8460 i         1 D13     -0.128900
     16 C15         0.4380   -0.0460    6.4000 ca        1 D13     -0.088000
     17 C16        -0.3250   -0.9390    5.6480 ca        1 D13     -0.133000
     18 C17        -0.2230   -0.9540    4.2580 ca        1 D13     -0.109000
     19 C18        -0.8130   -0.0810   -1.1510 ca        1 D13     -0.085500
     20 C19        -0.4010    0.5030   -2.3590 ca        1 D13     -0.126500
     21 C20        -1.2500    0.4830   -3.4620 ca        1 D13     -0.059000
     22 C21        -2.5140   -0.1080   -3.3860 ca        1 D13     -0.122500
     23 C22        -2.9130   -0.6960   -2.1830 ca        1 D13     -0.059000
     24 C23        -2.0740   -0.6860   -1.0710 ca        1 D13     -0.126500
     25 S24        -3.5800   -0.0140   -4.7270 sx        1 D13      0.326400
     26 O24        -4.8180   -0.7400   -4.3250 o         1 D13     -0.510200
     27 C25        -2.7770   -1.0600   -5.8620 c3        1 D13     -0.128800
     28 HN5        -1.3090   -0.1490    1.6310 hn        1 D13      0.308700
     29 H7          3.0800   -1.1940    3.4210 ha        1 D13      0.152500
     30 H8          5.5450   -1.0810    3.9560 h4        1 D13      0.022600
     31 H10         6.3060    1.3260    0.6550 h4        1 D13      0.022600
     32 H11         3.8800    1.3180   -0.0330 ha        1 D13      0.152500
     33 H13         2.1090    1.5120    3.8510 ha        1 D13      0.161000
     34 H15         0.3460   -0.0430    7.4970 ha        1 D13      0.149000
     35 H16        -1.0080   -1.6370    6.1550 ha        1 D13      0.142000
     36 H17        -0.8200   -1.6710    3.6750 ha        1 D13      0.136000
     37 H19         0.5930    0.9710   -2.4360 ha        1 D13      0.146000
     38 H20        -0.9140    0.9430   -4.4060 ha        1 D13      0.150500
     39 H22        -3.9070   -1.1750   -2.1250 ha        1 D13      0.150500
     40 H23        -2.4100   -1.1750   -0.1450 ha        1 D13      0.146000
     41 H251       -1.6880   -0.8360   -5.9190 h1        1 D13      0.086367
     42 H252       -3.2240   -0.8880   -6.8700 h1        1 D13      0.086367
     43 H253       -2.8930   -2.1440   -5.6320 h1        1 D13      0.086367
@<TRIPOS>BOND
     1    1    2 2   
     2    1    5 1   
     3    1   19 1   
     4    2    3 1   
     5    3    4 2   
     6    3    6 1   
     7    4    5 1   
     8    4   12 1   
     9    5   28 1   
    10    6    7 ar  
    11    6   11 ar  
    12    7    8 ar  
    13    7   29 1   
    14    8    9 ar  
    15    8   30 1   
    16    9   10 ar  
    17   10   11 ar  
    18   10   31 1   
    19   11   32 1   
    20   12   13 ar  
    21   12   18 ar  
    22   13   14 ar  
    23   13   33 1   
    24   14   15 1   
    25   14   16 ar  
    26   16   17 ar  
    27   16   34 1   
    28   17   18 ar  
    29   17   35 1   
    30   18   36 1   
    31   19   20 ar  
    32   19   24 ar  
    33   20   21 ar  
    34   20   37 1   
    35   21   22 ar  
    36   21   38 1   
    37   22   23 ar  
    38   22   25 1   
    39   23   24 ar  
    40   23   39 1   
    41   24   40 1   
    42   25   26 2   
    43   25   27 1   
    44   27   41 1   
    45   27   42 1   
    46   27   43 1   
@<TRIPOS>SUBSTRUCTURE
     1 D13         1 TEMP              0 ****  ****    0 ROOT
