@<TRIPOS>MOLECULE
D13
   43    36     1     0     0
SMALL
bcc


@<TRIPOS>ATOM
      1 C1         -0.3990   -0.0900   -0.5790 c2        1 D13     -0.005000
      2 N2          0.9550   -0.1520   -0.5680 n2        1 D13     -0.149000
      3 C3          1.3600   -0.1080    0.7040 c2        1 D13     -0.056500
      4 C4          0.2490   -0.0180    1.4990 c2        1 D13     -0.056500
      5 N5         -0.8260   -0.0070    0.7040 n2        1 D13     -0.149000
      6 C6          2.6760   -0.0660    1.1380 c1        1 D13      0.001500
      7 C7          3.3600    1.1150    1.1260 c1        1 D13     -0.106500
      8 C8          4.7020    1.1420    1.4710 c1        1 D13     -0.106500
      9 N9          5.3390   -0.0100    1.8220 n1        1 D13     -0.136000
     10 C10         4.6570   -1.1900    1.8350 c1        1 D13     -0.075000
     11 C11         3.3150   -1.2190    1.4910 c1        1 D13     -0.142000
     12 C12         0.2370   -0.0040    2.8870 c1        1 D13      0.001500
     13 C13         0.2440    1.2020    3.5680 c1        1 D13     -0.071000
     14 C14         0.2630    1.2160    4.9540 c1        1 D13     -0.265000
     15 I14         0.3230    3.0500    5.9890 i         1 D13      0.157000
     16 C15         0.2750    0.0220    5.6580 c2        1 D13     -0.088000
     17 C16         0.2670   -1.1850    4.9770 c1        1 D13     -0.133000
     18 C17         0.2480   -1.1980    3.5910 c1        1 D13     -0.142000
     19 C18        -1.2040   -0.0760   -1.7080 c1        1 D13      0.022000
     20 C19        -1.5130   -1.2630   -2.3540 c1        1 D13     -0.106500
     21 C20        -2.3340   -1.2510   -3.4710 c1        1 D13     -0.106500
     22 C21        -2.8460   -0.0520   -3.9430 c1        1 D13     -0.551000
     23 C22        -2.5370    1.1350   -3.2970 c1        1 D13     -0.068000
     24 C23        -1.7160    1.1230   -2.1800 c1        1 D13     -0.109000
     25 S24        -3.9660   -0.0470   -5.3180 s4        1 D13      1.453000
     26 O24        -5.3780   -0.1900   -5.0940 o         1 D13     -0.782000
     27 C25        -3.3410    0.1000   -6.9700 c3        1 D13     -0.673000
     28 HN5        -1.6940    0.0470    0.9780 DU        1 D13      0.259000
     29 H7          2.9040    1.9410    0.8740 ha        1 D13      0.154000
     30 H8          5.1910    1.9860    1.4620 ha        1 D13      0.154000
     31 H10         5.1150   -2.0150    2.0870 ha        1 D13      0.160000
     32 H11         2.8270   -2.0650    1.5000 ha        1 D13      0.142000
     33 H13         0.2130    2.0430    3.0730 ha        1 D13      0.161000
     34 H15         0.2880    0.0310    6.6350 ha        1 D13      0.149000
     35 H16         0.2760   -2.0250    5.4730 ha        1 D13      0.142000
     36 H17         0.2430   -2.0480    3.1110 ha        1 D13      0.142000
     37 H19        -1.1530   -2.1070   -2.0220 ha        1 D13      0.154000
     38 H20        -2.5510   -2.0870   -3.9260 ha        1 D13      0.154000
     39 H22        -2.8970    1.9790   -3.6290 ha        1 D13      0.133000
     40 H23        -1.4980    1.9590   -1.7250 ha        1 D13      0.160000
     41 H251       -3.9130   -0.4080   -7.5830 h1        1 D13      0.125667
     42 H252       -2.4280   -0.2530   -7.0070 h1        1 D13      0.125667
     43 H253       -3.3370    1.0440   -7.2350 h1        1 D13      0.125667
@<TRIPOS>BOND
     1    1    2 1   
     2    1    5 1   
     3    1   19 1   
     4    2    3 1   
     5    3    4 1   
     6    3    6 1   
     7    4    5 1   
     8    4   12 1   
     9    6   11 1   
    10    7    8 1   
    11    7   29 1   
    12    8   30 1   
    13    9   10 1   
    14   10   31 1   
    15   11   32 1   
    16   12   18 1   
    17   13   14 1   
    18   13   33 1   
    19   14   16 1   
    20   16   17 1   
    21   16   34 1   
    22   17   35 1   
    23   18   36 1   
    24   19   24 1   
    25   20   21 1   
    26   20   37 1   
    27   21   38 1   
    28   22   23 1   
    29   22   25 1   
    30   23   39 1   
    31   24   40 1   
    32   25   26 1   
    33   25   27 1   
    34   27   41 1   
    35   27   42 1   
    36   27   43 1   
@<TRIPOS>SUBSTRUCTURE
     1 D13         1 TEMP              0 ****  ****    0 ROOT
