@<TRIPOS>MOLECULE
D13
   43    46     1     0     0
SMALL
bcc


@<TRIPOS>ATOM
      1 C1         -0.2670   -0.2050    2.1910 cc        1 D13      0.454000
      2 N2         -1.4700   -0.1250    1.5600 nd        1 D13     -0.640000
      3 C3         -1.2220   -0.3680    0.2060 cd        1 D13      0.366800
      4 C4          0.1700   -0.5930    0.0070 cc        1 D13     -0.133600
      5 N5          0.7560   -0.4950    1.2720 na        1 D13     -0.297900
      6 C6         -2.2810   -0.3960   -0.7880 ca        1 D13     -0.073500
      7 C7         -2.2190   -1.2680   -1.8860 ca        1 D13     -0.229300
      8 C8         -3.2780   -1.2650   -2.8090 ca        1 D13      0.388200
      9 N9         -4.3610   -0.4710   -2.7030 nb        1 D13     -0.662000
     10 C10        -4.4100    0.3590   -1.6420 ca        1 D13      0.388200
     11 C11        -3.4050    0.4350   -0.6620 ca        1 D13     -0.229300
     12 C12         0.9450   -0.8510   -1.1930 ca        1 D13     -0.031000
     13 C13         0.7020   -0.1050   -2.3560 ca        1 D13     -0.071000
     14 C14         1.4560   -0.3360   -3.5050 ca        1 D13      0.020900
     15 I14         1.1030    0.7430   -5.1760 i         1 D13     -0.128900
     16 C15         2.4560   -1.3100   -3.5020 ca        1 D13     -0.088000
     17 C16         2.6990   -2.0540   -2.3480 ca        1 D13     -0.133000
     18 C17         1.9500   -1.8280   -1.1950 ca        1 D13     -0.109000
     19 C18        -0.0290   -0.0230    3.6220 ca        1 D13     -0.085500
     20 C19        -0.9170    0.7590    4.3750 ca        1 D13     -0.126500
     21 C20        -0.6980    0.9380    5.7380 ca        1 D13     -0.059000
     22 C21         0.4020    0.3510    6.3720 ca        1 D13     -0.122500
     23 C22         1.2760   -0.4340    5.6170 ca        1 D13     -0.059000
     24 C23         1.0690   -0.6240    4.2530 ca        1 D13     -0.126500
     25 S24         0.7080    0.6840    8.0270 sx        1 D13      0.326400
     26 O24         1.9280   -0.0920    8.3880 o         1 D13     -0.510200
     27 C25        -0.6150   -0.1530    8.7840 c3        1 D13     -0.128800
     28 HN5         1.7200   -0.5700    1.4690 hn        1 D13      0.308700
     29 H7         -1.3610   -1.9400   -2.0220 ha        1 D13      0.152500
     30 H8         -3.2610   -1.9390   -3.6840 h4        1 D13      0.022600
     31 H10        -5.3080    0.9980   -1.5750 h4        1 D13      0.022600
     32 H11        -3.5070    1.1270    0.1850 ha        1 D13      0.152500
     33 H13        -0.0960    0.6570   -2.3460 ha        1 D13      0.161000
     34 H15         3.0570   -1.4980   -4.4060 ha        1 D13      0.149000
     35 H16         3.4840   -2.8250   -2.3490 ha        1 D13      0.142000
     36 H17         2.1400   -2.4290   -0.2930 ha        1 D13      0.136000
     37 H19        -1.7890    1.2270    3.8920 ha        1 D13      0.146000
     38 H20        -1.4040    1.5520    6.3200 ha        1 D13      0.150500
     39 H22         2.1380   -0.9090    6.1200 ha        1 D13      0.150500
     40 H23         1.7640   -1.2640    3.6910 ha        1 D13      0.146000
     41 H251       -0.6880    0.1940    9.8420 h1        1 D13      0.086367
     42 H252       -1.5800    0.0690    8.2750 h1        1 D13      0.086367
     43 H253       -0.4890   -1.2600    8.8100 h1        1 D13      0.086367
@<TRIPOS>BOND
     1    1    2 2   
     2    1    5 1   
     3    1   19 1   
     4    2    3 1   
     5    3    4 2   
     6    3    6 1   
     7    4    5 1   
     8    4   12 1   
     9    5   28 1   
    10    6    7 ar  
    11    6   11 ar  
    12    7    8 ar  
    13    7   29 1   
    14    8    9 ar  
    15    8   30 1   
    16    9   10 ar  
    17   10   11 ar  
    18   10   31 1   
    19   11   32 1   
    20   12   13 ar  
    21   12   18 ar  
    22   13   14 ar  
    23   13   33 1   
    24   14   15 1   
    25   14   16 ar  
    26   16   17 ar  
    27   16   34 1   
    28   17   18 ar  
    29   17   35 1   
    30   18   36 1   
    31   19   20 ar  
    32   19   24 ar  
    33   20   21 ar  
    34   20   37 1   
    35   21   22 ar  
    36   21   38 1   
    37   22   23 ar  
    38   22   25 1   
    39   23   24 ar  
    40   23   39 1   
    41   24   40 1   
    42   25   26 2   
    43   25   27 1   
    44   27   41 1   
    45   27   42 1   
    46   27   43 1   
@<TRIPOS>SUBSTRUCTURE
     1 D13         1 TEMP              0 ****  ****    0 ROOT
