@<TRIPOS>MOLECULE
D14
   69    67     1     0     0
SMALL
bcc


@<TRIPOS>ATOM
      1 C1         -0.0980   -0.1730    0.2180 c2        1 D14     -0.138000
      2 CL1         2.3890   -1.1260   -1.7820 cl        1 D14      0.233000
      3 C2          0.6580    1.0680    0.2040 c2        1 D14     -0.031000
      4 C3          0.5690    1.9210    1.2580 c2        1 D14     -0.158000
      5 C4         -0.2710    1.5920    2.3920 c2        1 D14      0.258000
      6 N5         -1.0400    0.4720    2.3740 n3        1 D14     -0.180000
      7 C6         -1.0180   -0.4410    1.3690 c1        1 D14      0.115000
      8 C7          0.5990   -1.6430   -4.4150 c1        1 D14      0.712000
      9 C8          0.1270   -1.4560   -3.1440 c2        1 D14     -0.567000
     10 C9          0.7440   -1.2300   -1.9230 c2        1 D14      0.223000
     11 C10        -0.0700   -1.1560   -0.7110 c2        1 D14     -0.032000
     12 C12         1.9280    0.5920    4.7090 c2        1 D14      0.306000
     13 N13         1.0670    0.7950    5.7520 n         1 D14     -0.392000
     14 C14         1.4850    0.6410    7.1200 c3        1 D14      0.022000
     15 O15         1.5580    0.7830    3.5230 o         1 D14     -0.464000
     16 C16         0.7980   -0.5760    7.8310 c3        1 D14     -0.083000
     17 C17         1.4420   -0.7970    9.2050 c3        1 D14     -0.178000
     18 C18         1.9860    0.4540    9.8930 c3        1 D14     -0.126000
     19 C19         1.4880    1.7300    9.3040 c2        1 D14     -0.126000
     20 C20         1.2460    1.8450    7.9930 c2        1 D14     -0.224000
     21 N26        -0.6920   -0.3650    7.9310 n4        1 D14     -0.104000
     22 C27        -1.4330   -0.6370    6.6420 c2        1 D14      0.288000
     23 C28        -2.5450    0.3540    6.3460 c2        1 D14      0.005000
     24 O29        -1.0780   -1.5840    5.9630 o         1 D14     -0.166000
     25 N30        -3.5550    0.2700    7.1380 n2        1 D14     -0.224000
     26 C31        -4.7820    0.9870    7.0730 c3        1 D14     -0.064000
     27 C32        -4.9400    2.1870    6.2030 c2        1 D14     -0.134000
     28 S33        -2.0870    1.3350    5.0720 s         1 D14     -0.618000
     29 C34        -6.0530    2.9420    6.1800 c2        1 D14     -0.133000
     30 N35        -7.2150    2.6830    6.9930 n3        1 D14     -0.214000
     31 C36        -7.2930    1.6850    7.8000 c1        1 D14      0.531000
     32 C37        -8.3220    3.6470    6.8410 c3        1 D14     -0.120000
     33 H3          1.1450    2.8620    1.3080 ha        1 D14      0.212000
     34 H6         -1.6470    0.2930    3.2010 hn        1 D14      0.348000
     35 H7          1.3000    1.3100   -0.6610 ha        1 D14      0.172000
     36 H8         -1.0070   -1.5200   -3.1420 ha        1 D14      0.270000
     37 H10        -0.7380   -2.0450   -0.5660 ha        1 D14      0.236000
     38 HN13        2.9580    0.2320    4.9490 h5        1 D14      0.185000
     39 H14        -0.3490    2.2790    3.2700 h4        1 D14      0.232000
     40 H16         0.9420   -1.5140    7.2120 hx        1 D14      0.167000
     41 H17         2.2970   -1.5160    9.0340 hc        1 D14      0.139500
     42 H17A        0.7280   -1.3160    9.9000 hc        1 D14      0.139500
     43 H18         1.6900    0.4070   10.9810 hc        1 D14      0.139000
     44 C24         3.5280    0.4630    9.7710 c2        1 D14      0.311000
     45 H19         2.6030    0.4020    7.1540 h1        1 D14      0.198000
     46 H19A        5.9640    1.8800   12.7740 ha        1 D14      0.142500
     47 H20         0.9300    2.7880    7.5240 ha        1 D14      0.166000
     48 H20A        1.3730    2.5780   10.0010 ha        1 D14      0.172000
     49 HN26       -1.0730   -1.0000    8.6450 hn        1 D14      0.261000
     50 H34        -4.0820    2.4520    5.5340 ha        1 D14      0.245000
     51 H34A       -6.1740    3.8340    5.5320 h4        1 D14      0.214000
     52 H36        -5.5740    0.2220    6.7760 h1        1 D14      0.135000
     53 H36A       -4.9950    1.2890    8.1530 h1        1 D14      0.135000
     54 H37        -7.9430    4.6700    7.1140 h1        1 D14      0.159000
     55 H37A       -8.6620    3.6320    5.7690 h1        1 D14      0.159000
     56 H37B       -9.1760    3.3650    7.5160 h1        1 D14      0.159000
     57 O3          4.0570    0.0190    8.7290 o         1 D14     -0.391000
     58 N6          4.2430    0.9850   10.8150 n         1 D14     -0.297000
     59 C25         5.6510    1.0280   10.8140 c2        1 D14     -0.065000
     60 C26         6.3830    1.4940   11.8350 c2        1 D14     -0.236000
     61 H24         4.1510    1.9900   14.4050 ha        1 D14      0.001000
     62 H25         3.8610    1.8830   13.8020 ha        1 D14      0.001000
     63 H26         6.1040    0.6380    9.8810 h4        1 D14      0.173000
     64 H27         1.9990    2.4860   12.8100 ha        1 D14      0.001000
     65 H28         1.7840    2.2760   12.2020 ha        1 D14      0.001000
     66 H29         7.4800    1.5030   11.7700 ha        1 D14      0.142500
     67 H132        0.1590    1.1980    5.5770 hn        1 D14      0.255000
     68 H262       -0.8700    0.6020    8.2310 hn        1 D14      0.261000
     69 H61         3.7650    1.3060   11.6300 hn        1 D14      0.242000
@<TRIPOS>BOND
     1    1    3 1   
     2    1    7 1   
     3    1   11 1   
     4    2   10 1   
     5    3    4 1   
     6    3   35 1   
     7    4    5 1   
     8    4   33 1   
     9    5    6 1   
    10    5   39 1   
    11    6    7 1   
    12    6   34 1   
    13    8    9 1   
    14    9   10 1   
    15    9   36 1   
    16   10   11 1   
    17   11   37 1   
    18   12   13 1   
    19   12   15 1   
    20   12   38 1   
    21   13   14 1   
    22   13   67 1   
    23   14   16 1   
    24   14   20 1   
    25   14   45 1   
    26   16   17 1   
    27   16   21 1   
    28   16   40 1   
    29   17   18 1   
    30   17   41 1   
    31   17   42 1   
    32   18   19 1   
    33   18   43 1   
    34   18   44 1   
    35   19   20 1   
    36   19   48 1   
    37   20   47 1   
    38   21   22 1   
    39   21   49 1   
    40   21   68 1   
    41   22   23 1   
    42   22   24 1   
    43   23   25 1   
    44   23   28 1   
    45   25   26 1   
    46   26   27 1   
    47   26   52 1   
    48   26   53 1   
    49   27   29 1   
    50   27   50 1   
    51   29   30 1   
    52   29   51 1   
    53   30   31 1   
    54   30   32 1   
    55   32   54 1   
    56   32   55 1   
    57   32   56 1   
    58   44   57 1   
    59   44   58 1   
    60   46   60 1   
    61   58   59 1   
    62   58   69 1   
    63   59   60 1   
    64   59   63 1   
    65   60   66 1   
    66   61   62 1   
    67   64   65 1   
@<TRIPOS>SUBSTRUCTURE
     1 D14         1 TEMP              0 ****  ****    0 ROOT
