@<TRIPOS>MOLECULE
D14
   66    70     1     0     0
SMALL
bcc


@<TRIPOS>ATOM
      1 C1         -5.2740    0.5100   -0.3050 ca        1 D14     -0.142300
      2 CL1        -9.0800    1.6890   -0.2650 cl        1 D14     -0.084400
      3 C2         -5.3990   -0.9020   -0.2550 ca        1 D14     -0.027000
      4 C3         -4.2110   -1.6830   -0.2540 ca        1 D14     -0.163300
      5 C4         -2.9800   -1.0420   -0.2940 ca        1 D14      0.344800
      6 N5         -2.8440    0.3300   -0.3470 nb        1 D14     -0.648000
      7 C6         -3.9460    1.0570   -0.3530 ca        1 D14      0.422200
      8 C7         -6.6960   -1.4790   -0.2100 ca        1 D14     -0.105000
      9 C8         -7.8140   -0.6800   -0.2130 ca        1 D14     -0.111000
     10 C9         -7.6760    0.7320   -0.2620 ca        1 D14      0.021400
     11 C10        -6.4320    1.3240   -0.3080 ca        1 D14     -0.102000
     12 C12        -1.7470   -1.9120   -0.3070 c         1 D14      0.572600
     13 N13        -0.5890   -1.4150    0.2350 n         1 D14     -0.547900
     14 C14         0.6140   -2.2150    0.2780 c3        1 D14      0.095700
     15 O15        -1.8170   -3.0670   -0.7810 o         1 D14     -0.623100
     16 C16         1.6770   -1.6300    1.2650 c3        1 D14      0.093700
     17 C17         2.8320   -2.6380    1.3550 c3        1 D14     -0.082400
     18 C18         3.4540   -2.9410   -0.0010 c3        1 D14     -0.129700
     19 C19         2.4000   -3.4260   -0.9860 c3        1 D14     -0.074400
     20 C20         1.2540   -2.4450   -1.1000 c3        1 D14     -0.099400
     21 N26         2.1320   -0.3030    0.9190 n         1 D14     -0.542900
     22 C27         1.5190    0.8280    1.4010 c         1 D14      0.597600
     23 C28         2.0750    2.1520    1.0160 cc        1 D14      0.262900
     24 O29         0.5230    0.7640    2.1580 o         1 D14     -0.630100
     25 N30         3.0890    2.3350    0.1340 nd        1 D14     -0.586000
     26 C31         3.3120    3.6720    0.0390 cd        1 D14      0.303600
     27 C32         2.4740    4.5000    0.8420 cc        1 D14     -0.308700
     28 S33         1.4300    3.5910    1.6950 ss        1 D14      0.178700
     29 C34         2.8670    5.9260    0.6190 c3        1 D14      0.249100
     30 N35         3.9520    5.9250   -0.3920 n3        1 D14     -0.714600
     31 C36         4.2770    4.5220   -0.7370 c3        1 D14      0.131500
     32 C37         3.6560    6.7410   -1.5450 c3        1 D14      0.142100
     33 H3         -4.2670   -2.7820   -0.2330 ha        1 D14      0.171000
     34 H6         -3.8140    2.1540   -0.3980 h4        1 D14      0.026100
     35 H7         -6.7880   -2.5760   -0.1730 ha        1 D14      0.148000
     36 H8         -8.8210   -1.1230   -0.1780 ha        1 D14      0.153000
     37 H10        -6.3190    2.4180   -0.3460 ha        1 D14      0.152000
     38 HN13       -0.5660   -0.4970    0.6180 hn        1 D14      0.347500
     39 H14         0.3260   -3.2350    0.6850 h1        1 D14      0.074700
     40 H16         1.1950   -1.5630    2.2900 h1        1 D14      0.090700
     41 H17         3.6230   -2.2550    2.0510 hc        1 D14      0.074700
     42 H17A        2.4300   -3.5890    1.7970 hc        1 D14      0.074700
     43 H18         3.9330   -2.0040   -0.4000 hc        1 D14      0.058700
     44 C24         4.5090   -4.0340    0.1750 c         1 D14      0.661100
     45 H19         2.8650   -3.5720   -1.9960 hc        1 D14      0.057700
     46 H19A        2.0100   -4.4230   -0.6460 hc        1 D14      0.057700
     47 H20         0.4790   -2.8660   -1.7970 hc        1 D14      0.060700
     48 H20A        1.6120   -1.4770   -1.5360 hc        1 D14      0.060700
     49 HN26        2.8590   -0.2260    0.2470 hn        1 D14      0.331500
     50 H34         1.9840    6.5440    0.2980 h1        1 D14      0.062700
     51 H34A        3.2950    6.3740    1.5580 h1        1 D14      0.062700
     52 H36         5.3330    4.3290   -0.4020 h1        1 D14      0.069700
     53 H36A        4.2040    4.3150   -1.8390 h1        1 D14      0.069700
     54 H37         3.4800    7.7940   -1.2000 h1        1 D14      0.037367
     55 H37A        4.5480    6.7310   -2.2260 h1        1 D14      0.037367
     56 H37B        2.7580    6.4010   -2.1290 h1        1 D14      0.037367
     57 O3          4.3770   -4.9060    1.0570 o         1 D14     -0.609100
     58 N6          5.6040   -4.0660   -0.6770 n         1 D14     -0.479800
     59 C25         6.6310   -5.0560   -0.5050 c3        1 D14      0.079800
     60 C26         5.8380   -3.0470   -1.6570 c3        1 D14      0.079800
     61 H24         6.7810   -5.6160   -1.4680 h1        1 D14      0.042867
     62 H25         7.6000   -4.5650   -0.2190 h1        1 D14      0.042867
     63 H26         6.3400   -5.7850    0.2980 h1        1 D14      0.042867
     64 H27         4.9160   -2.8750   -2.2760 h1        1 D14      0.042867
     65 H28         6.1300   -2.0770   -1.1690 h1        1 D14      0.042867
     66 H29         6.6700   -3.3630   -2.3410 h1        1 D14      0.042867
@<TRIPOS>BOND
     1    1    3 ar  
     2    1    7 ar  
     3    1   11 ar  
     4    2   10 1   
     5    3    4 ar  
     6    3    8 ar  
     7    4    5 ar  
     8    4   33 1   
     9    5    6 ar  
    10    5   12 1   
    11    6    7 ar  
    12    7   34 1   
    13    8    9 ar  
    14    8   35 1   
    15    9   10 ar  
    16    9   36 1   
    17   10   11 ar  
    18   11   37 1   
    19   12   13 1   
    20   12   15 2   
    21   13   14 1   
    22   13   38 1   
    23   14   16 1   
    24   14   20 1   
    25   14   39 1   
    26   16   17 1   
    27   16   21 1   
    28   16   40 1   
    29   17   18 1   
    30   17   41 1   
    31   17   42 1   
    32   18   19 1   
    33   18   43 1   
    34   18   44 1   
    35   19   20 1   
    36   19   45 1   
    37   19   46 1   
    38   20   47 1   
    39   20   48 1   
    40   21   22 1   
    41   21   49 1   
    42   22   23 1   
    43   22   24 2   
    44   23   25 2   
    45   23   28 1   
    46   25   26 1   
    47   26   27 2   
    48   26   31 1   
    49   27   28 1   
    50   27   29 1   
    51   29   30 1   
    52   29   50 1   
    53   29   51 1   
    54   30   31 1   
    55   30   32 1   
    56   31   52 1   
    57   31   53 1   
    58   32   54 1   
    59   32   55 1   
    60   32   56 1   
    61   44   57 2   
    62   44   58 1   
    63   58   59 1   
    64   58   60 1   
    65   59   61 1   
    66   59   62 1   
    67   59   63 1   
    68   60   64 1   
    69   60   65 1   
    70   60   66 1   
@<TRIPOS>SUBSTRUCTURE
     1 D14         1 TEMP              0 ****  ****    0 ROOT
