@<TRIPOS>MOLECULE
D14
   66    64     1     0     0
SMALL
bcc


@<TRIPOS>ATOM
      1 C1         -0.1640   -0.9300   -6.3200 c1        1 D14     -0.077000
      2 CL1        -1.0610   -1.4670  -10.1810 cl        1 D14     -0.006000
      3 C2          1.1430   -1.2610   -6.2810 c1        1 D14     -0.027000
      4 C3          1.8380   -1.2320   -5.0670 c1        1 D14     -0.097000
      5 C4          1.1870   -0.8650   -3.9090 c1        1 D14     -0.073000
      6 N5         -0.1550   -0.5260   -3.9490 n1        1 D14     -0.123000
      7 C6         -0.8310   -0.5560   -5.1390 c1        1 D14     -0.043000
      8 C7          1.8080   -1.6190   -7.4520 c2        1 D14     -0.104000
      9 C8          1.1240   -1.6360   -8.6680 c1        1 D14     -0.111000
     10 C9         -0.2160   -1.2970   -8.7090 c1        1 D14     -0.057000
     11 C10        -0.8680   -0.9450   -7.5550 c2        1 D14     -0.103000
     12 C12         2.0790   -0.7300   -2.6720 c2        1 D14      0.356000
     13 N13         1.5050   -0.3550   -1.4240 n         1 D14     -0.358000
     14 C14         2.3530   -0.3740   -0.1620 c3        1 D14      0.018000
     15 O15         3.3100   -1.0850   -2.7300 o         1 D14     -0.382000
     16 C16         1.5860   -1.0480    0.9230 c3        1 D14      0.017000
     17 C17         2.2690   -0.9600    2.2700 c3        1 D14     -0.162000
     18 C18         2.6440    0.4740    2.6640 c3        1 D14     -0.119000
     19 C19         3.4340    1.1170    1.5020 c3        1 D14     -0.153000
     20 C20         2.7250    0.9910    0.1590 c3        1 D14     -0.179000
     21 N26         0.2420   -0.4200    1.0200 n         1 D14     -0.353000
     22 C27        -0.8730   -1.1780    1.5430 c2        1 D14      0.381000
     23 C28        -2.2650   -0.5790    1.5330 c2        1 D14     -0.406000
     24 O29        -0.7110   -2.3090    1.8980 o         1 D14     -0.389000
     25 N30        -3.2010   -1.4060    2.2100 n2        1 D14     -0.060000
     26 C31        -4.5970   -0.6650    2.2300 c1        1 D14     -0.119000
     27 C32        -4.4540    0.5840    1.5640 c1        1 D14     -0.505000
     28 S33        -2.9960    0.7040    1.0950 ss        1 D14      0.764000
     29 C34        -5.8300    1.2380    1.5010 c2        1 D14     -0.003000
     30 N35        -6.7960    0.2810    1.9680 n3        1 D14     -0.240000
     31 C36        -6.0630   -0.8820    2.4900 c2        1 D14     -0.003000
     32 C37        -7.5840    0.8700    3.0320 c3        1 D14     -0.134000
     33 H3          2.7740   -1.4700   -5.0400 ha        1 D14      0.171000
     34 H6         -1.7950   -0.3120   -5.1710 ha        1 D14      0.163000
     35 H7          2.7780   -1.8630   -7.4190 ha        1 D14      0.148000
     36 H8          1.6130   -1.8820   -9.5190 ha        1 D14      0.153000
     37 H10        -1.7810   -0.8080   -7.5650 ha        1 D14      0.152000
     38 HN13        0.5650   -0.0160   -1.3910 hn        1 D14      0.259000
     39 H14         3.2220   -0.9240   -0.3480 h1        1 D14      0.115000
     40 H16         1.4730   -2.0360    0.6780 h1        1 D14      0.130000
     41 H17         3.0830   -1.5040    2.2450 hc        1 D14      0.106000
     42 H17A        1.6780   -1.3170    2.9350 hc        1 D14      0.106000
     43 H18         1.8460    1.0220    2.9400 hc        1 D14      0.098000
     44 C24         3.4710    0.4890    3.9670 c2        1 D14      0.304000
     45 H19         3.5660    2.0780    1.7000 hc        1 D14      0.105000
     46 H19A        4.3330    0.6740    1.4350 hc        1 D14      0.105000
     47 H20         1.9310    1.5280    0.1800 hc        1 D14      0.099500
     48 H20A        3.3320    1.3370   -0.5620 hc        1 D14      0.099500
     49 HN26        0.1510    0.4410    0.8720 hn        1 D14      0.245000
     50 H34        -6.0340    1.4910    0.5850 h4        1 D14      0.106000
     51 H34A       -5.8460    2.0100    2.0590 h4        1 D14      0.106000
     52 H36        -6.3710   -1.7180    2.0190 h4        1 D14      0.106000
     53 H36A       -6.2220   -0.9670    3.4600 h4        1 D14      0.106000
     54 H37        -6.9740    1.3980    3.6510 h1        1 D14      0.077333
     55 H37A       -8.2920    1.5010    2.6280 h1        1 D14      0.077333
     56 H37B       -7.9990    0.2100    3.5030 h1        1 D14      0.077333
     57 O3          4.2480   -0.4400    4.2180 o         1 D14     -0.366000
     58 N6          3.4060    1.6090    4.8350 n         1 D14     -0.340000
     59 C25         4.5600    2.4660    4.9820 c3        1 D14     -0.076000
     60 C26         2.2600    1.7500    5.7640 c3        1 D14     -0.076000
     61 H24         4.2740    3.3560    5.4090 h1        1 D14      0.082000
     62 H25         5.2340    2.0170    5.5670 h1        1 D14      0.082000
     63 H26         4.9430    2.6340    4.1260 h1        1 D14      0.082000
     64 H27         2.1670    0.9200    6.3090 h1        1 D14      0.082000
     65 H28         2.4080    2.4860    6.3340 h1        1 D14      0.082000
     66 H29         1.4170    1.9020    5.2350 h1        1 D14      0.082000
@<TRIPOS>BOND
     1    1    7 1   
     2    1   11 1   
     3    2   10 1   
     4    3    4 1   
     5    3    8 1   
     6    4   33 1   
     7    5    6 1   
     8    5   12 1   
     9    7   34 1   
    10    8    9 1   
    11    8   35 1   
    12    9   36 1   
    13   10   11 1   
    14   11   37 1   
    15   12   13 1   
    16   12   15 1   
    17   13   14 1   
    18   13   38 1   
    19   14   16 1   
    20   14   20 1   
    21   14   39 1   
    22   16   17 1   
    23   16   21 1   
    24   16   40 1   
    25   17   18 1   
    26   17   41 1   
    27   17   42 1   
    28   18   19 1   
    29   18   43 1   
    30   18   44 1   
    31   19   20 1   
    32   19   45 1   
    33   19   46 1   
    34   20   47 1   
    35   20   48 1   
    36   21   22 1   
    37   21   49 1   
    38   22   23 1   
    39   22   24 1   
    40   23   25 1   
    41   23   28 1   
    42   25   26 1   
    43   26   27 1   
    44   27   28 1   
    45   29   30 1   
    46   29   50 1   
    47   29   51 1   
    48   30   31 1   
    49   30   32 1   
    50   31   52 1   
    51   31   53 1   
    52   32   54 1   
    53   32   55 1   
    54   32   56 1   
    55   44   57 1   
    56   44   58 1   
    57   58   59 1   
    58   58   60 1   
    59   59   61 1   
    60   59   62 1   
    61   59   63 1   
    62   60   64 1   
    63   60   65 1   
    64   60   66 1   
@<TRIPOS>SUBSTRUCTURE
     1 D14         1 TEMP              0 ****  ****    0 ROOT
