@<TRIPOS>MOLECULE
D14
   69    68     1     0     0
SMALL
bcc


@<TRIPOS>ATOM
      1 C1         86.1700  -14.3160 -187.5080 c2        1 D14     -0.024000
      2 CL1        83.6640  -13.9970 -184.3850 cl        1 D14      0.045000
      3 C2         86.4300  -13.1180 -188.1470 c2        1 D14     -0.127000
      4 C3         87.0450  -13.1150 -189.4300 c2        1 D14     -0.064000
      5 C4         87.4170  -14.3190 -190.0100 c2        1 D14     -0.179000
      6 N5         87.2120  -15.5300 -189.3070 n3        1 D14     -0.102000
      7 C6         86.6270  -15.5590 -188.1140 c1        1 D14     -0.026000
      8 C7         84.1130  -12.1840 -187.8330 c1        1 D14      0.192000
      9 C8         83.6550  -12.8310 -186.7770 c2        1 D14     -0.438000
     10 C9         84.3600  -13.7490 -185.9130 c2        1 D14      0.043000
     11 C10        85.4780  -14.4350 -186.2500 c2        1 D14     -0.161000
     12 C12        87.1970  -15.1880 -192.2900 c2        1 D14      0.227000
     13 N13        88.0320  -14.3400 -191.3520 n4        1 D14     -0.080000
     14 C14       -14.1070    3.0650   38.1590 cu        1 D14     -0.195000
     15 O15        87.4700  -16.3690 -192.3520 o         1 D14     -0.135000
     16 C16       -44.3240    7.3320  107.6080 c3        1 D14     -0.029000
     17 C17       -44.3820    7.3860  106.1110 c2        1 D14      0.013000
     18 C18       -43.3950    6.8610  105.3560 c2        1 D14     -0.291000
     19 C19       -12.8310    3.8030   38.3690 cx        1 D14     -0.163000
     20 C20       -13.0120    2.3330   38.2110 cu        1 D14     -0.195000
     21 N26       -45.4280    7.9640  108.2760 n         1 D14     -0.353000
     22 C27       -45.2970    9.2130  108.8370 c2        1 D14      0.336000
     23 C28       -46.4640    9.7810  109.6430 c2        1 D14     -0.130000
     24 O29       -44.2720    9.9020  108.6840 o         1 D14     -0.338000
     25 N30       -47.1790    8.9730  110.3480 n2        1 D14     -0.171000
     26 C31       -48.2560    9.3450  111.2050 c3        1 D14     -0.068000
     27 C32       -48.7100   10.7660  111.2730 c2        1 D14     -0.128000
     28 S33       -46.6790   11.4860  109.5370 sh        1 D14      0.088000
     29 C34       -48.9070   11.4810  112.3940 c2        1 D14     -0.114000
     30 N35       -48.6290   11.0010  113.7240 n3        1 D14     -0.213000
     31 C36       -48.2280    9.8050  113.9760 c1        1 D14      0.522000
     32 C37       -48.8360   11.9890  114.8010 c3        1 D14     -0.118000
     33 H3         87.2050  -12.1460 -189.9310 ha        1 D14      0.168000
     34 H6         87.5150  -16.3970 -189.7090 hn        1 D14      0.281000
     35 H7         86.2450  -12.1330 -187.6740 ha        1 D14      0.191000
     36 H8         82.5830  -12.6430 -186.5220 ha        1 D14      0.228000
     37 H10        85.8910  -15.2010 -185.5640 ha        1 D14      0.192000
     38 HN13       86.4010  -14.6090 -192.8090 hx        1 D14      0.240000
     39 H14        88.0940  -13.3770 -191.7050 hn        1 D14      0.264500
     40 H16       -44.2850    6.2450  107.9220 h1        1 D14      0.146000
     41 H17       -45.2580    7.8750  105.6410 ha        1 D14      0.173000
     42 H17A      -43.3570    7.8250  107.9400 h1        1 D14      0.146000
     43 H18       -42.5170    6.3770  105.8150 ha        1 D14      0.167000
     44 C24       -43.4760    6.9320  103.9020 c2        1 D14      0.300000
     45 H19       -15.1650    3.1730   38.0530 ha        1 D14      0.187000
     46 H19A      -12.3910    4.4030   37.5510 hc        1 D14      0.090000
     47 H20       -12.5030    1.3930   38.1770 ha        1 D14      0.187000
     48 H20A      -12.5890    4.2330   39.3590 hc        1 D14      0.090000
     49 HN26      -45.5440   11.8550  108.9220 hs        1 D14      0.112000
     50 H34       -48.9690   11.2480  110.3030 ha        1 D14      0.216000
     51 H34A      -49.3060   12.5170  112.3880 h4        1 D14      0.215000
     52 H36       -49.1490    8.7160  110.8850 h1        1 D14      0.137000
     53 H36A      -47.9510    8.9510  112.2400 h1        1 D14      0.137000
     54 H37       -48.1700   12.8730  114.6050 h1        1 D14      0.156333
     55 H37A      -49.9160   12.3050  114.7910 h1        1 D14      0.156333
     56 H37B      -48.5820   11.5320  115.7960 h1        1 D14      0.156333
     57 O3        -44.3820    7.3860  103.2140 o         1 D14     -0.189000
     58 N6        -42.2790    6.3700  103.1380 n4        1 D14     -0.064000
     59 C25       -42.7140    5.2470  102.2650 c3        1 D14     -0.193500
     60 C26       -41.6380    7.4480  102.3390 c3        1 D14     -0.193500
     61 H24       -43.1390    4.4260  102.9020 hx        1 D14      0.151500
     62 H25       -43.5000    5.6170  101.5510 hx        1 D14      0.151500
     63 H26       -41.8320    4.8610  101.6870 hx        1 D14      0.151500
     64 H27       -41.2700    8.2530  103.0300 hx        1 D14      0.151500
     65 H28       -40.7740    7.0210  101.7610 hx        1 D14      0.151500
     66 H29       -42.3930    7.8780  101.6250 hx        1 D14      0.151500
     67 H132       88.9860  -14.7240 -191.2720 hn        1 D14      0.264500
     68 H262      -46.2340    7.4120  108.4630 hn        1 D14      0.260000
     69 H61       -41.5930    6.0130  103.8140 hn        1 D14      0.249000
@<TRIPOS>BOND
     1    1    3 1   
     2    1    7 1   
     3    1   11 1   
     4    2   10 1   
     5    3    4 1   
     6    3   35 1   
     7    4    5 1   
     8    4   33 1   
     9    5    6 1   
    10    5   13 1   
    11    6    7 1   
    12    6   34 1   
    13    8    9 1   
    14    9   10 1   
    15    9   36 1   
    16   10   11 1   
    17   11   37 1   
    18   12   13 1   
    19   12   15 1   
    20   12   38 1   
    21   13   39 1   
    22   13   67 1   
    23   14   19 1   
    24   14   20 1   
    25   14   45 1   
    26   16   17 1   
    27   16   21 1   
    28   16   40 1   
    29   16   42 1   
    30   17   18 1   
    31   17   41 1   
    32   18   43 1   
    33   18   44 1   
    34   19   20 1   
    35   19   46 1   
    36   19   48 1   
    37   20   47 1   
    38   21   22 1   
    39   21   68 1   
    40   22   23 1   
    41   22   24 1   
    42   23   25 1   
    43   23   28 1   
    44   25   26 1   
    45   26   27 1   
    46   26   52 1   
    47   26   53 1   
    48   27   29 1   
    49   27   50 1   
    50   28   49 1   
    51   29   30 1   
    52   29   51 1   
    53   30   31 1   
    54   30   32 1   
    55   32   54 1   
    56   32   55 1   
    57   32   56 1   
    58   44   57 1   
    59   44   58 1   
    60   58   59 1   
    61   58   60 1   
    62   58   69 1   
    63   59   61 1   
    64   59   62 1   
    65   59   63 1   
    66   60   64 1   
    67   60   65 1   
    68   60   66 1   
@<TRIPOS>SUBSTRUCTURE
     1 D14         1 TEMP              0 ****  ****    0 ROOT
