@<TRIPOS>MOLECULE
D15
   55    58     1     0     0
SMALL
bcc


@<TRIPOS>ATOM
      1 CAO        -1.9000   -0.0420   -0.5520 ca        1 D15     -0.125000
      2 CAY        -1.7220   -0.3420   -1.9060 ca        1 D15      0.018400
      3 Cl1        -3.0460   -0.2630   -2.9600 cl        1 D15     -0.053400
      4 CAI        -0.4600   -0.7000   -2.3940 ca        1 D15     -0.105000
      5 CAH         0.6220   -0.7580   -1.5180 ca        1 D15     -0.113000
      6 CAL         0.4510   -0.4680   -0.1650 ca        1 D15     -0.137000
      7 CBB        -0.8110   -0.1130    0.3250 ca        1 D15     -0.129300
      8 CBF        -0.9900    0.2020    1.7740 c3        1 D15     -0.089400
      9 CAR        -1.9250   -0.7890    2.4600 c3        1 D15     -0.103400
     10 CAQ        -1.2890   -2.1700    2.4980 c3        1 D15      0.099800
     11 NAA        -2.2150   -3.1930    3.0720 nz        1 D15     -0.837600
     12 CAX        -1.5760    1.6150    1.9790 c         1 D15      0.665100
     13 OAC        -2.6130    1.7530    2.6570 o         1 D15     -0.599100
     14 NAT        -0.8650    2.6480    1.4210 ns        1 D15     -0.441100
     15 CAZ        -1.1850    4.0210    1.5480 ca        1 D15     -0.009400
     16 CAP        -1.8380    4.5170    2.6860 ca        1 D15     -0.037000
     17 CBE        -2.0770    5.8840    2.7640 ca        1 D15     -0.183900
     18 CAM        -0.7800    4.9000    0.5000 ca        1 D15     -0.121000
     19 CAN        -1.0000    6.2620    0.5690 ca        1 D15     -0.123000
     20 CBD        -1.6530    6.7650    1.7040 ca        1 D15     -0.054200
     21 NAV        -1.9760    8.0690    2.1110 na        1 D15      0.002900
     22 NAS        -2.6310    8.0780    3.2770 nc        1 D15     -0.548100
     23 CBC        -2.7020    6.7880    3.7440 cd        1 D15      0.410500
     24 NAU        -3.3300    6.4330    4.9390 ns        1 D15     -0.451400
     25 CAW        -2.8310    5.4960    5.8470 c         1 D15      0.683700
     26 OAB        -1.8690    4.7530    5.5860 o         1 D15     -0.584100
     27 CBA        -3.5480    5.4200    7.1530 ca        1 D15     -0.154600
     28 CAJ        -2.7830    5.2640    8.3150 ca        1 D15     -0.091000
     29 CAF        -3.4140    5.1840    9.5550 ca        1 D15     -0.136000
     30 CAE        -4.8050    5.2490    9.6370 ca        1 D15     -0.102000
     31 CAG        -5.5680    5.3910    8.4770 ca        1 D15     -0.136000
     32 CAK        -4.9430    5.4790    7.2340 ca        1 D15     -0.091000
     33 HAO        -2.8890    0.2730   -0.1780 ha        1 D15      0.159000
     34 HAI        -0.3210   -0.9260   -3.4640 ha        1 D15      0.167000
     35 HAH         1.6200   -1.0270   -1.9000 ha        1 D15      0.156000
     36 HAL         1.3190   -0.5030    0.5130 ha        1 D15      0.140000
     37 HBF         0.0110    0.1780    2.2960 hc        1 D15      0.084700
     38 HAR1       -2.9010   -0.8070    1.9030 hc        1 D15      0.091700
     39 HAR2       -2.1380   -0.4180    3.5010 hc        1 D15      0.091700
     40 HAQ1       -0.3580   -2.1560    3.1350 hx        1 D15      0.114700
     41 HAQ2       -1.0120   -2.4980    1.4530 hx        1 D15      0.114700
     42 HAA1       -3.0650   -3.2550    2.5010 hn        1 D15      0.461800
     43 HAA2       -2.4840   -2.9260    4.0250 hn        1 D15      0.461800
     44 HAT        -0.1250    2.4260    0.7930 hn        1 D15      0.325500
     45 HAP        -2.1500    3.8550    3.5130 ha        1 D15      0.185000
     46 HAM        -0.2730    4.4930   -0.3900 ha        1 D15      0.134000
     47 HAN        -0.6720    6.9300   -0.2400 ha        1 D15      0.149000
     48 HAV        -2.0630    8.8560    1.5080 hn        1 D15      0.325700
     49 HAU        -3.9730    7.1060    5.3040 hn        1 D15      0.331500
     50 HAJ        -1.6850    5.2020    8.2380 ha        1 D15      0.147000
     51 HAK        -5.5550    5.5800    6.3240 ha        1 D15      0.147000
     52 HAF        -2.8120    5.0700   10.4690 ha        1 D15      0.142500
     53 HAE        -5.3020    5.1890   10.6180 ha        1 D15      0.142000
     54 HAG        -6.6650    5.4370    8.5420 ha        1 D15      0.142500
     55 HAA3       -1.7580   -4.1090    3.0960 hn        1 D15      0.461800
@<TRIPOS>BOND
     1    1    2 ar  
     2    1    7 ar  
     3    1   33 1   
     4    2    3 1   
     5    2    4 ar  
     6    4    5 ar  
     7    4   34 1   
     8    5    6 ar  
     9    5   35 1   
    10    6    7 ar  
    11    6   36 1   
    12    7    8 1   
    13    8    9 1   
    14    8   12 1   
    15    8   37 1   
    16    9   10 1   
    17    9   38 1   
    18    9   39 1   
    19   10   11 1   
    20   10   40 1   
    21   10   41 1   
    22   11   42 1   
    23   11   43 1   
    24   11   55 1   
    25   12   13 2   
    26   12   14 1   
    27   14   15 1   
    28   14   44 1   
    29   15   16 ar  
    30   15   18 ar  
    31   16   17 ar  
    32   16   45 1   
    33   17   20 ar  
    34   17   23 1   
    35   18   19 ar  
    36   18   46 1   
    37   19   20 ar  
    38   19   47 1   
    39   20   21 1   
    40   21   22 1   
    41   21   48 1   
    42   22   23 2   
    43   23   24 1   
    44   24   25 1   
    45   24   49 1   
    46   25   26 2   
    47   25   27 1   
    48   27   28 ar  
    49   27   32 ar  
    50   28   29 ar  
    51   28   50 1   
    52   29   30 ar  
    53   29   52 1   
    54   30   31 ar  
    55   30   53 1   
    56   31   32 ar  
    57   31   54 1   
    58   32   51 1   
@<TRIPOS>SUBSTRUCTURE
     1 D15         1 TEMP              0 ****  ****    0 ROOT
