@<TRIPOS>MOLECULE
D15
   57    60     1     0     0
SMALL
bcc


@<TRIPOS>ATOM
      1 CAO        -0.5770    0.4890   -0.4520 ca        1 D15     -0.170000
      2 CAY         0.6610    0.6780   -1.0710 ca        1 D15      0.022400
      3 CL1         0.7760    1.6830   -2.4200 cl        1 D15     -0.000400
      4 CAI         1.8050    0.0300   -0.5740 ca        1 D15     -0.069000
      5 CAH         1.6960   -0.7970    0.5420 ca        1 D15     -0.093000
      6 CAL         0.4610   -0.9880    1.1660 ca        1 D15     -0.121000
      7 CBB        -0.6800   -0.3470    0.6690 ca        1 D15     -0.207300
      8 CBF        -2.0070   -0.5860    1.3110 c3        1 D15     -0.055400
      9 CAR        -2.9750   -1.3160    0.3740 c3        1 D15     -0.107400
     10 CAQ        -2.5010   -2.7520    0.1640 c3        1 D15      0.101800
     11 NAA        -3.3110   -3.4980   -0.8410 n4        1 D15     -0.835600
     12 CAX        -2.6640    0.7060    1.7800 c         1 D15      0.534100
     13 OAC        -3.8580    0.9450    1.8150 o         1 D15     -0.382100
     14 NAT        -1.7150    1.7680    2.3090 n4        1 D15     -0.539200
     15 CAZ        -2.2610    3.1300    2.3280 ca        1 D15     -0.051400
     16 CAP        -2.8160    3.6430    3.5050 ca        1 D15     -0.020000
     17 CBE        -3.2780    4.9590    3.4820 ca        1 D15     -0.176900
     18 CAM        -2.1730    3.9060    1.1350 ca        1 D15     -0.087000
     19 CAN        -2.6200    5.2110    1.0970 ca        1 D15     -0.063000
     20 CBD        -3.1730    5.7490    2.2740 ca        1 D15     -0.014200
     21 NAV        -3.6920    7.0150    2.5800 na        1 D15      0.061900
     22 NAS        -4.1080    7.1000    3.8270 nc        1 D15     -0.398100
     23 CBC        -3.8890    5.8840    4.4350 cd        1 D15      0.352800
     24 NAU        -4.2440    5.6020    5.8090 n4        1 D15     -0.598800
     25 CAW        -3.0020    5.3380    6.6960 c         1 D15      0.617700
     26 OAB        -2.5270    4.2230    6.5210 o         1 D15     -0.478100
     27 CBA        -2.6390    6.3870    7.6260 ca        1 D15     -0.225600
     28 CAJ        -1.8980    5.9920    8.7610 ca        1 D15     -0.056500
     29 CAF        -1.5170    6.9420    9.7040 ca        1 D15     -0.121500
     30 CAE        -1.8560    8.2850    9.5250 ca        1 D15     -0.018000
     31 CAG        -2.5760    8.6810    8.3910 ca        1 D15     -0.121500
     32 CAK        -2.9680    7.7440    7.4440 ca        1 D15     -0.056500
     33 HAO        -1.4740    0.9810   -0.8630 ha        1 D15      0.143000
     34 HAI         2.7840    0.1730   -1.0690 ha        1 D15      0.199000
     35 HAH         2.5940   -1.3080    0.9340 ha        1 D15      0.188000
     36 HAL         0.3980   -1.6490    2.0460 ha        1 D15      0.153000
     37 HBF        -1.8700   -1.2110    2.2470 hc        1 D15      0.118700
     38 HAR1       -4.0060   -1.3080    0.8230 hc        1 D15      0.095200
     39 HAR2       -3.0200   -0.7680   -0.6060 hc        1 D15      0.095200
     40 HAQ1       -2.5570   -3.3250    1.1370 hx        1 D15      0.125700
     41 HAQ2       -1.4250   -2.7500   -0.1900 hx        1 D15      0.125700
     42 HAA1       -4.2960   -3.5440   -0.5520 hn        1 D15      0.476133
     43 HAA2       -2.9490   -4.4580   -0.9320 hn        1 D15      0.476133
     44 HAT        -1.4420    1.5050    3.2660 hn        1 D15      0.479800
     45 HAP        -2.8760    3.0590    4.4410 ha        1 D15      0.178000
     46 HAM        -1.7320    3.4720    0.2200 ha        1 D15      0.169000
     47 HAN        -2.5420    5.8130    0.1740 ha        1 D15      0.200000
     48 HAV        -3.7740    7.8100    1.9670 hn        1 D15      0.388700
     49 HAU        -4.7840    6.3860    6.2100 hn        1 D15      0.478300
     50 HAJ        -1.6280    4.9310    8.9000 ha        1 D15      0.151500
     51 HAK        -3.5050    8.0960    6.5490 ha        1 D15      0.151500
     52 HAF        -0.9440    6.6300   10.5950 ha        1 D15      0.182500
     53 HAE        -1.5540    9.0370   10.2770 ha        1 D15      0.186000
     54 HAG        -2.8300    9.7470    8.2490 ha        1 D15      0.182500
     55 HAA3       -3.2600   -3.0400   -1.7590 hn        1 D15      0.476133
     56 HAT2       -0.8660    1.7640    1.7160 hn        1 D15      0.479800
     57 HAU2       -4.8370    4.7600    5.8090 hn        1 D15      0.478300
@<TRIPOS>BOND
     1    1    2 ar  
     2    1    7 ar  
     3    1   33 1   
     4    2    3 1   
     5    2    4 ar  
     6    4    5 ar  
     7    4   34 1   
     8    5    6 ar  
     9    5   35 1   
    10    6    7 ar  
    11    6   36 1   
    12    7    8 1   
    13    8    9 1   
    14    8   12 1   
    15    8   37 1   
    16    9   10 1   
    17    9   38 1   
    18    9   39 1   
    19   10   11 1   
    20   10   40 1   
    21   10   41 1   
    22   11   42 1   
    23   11   43 1   
    24   11   55 1   
    25   12   13 2   
    26   12   14 1   
    27   14   15 1   
    28   14   44 1   
    29   14   56 1   
    30   15   16 ar  
    31   15   18 ar  
    32   16   17 ar  
    33   16   45 1   
    34   17   20 ar  
    35   17   23 1   
    36   18   19 ar  
    37   18   46 1   
    38   19   20 ar  
    39   19   47 1   
    40   20   21 1   
    41   21   22 1   
    42   21   48 1   
    43   22   23 2   
    44   23   24 1   
    45   24   25 1   
    46   24   49 1   
    47   24   57 1   
    48   25   26 2   
    49   25   27 1   
    50   27   28 ar  
    51   27   32 ar  
    52   28   29 ar  
    53   28   50 1   
    54   29   30 ar  
    55   29   52 1   
    56   30   31 ar  
    57   30   53 1   
    58   31   32 ar  
    59   31   54 1   
    60   32   51 1   
@<TRIPOS>SUBSTRUCTURE
     1 D15         1 TEMP              0 ****  ****    0 ROOT
