@<TRIPOS>MOLECULE
D15
   55    58     1     0     0
SMALL
bcc


@<TRIPOS>ATOM
      1 CAO        -1.8870   -0.0600   -0.5500 ca        1 D15     -0.125000
      2 CAY        -1.6940   -0.3620   -1.9010 ca        1 D15      0.018400
      3 CL1        -3.0040   -0.2820   -2.9710 cl        1 D15     -0.053400
      4 CAI        -0.4260   -0.7240   -2.3730 ca        1 D15     -0.105000
      5 CAH         0.6450   -0.7820   -1.4840 ca        1 D15     -0.113000
      6 CAL         0.4580   -0.4900   -0.1330 ca        1 D15     -0.137000
      7 CBB        -0.8090   -0.1320    0.3400 ca        1 D15     -0.129300
      8 CBF        -1.0050    0.1850    1.7860 c3        1 D15     -0.089400
      9 CAR        -1.9520   -0.8020    2.4620 c3        1 D15     -0.103400
     10 CAQ        -1.3220   -2.1860    2.5090 c3        1 D15      0.099800
     11 NAA        -2.2570   -3.2050    3.0750 n4        1 D15     -0.837600
     12 CAX        -1.5890    1.6000    1.9840 c         1 D15      0.665100
     13 OAC        -2.6310    1.7430    2.6520 o         1 D15     -0.599100
     14 NAT        -0.8700    2.6290    1.4300 n         1 D15     -0.441100
     15 CAZ        -1.1860    4.0030    1.5510 ca        1 D15     -0.009400
     16 CAP        -1.8470    4.5040    2.6830 ca        1 D15     -0.037000
     17 CBE        -2.0830    5.8720    2.7550 ca        1 D15     -0.183900
     18 CAM        -0.7710    4.8790    0.5040 ca        1 D15     -0.121000
     19 CAN        -0.9870    6.2420    0.5690 ca        1 D15     -0.123000
     20 CBD        -1.6480    6.7490    1.6970 ca        1 D15     -0.054200
     21 NAV        -1.9700    8.0550    2.0980 na        1 D15      0.002900
     22 NAS        -2.6340    8.0690    3.2600 nc        1 D15     -0.548100
     23 CBC        -2.7120    6.7810    3.7280 cd        1 D15      0.410500
     24 NAU        -3.3510    6.4290    4.9200 n         1 D15     -0.451400
     25 CAW        -2.8610    5.4940    5.8340 c         1 D15      0.683700
     26 OAB        -1.9000    4.7460    5.5820 o         1 D15     -0.584100
     27 CBA        -3.5880    5.4230    7.1350 ca        1 D15     -0.154600
     28 CAJ        -2.8320    5.2680    8.3020 ca        1 D15     -0.091000
     29 CAF        -3.4730    5.1920    9.5380 ca        1 D15     -0.136000
     30 CAE        -4.8640    5.2630    9.6100 ca        1 D15     -0.102000
     31 CAG        -5.6180    5.4040    8.4440 ca        1 D15     -0.136000
     32 CAK        -4.9840    5.4870    7.2050 ca        1 D15     -0.091000
     33 HAO        -2.8800    0.2570   -0.1890 ha        1 D15      0.159000
     34 HAI        -0.2740   -0.9510   -3.4410 ha        1 D15      0.167000
     35 HAH         1.6470   -1.0530   -1.8530 ha        1 D15      0.156000
     36 HAL         1.3170   -0.5260    0.5550 ha        1 D15      0.140000
     37 HBF        -0.0120    0.1580    2.3210 hc        1 D15      0.084700
     38 HAR1       -2.1760   -0.4300    3.5000 hc        1 D15      0.091700
     39 HAR2       -2.9210   -0.8180    1.8940 hc        1 D15      0.091700
     40 HAQ1       -0.3980   -2.1740    3.1560 hx        1 D15      0.114700
     41 HAQ2       -1.0340   -2.5160    1.4670 hx        1 D15      0.114700
     42 HAA1       -3.1010   -3.2640    2.4940 hn        1 D15      0.462133
     43 HAA2       -2.5360   -2.9350    4.0240 hn        1 D15      0.462133
     44 HAT        -0.1250    2.4040    0.8090 hn        1 D15      0.325500
     45 HAP        -2.1670    3.8450    3.5080 ha        1 D15      0.185000
     46 HAM        -0.2580    4.4690   -0.3810 ha        1 D15      0.134000
     47 HAN        -0.6510    6.9070   -0.2390 ha        1 D15      0.149000
     48 HAV        -2.0500    8.8410    1.4930 hn        1 D15      0.325700
     49 HAU        -3.9940    7.1050    5.2790 hn        1 D15      0.331500
     50 HAJ        -1.7340    5.2010    8.2340 ha        1 D15      0.147000
     51 HAK        -5.5890    5.5880    6.2910 ha        1 D15      0.147000
     52 HAF        -2.8780    5.0790   10.4570 ha        1 D15      0.142500
     53 HAE        -5.3680    5.2060   10.5870 ha        1 D15      0.142000
     54 HAG        -6.7150    5.4550    8.5010 ha        1 D15      0.142500
     55 HAA3       -1.8040   -4.1230    3.1040 hn        1 D15      0.462133
@<TRIPOS>BOND
     1    1    2 ar  
     2    1    7 ar  
     3    1   33 1   
     4    2    3 1   
     5    2    4 ar  
     6    4    5 ar  
     7    4   34 1   
     8    5    6 ar  
     9    5   35 1   
    10    6    7 ar  
    11    6   36 1   
    12    7    8 1   
    13    8    9 1   
    14    8   12 1   
    15    8   37 1   
    16    9   10 1   
    17    9   38 1   
    18    9   39 1   
    19   10   11 1   
    20   10   40 1   
    21   10   41 1   
    22   11   42 1   
    23   11   43 1   
    24   11   55 1   
    25   12   13 2   
    26   12   14 1   
    27   14   15 1   
    28   14   44 1   
    29   15   16 ar  
    30   15   18 ar  
    31   16   17 ar  
    32   16   45 1   
    33   17   20 ar  
    34   17   23 1   
    35   18   19 ar  
    36   18   46 1   
    37   19   20 ar  
    38   19   47 1   
    39   20   21 1   
    40   21   22 1   
    41   21   48 1   
    42   22   23 2   
    43   23   24 1   
    44   24   25 1   
    45   24   49 1   
    46   25   26 2   
    47   25   27 1   
    48   27   28 ar  
    49   27   32 ar  
    50   28   29 ar  
    51   28   50 1   
    52   29   30 ar  
    53   29   52 1   
    54   30   31 ar  
    55   30   53 1   
    56   31   32 ar  
    57   31   54 1   
    58   32   51 1   
@<TRIPOS>SUBSTRUCTURE
     1 D15         1 TEMP              0 ****  ****    0 ROOT
