@<TRIPOS>MOLECULE
D15
   54    46     1     0     0
SMALL
bcc


@<TRIPOS>ATOM
      1 CAO         4.7110   -2.3080    0.2420 c1        1 D15     -0.117000
      2 CAY         5.3290   -2.4930    1.4700 c1        1 D15     -0.061000
      3 CL1         6.9890   -2.0030    1.6930 cl        1 D15     -0.005000
      4 CAI         4.6520   -3.1310    2.4980 c1        1 D15     -0.121000
      5 CAH         3.3580   -3.5830    2.2990 c1        1 D15     -0.123750
      6 CAL         2.7410   -3.3990    1.0740 c1        1 D15     -0.123750
      7 CBB         3.4190   -2.7600    0.0430 c1        1 D15     -0.083000
      8 CBF         2.8070   -2.6950   -1.3230 c3        1 D15     -0.086000
      9 CAR         3.8790   -2.9490   -2.3730 c3        1 D15     -0.153000
     10 CAQ         3.6160   -4.2950   -3.0590 c3        1 D15     -0.078000
     11 NAA         4.5870   -4.4960   -4.1150 n3        1 D15     -0.346000
     12 CAX         2.1960   -1.3100   -1.5440 c2        1 D15      0.309000
     13 OAC         2.8200   -0.4640   -2.1520 o         1 D15     -0.345000
     14 NAT         0.8360   -1.0550   -1.1530 n         1 D15     -0.321000
     15 CAZ         0.2160    0.2040   -1.4830 c2        1 D15      0.049000
     16 CAP        -0.8410    0.6000   -0.6720 c2        1 D15     -0.125000
     17 CBE        -1.5290    1.8040   -0.9450 c1        1 D15     -0.118000
     18 CAM         0.5960    0.9900   -2.5610 c1        1 D15     -0.112000
     19 CAN        -0.0820    2.1760   -2.8300 c1        1 D15     -0.114000
     20 CBD        -1.1550    2.5780   -2.0060 c1        1 D15     -0.027000
     21 NAV        -1.9200    3.7150   -1.9910 n1        1 D15     -0.174000
     22 NAS        -2.7750    3.6410   -0.9080 n2        1 D15     -0.047000
     23 CBC        -2.5390    2.4710   -0.2640 c1        1 D15      0.032000
     24 NAU        -3.3230    2.5230    0.9260 n2        1 D15     -0.309000
     25 CAW        -4.3290    3.5220    1.0740 c2        1 D15      0.353000
     26 OAB        -4.5180    4.3320    0.1830 o         1 D15     -0.307000
     27 CBA        -5.1510    3.5970    2.3660 c2        1 D15     -0.126000
     28 CAJ        -6.1240    2.6390    2.6260 c2        1 D15     -0.078000
     29 CAF        -6.9200    2.7480    3.7560 c1        1 D15     -0.137000
     30 CAE        -6.7460    3.8120    4.6270 c1        1 D15     -0.123750
     31 CAG        -5.7750    4.7690    4.3680 c1        1 D15     -0.123750
     32 CAK        -4.9770    4.6610    3.2370 c1        1 D15     -0.105000
     33 HAO         5.1870   -1.8600   -0.4820 ha        1 D15      0.160000
     34 HAI         5.0870   -3.2610    3.3640 ha        1 D15      0.151000
     35 HAH         2.8810   -4.0320    3.0240 ha        1 D15      0.138500
     36 HAL         1.8270   -3.7190    0.9340 ha        1 D15      0.138500
     37 HBF         2.1080   -3.3760   -1.4000 hc        1 D15      0.121000
     38 HAR1        4.7600   -2.9680   -1.9420 hc        1 D15      0.110500
     39 HAR2        3.8580   -2.2370   -3.0360 hc        1 D15      0.110500
     40 HAQ1        3.6950   -5.0190   -2.4010 h1        1 D15      0.064500
     41 HAQ2        2.7160   -4.2960   -3.4400 h1        1 D15      0.064500
     42 HAA1        5.1220   -5.2170   -3.9080 hn        1 D15      0.146500
     43 HAA2        4.1490   -4.6570   -4.9090 hn        1 D15      0.146500
     44 HAT         0.3920   -1.6580   -0.6330 hn        1 D15      0.233000
     45 HAP        -1.1130    0.0440    0.0800 ha        1 D15      0.132000
     46 HAM         1.2830    0.6740   -3.1730 ha        1 D15      0.174000
     47 HAN         0.1850    2.7290   -3.5870 ha        1 D15      0.147000
     48 HAV        -1.8730    4.4000   -2.5900 DU        1 D15      0.257000
     49 HAU        -3.2040    1.9000    1.5770 hn        1 D15      0.241000
     50 HAJ        -6.2460    1.8890    2.0120 ha        1 D15      0.155000
     51 HAK        -4.2910    5.3370    3.0540 ha        1 D15      0.138000
     52 HAF        -7.6050    2.0730    3.9390 ha        1 D15      0.140000
     53 HAE        -7.3110    3.8890    5.4270 ha        1 D15      0.138500
     54 HAG        -5.6530    5.5240    4.9860 ha        1 D15      0.138500
@<TRIPOS>BOND
     1    1    7 1   
     2    1   33 1   
     3    2    3 1   
     4    2    4 1   
     5    4   34 1   
     6    5    6 1   
     7    5   35 1   
     8    6   36 1   
     9    7    8 1   
    10    8    9 1   
    11    8   12 1   
    12    8   37 1   
    13    9   10 1   
    14    9   38 1   
    15    9   39 1   
    16   10   11 1   
    17   10   40 1   
    18   10   41 1   
    19   11   42 1   
    20   11   43 1   
    21   12   13 1   
    22   12   14 1   
    23   14   15 1   
    24   14   44 1   
    25   15   16 1   
    26   15   18 1   
    27   16   17 1   
    28   16   45 1   
    29   18   46 1   
    30   19   20 1   
    31   19   47 1   
    32   21   22 1   
    33   22   23 1   
    34   24   25 1   
    35   24   49 1   
    36   25   26 1   
    37   25   27 1   
    38   27   28 1   
    39   27   32 1   
    40   28   29 1   
    41   28   50 1   
    42   29   52 1   
    43   30   31 1   
    44   30   53 1   
    45   31   54 1   
    46   32   51 1   
@<TRIPOS>SUBSTRUCTURE
     1 D15         1 TEMP              0 ****  ****    0 ROOT
