@<TRIPOS>MOLECULE
D15
   54    57     1     0     0
SMALL
bcc


@<TRIPOS>ATOM
      1 CAO        38.9270   26.1430  -39.1180 ca        1 D15     -0.135000
      2 CAY        39.5430   27.3880  -38.9530 ca        1 D15      0.019400
      3 CL1        38.7640   28.5890  -38.0360 cl        1 D15     -0.091400
      4 CAI        40.7870   27.6540  -39.5310 ca        1 D15     -0.118000
      5 CAH        41.4130   26.6590  -40.2810 ca        1 D15     -0.114000
      6 CAL        40.8070   25.4160  -40.4510 ca        1 D15     -0.115000
      7 CBB        39.5590   25.1470  -39.8700 ca        1 D15     -0.080300
      8 CBF        38.9510   23.7970  -40.0720 c3        1 D15     -0.089400
      9 CAR        37.4320   23.7800  -40.1350 c3        1 D15     -0.119400
     10 CAQ        36.9200   24.5700  -41.3430 c3        1 D15      0.150800
     11 NAA        35.4950   24.5910  -41.5340 n3        1 D15     -0.904800
     12 CAX        39.4050   22.8000  -38.9930 c         1 D15      0.666100
     13 OAC        39.7530   21.6530  -39.3240 o         1 D15     -0.588100
     14 NAT        39.3620   23.2370  -37.6830 n         1 D15     -0.466100
     15 CAZ        39.7460   22.5010  -36.5450 ca        1 D15      0.030600
     16 CAP        40.6110   21.3930  -36.6270 ca        1 D15     -0.058000
     17 CBE        40.9280   20.7200  -35.4560 ca        1 D15     -0.172900
     18 CAM        39.2440   22.9230  -35.2790 ca        1 D15     -0.137000
     19 CAN        39.5720   22.2700  -34.1030 ca        1 D15     -0.121000
     20 CBD        40.4100   21.1540  -34.1870 ca        1 D15     -0.083200
     21 NAV        40.9860   20.3200  -33.1960 na        1 D15      0.011900
     22 NAS        41.7030   19.3310  -33.7620 nc        1 D15     -0.572100
     23 CBC        41.7520   19.5430  -35.1120 cd        1 D15      0.419500
     24 NAU        42.4380   18.7230  -36.0110 n         1 D15     -0.456400
     25 CAW        43.2480   19.2060  -37.0430 c         1 D15      0.679700
     26 OAB        43.3260   20.4130  -37.3240 o         1 D15     -0.565100
     27 CBA        44.0040   18.1710  -37.8070 ca        1 D15     -0.147600
     28 CAJ        45.3160   18.4680  -38.1940 ca        1 D15     -0.088500
     29 CAF        46.0530   17.5350  -38.9210 ca        1 D15     -0.138000
     30 CAE        45.4800   16.3120  -39.2710 ca        1 D15     -0.106000
     31 CAG        44.1680   16.0220  -38.8980 ca        1 D15     -0.138000
     32 CAK        43.4260   16.9490  -38.1650 ca        1 D15     -0.088500
     33 HAO        37.9420   25.9600  -38.6630 ha        1 D15      0.145000
     34 HAI        41.2670   28.6350  -39.3970 ha        1 D15      0.151000
     35 HAH        42.3940   26.8570  -40.7390 ha        1 D15      0.143000
     36 HAL        41.3140   24.6370  -41.0430 ha        1 D15      0.146000
     37 HBF        39.3400   23.3780  -41.0490 hc        1 D15      0.097700
     38 HAR1       37.0980   22.7100  -40.2150 hc        1 D15      0.050200
     39 HAR2       36.9950   24.1930  -39.1900 hc        1 D15      0.050200
     40 HAQ1       37.2740   25.6370  -41.2440 h1        1 D15      0.059200
     41 HAQ2       37.3860   24.1410  -42.2760 h1        1 D15      0.059200
     42 HAA1       35.1350   23.6680  -41.6720 hn        1 D15      0.347300
     43 HAA2       35.0300   25.0060  -40.7510 hn        1 D15      0.347300
     44 HAT        39.0770   24.1770  -37.5170 hn        1 D15      0.322500
     45 HAP        41.0440   21.0660  -37.5890 ha        1 D15      0.191000
     46 HAM        38.5770   23.7980  -35.2230 ha        1 D15      0.132000
     47 HAN        39.1840   22.6200  -33.1370 ha        1 D15      0.141000
     48 HAV        40.4840   20.0790  -32.3660 hn        1 D15      0.297700
     49 HAU        42.6140   17.7900  -35.7030 hn        1 D15      0.326500
     50 HAJ        45.7520   19.4450  -37.9290 ha        1 D15      0.148500
     51 HAK        42.3860   16.7180  -37.8910 ha        1 D15      0.148500
     52 HAF        47.0850   17.7670  -39.2220 ha        1 D15      0.138500
     53 HAE        46.0630   15.5770  -39.8470 ha        1 D15      0.136000
     54 HAG        43.7130   15.0620  -39.1840 ha        1 D15      0.138500
@<TRIPOS>BOND
     1    1    2 ar  
     2    1    7 ar  
     3    1   33 1   
     4    2    3 1   
     5    2    4 ar  
     6    4    5 ar  
     7    4   34 1   
     8    5    6 ar  
     9    5   35 1   
    10    6    7 ar  
    11    6   36 1   
    12    7    8 1   
    13    8    9 1   
    14    8   12 1   
    15    8   37 1   
    16    9   10 1   
    17    9   38 1   
    18    9   39 1   
    19   10   11 1   
    20   10   40 1   
    21   10   41 1   
    22   11   42 1   
    23   11   43 1   
    24   12   13 2   
    25   12   14 1   
    26   14   15 1   
    27   14   44 1   
    28   15   16 ar  
    29   15   18 ar  
    30   16   17 ar  
    31   16   45 1   
    32   17   20 ar  
    33   17   23 1   
    34   18   19 ar  
    35   18   46 1   
    36   19   20 ar  
    37   19   47 1   
    38   20   21 1   
    39   21   22 1   
    40   21   48 1   
    41   22   23 2   
    42   23   24 1   
    43   24   25 1   
    44   24   49 1   
    45   25   26 2   
    46   25   27 1   
    47   27   28 ar  
    48   27   32 ar  
    49   28   29 ar  
    50   28   50 1   
    51   29   30 ar  
    52   29   52 1   
    53   30   31 ar  
    54   30   53 1   
    55   31   32 ar  
    56   31   54 1   
    57   32   51 1   
@<TRIPOS>SUBSTRUCTURE
     1 D15         1 TEMP              0 ****  ****    0 ROOT
