@<TRIPOS>MOLECULE
D16
   52    54     1     0     0
SMALL
bcc


@<TRIPOS>ATOM
      1 N1         -2.5260   -2.4680   -0.3560 na        1 D16     -0.682600
      2 C2         -3.5930   -2.8700    0.4420 cc        1 D16      0.688200
      3 CM2        -3.4800   -4.2690    1.0070 c3        1 D16     -0.160400
      4 N3         -4.6730   -2.1390    0.6990 nd        1 D16     -0.749100
      5 C4         -4.7290   -0.8120    0.2310 c         1 D16      0.709100
      6 O4         -5.7530   -0.1170    0.4180 o         1 D16     -0.623100
      7 C4A        -3.5450   -0.2660   -0.4750 ca        1 D16     -0.244600
      8 C5         -3.4390    1.0950   -0.7950 ca        1 D16     -0.041000
      9 C6         -2.3040    1.5870   -1.4250 ca        1 D16     -0.203300
     10 C7         -1.2870    0.6900   -1.8210 ca        1 D16     -0.091000
     11 C8         -1.3520   -0.6520   -1.5030 ca        1 D16     -0.152000
     12 C8A        -2.4710   -1.1440   -0.7750 ca        1 D16      0.196600
     13 C9         -2.1120    3.0580   -1.6530 c3        1 D16      0.226100
     14 N10        -1.6510    3.8530   -0.5170 nh        1 D16     -0.591000
     15 C11         1.4420    2.0970    0.9800 cc        1 D16     -0.180700
     16 S13         0.1520    1.8110   -0.0390 ss        1 D16      0.087200
     17 C14        -0.4930    3.3720    0.1340 cc        1 D16      0.060500
     18 C15         0.3030    4.1250    0.9990 cd        1 D16     -0.205000
     19 C16         1.4130    3.3790    1.4900 cd        1 D16     -0.123000
     20 O           2.8510    0.9300    2.4990 o         1 D16     -0.645100
     21 N           2.7240    0.1670    0.3090 n         1 D16     -0.508900
     22 CA          3.6010   -0.9830    0.4320 c3        1 D16     -0.037300
     23 CB          2.8820   -2.2850    0.0340 c3        1 D16     -0.070400
     24 CG          1.8440   -2.7410    1.0350 c3        1 D16     -0.161400
     25 CD          0.5420   -3.2340    0.4290 c         1 D16      0.901600
     26 OE1        -0.3420   -3.7520    1.1880 o         1 D16     -0.890800
     27 OE2         0.2720   -3.1030   -0.8110 o         1 D16     -0.890800
     28 CT          4.8720   -0.8450   -0.4770 c         1 D16      0.906600
     29 O1          4.8160   -0.1050   -1.5010 o         1 D16     -0.849800
     30 O2          5.8950   -1.4960   -0.1280 o         1 D16     -0.849800
     31 CP1        -2.7130    4.2300    0.3960 c3        1 D16      0.164100
     32 HN1        -1.6650   -3.0290   -0.3860 hn        1 D16      0.545800
     33 HM21       -2.4430   -4.4180    1.4230 hc        1 D16      0.076367
     34 HM22       -4.2330   -4.4330    1.8130 hc        1 D16      0.076367
     35 HM23       -3.6520   -5.0090    0.1890 hc        1 D16      0.076367
     36 H5         -4.2710    1.7610   -0.5160 ha        1 D16      0.139000
     37 H7         -0.4280    1.0630   -2.4050 ha        1 D16      0.143000
     38 H8         -0.5180   -1.3450   -1.7480 ha        1 D16      0.218000
     39 H91        -1.3480    3.2070   -2.4700 h1        1 D16      0.050700
     40 H92        -3.0840    3.5080   -2.0020 h1        1 D16      0.050700
     41 H15         0.1100    5.1610    1.2790 ha        1 D16      0.133000
     42 H16         2.1480    3.7790    2.1920 ha        1 D16      0.150000
     43 HN          2.6240    0.4880   -0.6310 hn        1 D16      0.317500
     44 HA          3.9450   -1.0600    1.5030 h1        1 D16      0.067700
     45 HB1         2.4050   -2.1620   -0.9750 hc        1 D16      0.054700
     46 HB2         3.6800   -3.0660   -0.0690 hc        1 D16      0.054700
     47 HG1         2.2610   -3.5660    1.6690 hc        1 D16      0.036200
     48 HG2         1.5740   -1.9040    1.7320 hc        1 D16      0.036200
     49 HP11       -3.2620    3.3470    0.8230 h1        1 D16      0.032033
     50 HP12       -2.2790    4.8250    1.2410 h1        1 D16      0.032033
     51 HP13       -3.4440    4.8700   -0.1640 h1        1 D16      0.032033
     52 C           2.4270    1.0370    1.3250 c         1 D16      0.690700
@<TRIPOS>BOND
     1    1    2 1   
     2    1   12 1   
     3    1   32 1   
     4    2    3 1   
     5    2    4 2   
     6    3   33 1   
     7    3   34 1   
     8    3   35 1   
     9    4    5 1   
    10    5    6 2   
    11    5    7 1   
    12    7    8 ar  
    13    7   12 ar  
    14    8    9 ar  
    15    8   36 1   
    16    9   10 ar  
    17    9   13 1   
    18   10   11 ar  
    19   10   37 1   
    20   11   12 ar  
    21   11   38 1   
    22   13   14 1   
    23   13   39 1   
    24   13   40 1   
    25   14   17 1   
    26   14   31 1   
    27   15   16 1   
    28   15   19 2   
    29   15   52 1   
    30   16   17 1   
    31   17   18 2   
    32   18   19 1   
    33   18   41 1   
    34   19   42 1   
    35   20   52 2   
    36   21   22 1   
    37   21   43 1   
    38   21   52 1   
    39   22   23 1   
    40   22   28 1   
    41   22   44 1   
    42   23   24 1   
    43   23   45 1   
    44   23   46 1   
    45   24   25 1   
    46   24   47 1   
    47   24   48 1   
    48   25   26 1   
    49   25   27 1   
    50   28   29 1   
    51   28   30 1   
    52   31   49 1   
    53   31   50 1   
    54   31   51 1   
@<TRIPOS>SUBSTRUCTURE
     1 D16         1 TEMP              0 ****  ****    0 ROOT
