@<TRIPOS>MOLECULE
D16
   54    53     1     0     0
SMALL
bcc


@<TRIPOS>ATOM
      1 N1         -2.6100   -0.0080    0.5680 ne        1 D16     -0.729000
      2 C2         -1.2670    0.3540    0.2170 ce        1 D16      0.688300
      3 CM2        -1.1560    1.0630   -1.1120 c3        1 D16     -0.132400
      4 N3         -0.1910    0.1200    0.9290 nf        1 D16     -0.656100
      5 C4         -0.3240   -0.5370    2.1820 c         1 D16      0.689500
      6 O4          0.6750   -0.9370    2.7920 o         1 D16     -0.497100
      7 C4A        -1.7210   -0.7480    2.7830 c3        1 D16     -0.235800
      8 C5         -1.9160    0.1160    3.9840 c2        1 D16     -0.172200
      9 C6         -1.1170    0.0260    5.0500 c2        1 D16     -0.178200
     10 C7         -5.2160   -1.2280    2.4960 c1        1 D16     -0.029500
     11 C8         -4.1150   -0.8980    2.1610 ch        1 D16     -0.226200
     12 C8A        -2.8120   -0.5120    1.7540 cf        1 D16      0.573200
     13 C9         -1.2250    0.8120    6.3150 c3        1 D16      0.223000
     14 N10        -2.0850    1.9760    6.3620 nh        1 D16     -0.636400
     15 C11        -6.0660    3.4210    4.4810 c         1 D16      0.141600
     16 S13        -5.5230    2.8810    3.1380 s         1 D16     -0.301400
     17 C14        -3.4620    1.7390    6.3960 c2        1 D16      0.050900
     18 C15        -4.4090    2.5880    6.0590 c1        1 D16     -0.069800
     19 C16        -5.4020    3.3880    5.7700 ce        1 D16     -0.185300
     20 O          -7.6310    5.0950    5.1880 o         1 D16     -0.487100
     21 N          -8.2930    0.0100    1.6180 n3        1 D16     -0.889800
     22 CA         -7.7810    1.2510    1.0720 c3        1 D16      0.094700
     23 CB         -7.3710    1.1150   -0.3680 c2        1 D16     -0.119200
     24 CG         -6.1430    0.7190   -0.7150 ce        1 D16     -0.215200
     25 CD         -5.7370    0.6140   -2.1270 c         1 D16      0.623300
     26 OE1        -4.4820    0.1720   -2.4280 oh        1 D16     -0.579100
     27 OE2        -6.4140    0.8990   -3.1180 o         1 D16     -0.491000
     28 CT         -8.7190    2.4450    1.2560 c         1 D16      0.590100
     29 O1         -8.5980    3.5620    0.4910 oh        1 D16     -0.562100
     30 O2         -9.5930    2.5230    2.1220 o         1 D16     -0.512000
     31 CP1        -1.6260    3.1290    5.6250 c3        1 D16      0.170100
     32 HN1        -4.0000   -0.0500   -1.6170 ho        1 D16      0.443000
     33 HM21       -1.5450    2.1060   -0.9950 hc        1 D16      0.075033
     34 HM22       -1.7680    0.5340   -1.8850 hc        1 D16      0.075033
     35 HM23       -0.0940    1.1080   -1.4560 hc        1 D16      0.075033
     36 H5         -1.7790   -1.8330    3.0980 hc        1 D16      0.117700
     37 H7         -0.2670   -0.6850    5.0530 ha        1 D16      0.154000
     38 H8         -6.2020   -1.5120    2.7830 ha        1 D16      0.189500
     39 H91        -1.5610    0.1010    7.1280 h1        1 D16      0.072200
     40 H92        -0.1860    1.1700    6.5860 h1        1 D16      0.072200
     41 H15        -3.7510    0.7570    6.8320 h4        1 D16      0.161000
     42 H16        -5.7890    4.1030    6.5250 ha        1 D16      0.164000
     43 HN         -8.1710    3.6350    3.8390 h4        1 D16      0.048200
     44 HA         -8.9550   -0.4100    0.9930 hn        1 D16      0.368300
     45 HB1        -6.8620    1.5250    1.6980 h1        1 D16      0.116700
     46 HB2        -7.8630    3.4660   -0.1320 ho        1 D16      0.437000
     47 HG1        -8.1390    1.3500   -1.1260 ha        1 D16      0.158000
     48 HG2        -5.3760    0.4570    0.0370 ha        1 D16      0.163000
     49 HP11       -2.7670    0.8160    3.9370 ha        1 D16      0.149000
     50 HP12       -2.2640    4.0130    5.8940 h1        1 D16      0.048033
     51 HP13       -0.5640    3.3440    5.9160 h1        1 D16      0.048033
     52 H101       -1.6730    2.9720    4.5130 h1        1 D16      0.048033
     53 H2         -8.7460    0.1890    2.4970 hn        1 D16      0.368300
     54 C          -7.4060    4.0960    4.5080 c         1 D16      0.509900
@<TRIPOS>BOND
     1    1    2 1   
     2    1   12 2   
     3    2    3 1   
     4    2    4 2   
     5    3   33 1   
     6    3   34 1   
     7    3   35 1   
     8    4    5 1   
     9    5    6 2   
    10    5    7 1   
    11    7    8 1   
    12    7   12 1   
    13    7   36 1   
    14    8    9 2   
    15    8   49 1   
    16    9   13 1   
    17    9   37 1   
    18   10   11 3   
    19   10   38 1   
    20   11   12 1   
    21   13   14 1   
    22   13   39 1   
    23   13   40 1   
    24   14   17 1   
    25   14   31 1   
    26   15   16 2   
    27   15   19 1   
    28   15   54 1   
    29   17   18 2   
    30   17   41 1   
    31   18   19 2   
    32   19   42 1   
    33   20   54 2   
    34   21   22 1   
    35   21   44 1   
    36   21   53 1   
    37   22   23 1   
    38   22   28 1   
    39   22   45 1   
    40   23   24 2   
    41   23   47 1   
    42   24   25 1   
    43   24   48 1   
    44   25   26 1   
    45   25   27 2   
    46   26   32 1   
    47   28   29 1   
    48   28   30 2   
    49   29   46 1   
    50   31   50 1   
    51   31   51 1   
    52   31   52 1   
    53   43   54 1   
@<TRIPOS>SUBSTRUCTURE
     1 D16         1 TEMP              0 ****  ****    0 ROOT
