@<TRIPOS>MOLECULE
D16
   53    50     1     0     0
SMALL
bcc


@<TRIPOS>ATOM
      1 N1          0.5630   -0.7900   -1.5970 na        1 D16     -0.282000
      2 C2          1.7630   -1.2130   -2.1800 c2        1 D16      0.134000
      3 CM2         1.7780   -1.2400   -3.6930 c3        1 D16     -0.187000
      4 N3          2.8330   -1.5740   -1.5030 n2        1 D16     -0.268000
      5 C4          2.7930   -1.5390   -0.0800 c2        1 D16      0.294000
      6 O4          3.7970   -1.8770    0.5750 o         1 D16     -0.338000
      7 C4A         1.5470   -1.0990    0.5620 c2        1 D16     -0.306000
      8 C5         -2.7260   -0.2500    7.0050 c1        1 D16      0.119000
      9 C6         -2.5700    0.1070    5.7560 c2        1 D16     -0.494000
     10 C7         -1.8120    0.0640    0.7940 c1        1 D16     -0.014000
     11 C8         -0.7620   -0.3050    0.3430 c1        1 D16     -0.323000
     12 C8A         0.4660   -0.7360   -0.2010 c2        1 D16      0.224000
     13 C9         -2.7730    1.4800    5.1720 c3        1 D16      0.020000
     14 N10        -3.8180    2.2790    5.7720 n3        1 D16     -0.233000
     15 C11        -8.0230    4.0580    6.2730 c2        1 D16     -0.157000
     16 S13        -7.3310    5.4260    6.4280 s         1 D16      0.002000
     17 C14        -5.0900    2.1750    5.2080 c2        1 D16      0.043000
     18 C15        -6.2330    2.4630    5.7970 c1        1 D16     -0.217000
     19 C16        -7.4220    2.7360    6.2640 c2        1 D16     -0.132000
     20 O         -10.2820    3.6470    6.9900 o         1 D16     -0.288000
     21 N          -9.5930    1.5040    1.7800 n8        1 D16     -0.326000
     22 CA         -8.8030    1.1640    0.6640 c2        1 D16     -0.159000
     23 CB         -7.4630    1.2430    0.5660 c2        1 D16     -0.165000
     24 CG         -6.5450    1.6190    1.6570 c3        1 D16     -0.192000
     25 CD         -5.1100    1.1540    1.4120 c2        1 D16      0.332000
     26 OE1        -4.3440    1.0280    2.4230 o         1 D16     -0.596500
     27 OE2        -4.6910    0.9170    0.2440 o         1 D16     -0.596500
     28 CT        -10.9150    3.9110    1.7720 c1        1 D16      0.446000
     29 O1        -10.4490    4.1080    2.8510 o         1 D16     -0.226000
     30 O2        -11.4250    3.7680    0.7070 o         1 D16     -0.226000
     31 CP1        -3.7090    2.4910    7.1890 c3        1 D16     -0.112000
     32 HN1        -0.2160   -0.5300   -2.1550 hn        1 D16      0.256000
     33 HM21        0.9870   -1.9360   -4.0660 hc        1 D16      0.103000
     34 HM22        2.7700   -1.5890   -4.0710 hc        1 D16      0.103000
     35 HM23        1.5840   -0.2140   -4.0910 hc        1 D16      0.103000
     36 H5          1.5120   -1.0700    1.6560 ha        1 D16      0.169000
     37 H7         -2.2590   -0.6360    4.9950 ha        1 D16      0.204000
     38 H8         -2.7780    0.4000    1.1660 ha        1 D16      0.316000
     39 H91        -1.8050    2.0470    5.3060 h1        1 D16      0.134500
     40 H92        -2.9820    1.3760    4.0630 h1        1 D16      0.134500
     41 H15        -5.0940    1.8570    4.1230 h4        1 D16      0.245000
     42 H16        -8.0580    1.9310    6.6830 ha        1 D16      0.138000
     43 HN         -9.8620    4.3310    5.0990 h4        1 D16      0.132000
     44 HA         -9.0360    1.7340    2.5810 hn        1 D16      0.151000
     45 HB1        -9.4120    0.8650   -0.2090 h4        1 D16      0.124000
     46 HB2        -6.9670    1.0220   -0.3960 ha        1 D16      0.159000
     47 HG1        -6.8840    1.2020    2.6420 hc        1 D16      0.081500
     48 HG2        -6.5190    2.7380    1.7590 hc        1 D16      0.081500
     49 HP11       -4.5250    3.1770    7.5370 h1        1 D16      0.084000
     50 HP12       -2.7150    2.9630    7.4070 h1        1 D16      0.084000
     51 HP13       -3.7800    1.5260    7.7760 h1        1 D16      0.084000
     52 H2        -10.2170    0.7540    2.0130 hn        1 D16      0.151000
     53 C          -9.5060    4.0050    6.1040 c2        1 D16      0.190000
@<TRIPOS>BOND
     1    1    2 1   
     2    1   12 1   
     3    1   32 1   
     4    2    3 1   
     5    2    4 1   
     6    3   33 1   
     7    3   34 1   
     8    3   35 1   
     9    4    5 1   
    10    5    6 1   
    11    5    7 1   
    12    7   12 1   
    13    7   36 1   
    14    8    9 1   
    15    9   13 1   
    16    9   37 1   
    17   10   11 1   
    18   10   38 1   
    19   11   12 1   
    20   13   14 1   
    21   13   39 1   
    22   13   40 1   
    23   14   17 1   
    24   14   31 1   
    25   15   16 1   
    26   15   19 1   
    27   15   53 1   
    28   17   18 1   
    29   17   41 1   
    30   18   19 1   
    31   19   42 1   
    32   20   53 1   
    33   21   22 1   
    34   21   44 1   
    35   21   52 1   
    36   22   23 1   
    37   22   45 1   
    38   23   24 1   
    39   23   46 1   
    40   24   25 1   
    41   24   47 1   
    42   24   48 1   
    43   25   26 1   
    44   25   27 1   
    45   28   29 1   
    46   28   30 1   
    47   31   49 1   
    48   31   50 1   
    49   31   51 1   
    50   43   53 1   
@<TRIPOS>SUBSTRUCTURE
     1 D16         1 TEMP              0 ****  ****    0 ROOT
