@<TRIPOS>MOLECULE
D16
   53    51     1     0     0
SMALL
bcc


@<TRIPOS>ATOM
      1 N1         -0.3260   -0.7500   -0.9190 na        1 D16     -0.281000
      2 C2          1.0380   -0.6920   -0.6060 c2        1 D16      0.136000
      3 CM2         1.9800   -1.1170   -1.7120 c3        1 D16     -0.188000
      4 N3          1.5200   -0.3020    0.5570 n2        1 D16     -0.260000
      5 C4          0.6140    0.0970    1.5770 c2        1 D16      0.300000
      6 O4          1.0500    0.4700    2.6850 o         1 D16     -0.354000
      7 C4A        -0.8230    0.0500    1.2790 c2        1 D16     -0.311000
      8 C5         -0.6700    2.6690    5.7850 c1        1 D16      0.155000
      9 C6         -0.9170    1.5930    5.0840 c2        1 D16     -0.532000
     10 C7         -3.8010   -0.4640   -0.5560 c1        1 D16     -0.008000
     11 C8         -2.6290   -0.4270   -0.2950 c1        1 D16     -0.324000
     12 C8A        -1.2620   -0.3670    0.0470 c2        1 D16      0.230000
     13 C9         -2.0510    0.6260    5.2240 c3        1 D16      0.040000
     14 N10        -3.3080    1.1460    5.7250 n3        1 D16     -0.241000
     15 C11        -6.4780    4.5450    5.2160 c2        1 D16     -0.172000
     16 S13        -5.4970    5.5690    4.6200 s         1 D16      0.025000
     17 C14        -4.1670    1.7230    4.7790 c2        1 D16      0.028000
     18 C15        -5.2470    2.4290    5.0330 c1        1 D16     -0.217000
     19 C16        -6.3550    3.0920    5.2230 c2        1 D16     -0.104000
     20 O          -7.8980    5.4800    6.9140 o         1 D16     -0.285000
     21 N          -7.4270    1.5450    2.3670 n3        1 D16     -0.187000
     22 CA         -8.6910    1.5960    2.0420 c2        1 D16      0.087000
     23 CB         -9.2360    0.8880    0.8440 c3        1 D16     -0.171000
     24 CG         -8.4670    1.1470   -0.4340 c3        1 D16     -0.219000
     25 CD         -7.1930    0.3270   -0.6020 c2        1 D16      0.316000
     26 OE1        -6.6740    0.2310   -1.7480 o         1 D16     -0.585500
     27 OE2        -6.6410   -0.2320    0.4070 o         1 D16     -0.585500
     28 CT         -9.6930    2.4100    2.9520 c2        1 D16      0.356000
     29 O1        -10.8750    2.4580    2.5650 o         1 D16     -0.504000
     30 O2         -9.1830    2.9250    3.9800 o         1 D16     -0.504000
     31 CP1        -3.2400    1.7630    7.0250 c3        1 D16     -0.110000
     32 HN1        -0.6320   -1.0410   -1.8170 hn        1 D16      0.253000
     33 HM21        1.8420   -0.4530   -2.6010 hc        1 D16      0.104667
     34 HM22        3.0420   -1.0460   -1.3740 hc        1 D16      0.104667
     35 HM23        1.7670   -2.1740   -2.0050 hc        1 D16      0.104667
     36 H5         -1.5240    0.3620    2.0610 ha        1 D16      0.165000
     37 H7         -0.1910    1.3020    4.2840 ha        1 D16      0.240000
     38 H8         -4.8670   -0.4760   -0.7650 ha        1 D16      0.315000
     39 H91        -2.2390    0.1400    4.2230 h1        1 D16      0.103000
     40 H92        -1.7240   -0.1800    5.9460 h1        1 D16      0.103000
     41 H15        -3.9350    1.4690    3.7210 h4        1 D16      0.162000
     42 H16        -7.3120    2.5450    5.3870 ha        1 D16      0.175000
     43 HN         -8.6650    4.7580    5.1350 h4        1 D16      0.174000
     44 HA         -6.7580    1.0010    1.8230 hn        1 D16      0.277000
     45 HB1       -10.3070    1.2130    0.7220 hc        1 D16      0.135500
     46 HB2        -9.2250   -0.2180    1.0620 hc        1 D16      0.135500
     47 HG1        -8.1920    2.2300   -0.5110 hc        1 D16      0.094000
     48 HG2        -9.1370    0.9120   -1.3030 hc        1 D16      0.094000
     49 HP11       -2.5590    2.6650    7.0380 h1        1 D16      0.087000
     50 HP12       -4.2650    2.0870    7.3450 h1        1 D16      0.087000
     51 HP13       -2.8470    1.0100    7.7580 h1        1 D16      0.087000
     52 H2         -7.1140    2.0260    3.1920 hn        1 D16      0.277000
     53 C          -7.7920    4.9680    5.8000 c2        1 D16      0.192000
@<TRIPOS>BOND
     1    1    2 1   
     2    1   12 1   
     3    1   32 1   
     4    2    3 1   
     5    2    4 1   
     6    3   33 1   
     7    3   34 1   
     8    3   35 1   
     9    4    5 1   
    10    5    6 1   
    11    5    7 1   
    12    7   12 1   
    13    7   36 1   
    14    8    9 1   
    15    9   13 1   
    16    9   37 1   
    17   10   11 1   
    18   10   38 1   
    19   11   12 1   
    20   13   14 1   
    21   13   39 1   
    22   13   40 1   
    23   14   17 1   
    24   14   31 1   
    25   15   16 1   
    26   15   19 1   
    27   15   53 1   
    28   17   18 1   
    29   17   41 1   
    30   18   19 1   
    31   19   42 1   
    32   20   53 1   
    33   21   22 1   
    34   21   44 1   
    35   21   52 1   
    36   22   23 1   
    37   22   28 1   
    38   23   24 1   
    39   23   45 1   
    40   23   46 1   
    41   24   25 1   
    42   24   47 1   
    43   24   48 1   
    44   25   26 1   
    45   25   27 1   
    46   28   29 1   
    47   28   30 1   
    48   31   49 1   
    49   31   50 1   
    50   31   51 1   
    51   43   53 1   
@<TRIPOS>SUBSTRUCTURE
     1 D16         1 TEMP              0 ****  ****    0 ROOT
