@<TRIPOS>MOLECULE
D17
   54    56     1     0     0
SMALL
bcc


@<TRIPOS>ATOM
      1 OE1         2.2900    0.7990   -0.6650 oh        1 D17     -0.603100
      2 CD          2.2130   -0.5310   -0.9730 c         1 D17      0.636100
      3 OE2         2.3040   -1.2600    0.0200 o         1 D17     -0.537000
      4 CG          2.0660   -0.9590   -2.3990 c3        1 D17     -0.187400
      5 CB          0.9530   -0.2330   -3.1300 c3        1 D17     -0.076400
      6 CA          1.4340    0.5010   -4.3850 c3        1 D17     -0.074300
      7 C           0.1530    0.9040   -5.2200 c         1 D17      0.914600
      8 OXT        -0.5550   -0.0490   -5.6290 o         1 D17     -0.818300
      9 O          -0.0630    2.1310   -5.4200 o         1 D17     -0.818300
     10 N           2.2650    1.6580   -4.0930 ns        1 D17     -0.513900
     11 CAU         3.6260    1.6330   -4.2970 c         1 D17      0.640700
     12 OBC         4.2890    0.5700   -4.3390 o         1 D17     -0.637100
     13 CAT         4.3370    2.9500   -4.3990 ca        1 D17     -0.123600
     14 CAQ         5.4540    3.0220   -5.2380 ca        1 D17     -0.079000
     15 CAS         3.9260    4.0800   -3.6880 ca        1 D17     -0.085000
     16 CAR         4.6270    5.2790   -3.8260 ca        1 D17     -0.141000
     17 CAP         5.7280    5.3590   -4.6760 ca        1 D17     -0.103000
     18 CAO         6.1460    4.2270   -5.3820 ca        1 D17     -0.130300
     19 CAN         7.3470    4.2980   -6.2790 c3        1 D17      0.259100
     20 NAY         7.0200    4.0540   -7.6620 nu        1 D17     -0.753600
     21 CAA         7.9980    3.8620   -8.6110 ca        1 D17      0.232600
     22 CAC         7.6460    3.3930   -9.9120 ca        1 D17     -0.225000
     23 CAE         8.6040    3.2640  -10.8950 ca        1 D17     -0.034500
     24 CAB         9.3630    4.1680   -8.3680 ca        1 D17     -0.225000
     25 CAG        10.3080    4.0320   -9.3710 ca        1 D17     -0.034500
     26 CAF         9.9580    3.5830  -10.6540 ca        1 D17     -0.183800
     27 CAH        10.9000    3.4290  -11.7280 ce        1 D17      0.077800
     28 CAI        12.2170    3.7270  -11.7330 cd        1 D17     -0.210600
     29 SBG        13.2120    4.3750  -10.5070 ss        1 D17     -0.034200
     30 CAL        14.6620    4.3830  -11.4720 c         1 D17      0.358000
     31 SBH        16.0280    4.8890  -10.9250 s         1 D17     -0.360400
     32 NAX        14.3790    3.8860  -12.7340 ns        1 D17     -0.550500
     33 CAK        13.0340    3.5000  -12.9510 c         1 D17      0.704700
     34 OBE        12.6570    3.0430  -14.0380 o         1 D17     -0.588500
     35 HG1C        3.0550   -0.7820   -2.9110 hc        1 D17      0.087700
     36 HG2C        1.8770   -2.0650   -2.4120 hc        1 D17      0.087700
     37 HB1C        0.4240    0.4810   -2.4470 hc        1 D17      0.065200
     38 HB2C        0.1870   -0.9770   -3.4830 hc        1 D17      0.065200
     39 HA          2.0220   -0.2280   -5.0150 h1        1 D17      0.065700
     40 H           2.2070    1.3230   -1.4760 ho        1 D17      0.440000
     41 HAQ         5.7840    2.1130   -5.7680 ha        1 D17      0.155000
     42 HAS         3.0550    4.0350   -3.0160 ha        1 D17      0.150000
     43 HAR         4.3020    6.1680   -3.2650 ha        1 D17      0.134000
     44 HAP         6.2660    6.3110   -4.7910 ha        1 D17      0.129000
     45 HAN1        8.1100    3.5430   -5.9200 h1        1 D17      0.048700
     46 HAN2        7.8220    5.3200   -6.2050 h1        1 D17      0.048700
     47 HAY         6.1170    3.6760   -7.8490 hn        1 D17      0.440800
     48 HAC         6.5990    3.1340  -10.1350 ha        1 D17      0.142500
     49 HAB         9.6820    4.5220   -7.3760 ha        1 D17      0.142500
     50 HAE         8.3060    2.9010  -11.8930 ha        1 D17      0.134500
     51 HAG        11.3580    4.2810   -9.1350 ha        1 D17      0.134500
     52 HAH1       10.4790    3.0150  -12.6710 ha        1 D17      0.151000
     53 HAX        15.0720    3.8040  -13.4420 hn        1 D17      0.354500
     54 H2          1.7910    2.5210   -4.3000 hn        1 D17      0.328500
@<TRIPOS>BOND
     1    1    2 1   
     2    1   40 1   
     3    2    3 2   
     4    2    4 1   
     5    4    5 1   
     6    4   35 1   
     7    4   36 1   
     8    5    6 1   
     9    5   37 1   
    10    5   38 1   
    11    6    7 1   
    12    6   10 1   
    13    6   39 1   
    14    7    8 1   
    15    7    9 1   
    16   10   11 1   
    17   10   54 1   
    18   11   12 2   
    19   11   13 1   
    20   13   14 ar  
    21   13   15 ar  
    22   14   18 ar  
    23   14   41 1   
    24   15   16 ar  
    25   15   42 1   
    26   16   17 ar  
    27   16   43 1   
    28   17   18 ar  
    29   17   44 1   
    30   18   19 1   
    31   19   20 1   
    32   19   45 1   
    33   19   46 1   
    34   20   21 1   
    35   20   47 1   
    36   21   22 ar  
    37   21   24 ar  
    38   22   23 ar  
    39   22   48 1   
    40   23   26 ar  
    41   23   50 1   
    42   24   25 ar  
    43   24   49 1   
    44   25   26 ar  
    45   25   51 1   
    46   26   27 1   
    47   27   28 2   
    48   27   52 1   
    49   28   29 1   
    50   28   33 1   
    51   29   30 1   
    52   30   31 2   
    53   30   32 1   
    54   32   33 1   
    55   32   53 1   
    56   33   34 2   
@<TRIPOS>SUBSTRUCTURE
     1 D17         1 TEMP              0 ****  ****    0 ROOT
