@<TRIPOS>MOLECULE
D17
   53    49     1     0     0
SMALL
bcc


@<TRIPOS>ATOM
      1 OE1        -6.6690   -5.1450    6.5100 o         1 D17     -0.612000
      2 CD         -5.4680   -5.2430    6.1480 c1        1 D17      0.324000
      3 OE2        -4.5930   -5.6290    6.9670 os        1 D17     -0.602000
      4 CG         -5.0730   -4.8920    4.7300 c3        1 D17     -0.212000
      5 CB         -4.6780   -3.4340    4.6640 c3        1 D17     -0.129000
      6 CA         -4.5860   -3.0020    3.2170 c3        1 D17     -0.082000
      7 C          -5.9150   -2.4280    2.7770 c2        1 D17      0.318000
      8 OXT        -6.3560   -1.3790    3.3150 o         1 D17     -0.590000
      9 O          -6.5850   -3.0080    1.8840 o         1 D17     -0.590000
     10 N          -3.5750   -2.0130    3.0820 n         1 D17     -0.267000
     11 CAU        -3.0890   -1.6680    1.7940 c2        1 D17      0.325000
     12 OBC        -3.3800   -2.3500    0.8320 o         1 D17     -0.396000
     13 CAT        -2.2530   -0.4200    1.6110 c2        1 D17     -0.111000
     14 CAQ        -1.1950   -0.4200    0.7150 c2        1 D17     -0.086000
     15 CAS        -2.5820    0.7400    2.2940 c1        1 D17     -0.079000
     16 CAR        -1.8520    1.9000    2.0830 c1        1 D17     -0.134500
     17 CAP        -0.7940    1.9000    1.1870 c1        1 D17     -0.134500
     18 CAO        -0.4650    0.7390    0.5030 c1        1 D17     -0.153000
     19 CAN         0.7420    0.7170   -0.4120 c3        1 D17      0.025000
     20 NAY         0.6920    1.8340   -1.2920 n3        1 D17     -0.302000
     21 CAA         1.7520    2.0640   -2.2100 c2        1 D17      0.179000
     22 CAC         2.0860    1.0910   -3.1390 c2        1 D17     -0.244000
     23 CAE         3.0700    1.3430   -4.0830 c1        1 D17     -0.018000
     24 CAB         2.4000    3.2890   -2.2260 c1        1 D17     -0.239000
     25 CAG         3.3840    3.5410   -3.1710 c1        1 D17     -0.027000
     26 CAF         3.7180    2.5670   -4.0990 c1        1 D17     -0.203000
     27 CAH         4.7290    2.8740   -5.1850 c2        1 D17      0.088000
     28 CAI         6.0290    2.5670   -5.0020 c1        1 D17     -0.460000
     29 SBG         6.6550    1.8880   -3.7150 s         1 D17      0.147500
     30 CAL         8.2470    1.6970   -3.9870 c2        1 D17     -0.174000
     31 SBH         9.3550    1.0370   -2.9210 s         1 D17      0.147500
     32 NAX         8.5610    2.2830   -5.3500 n         1 D17     -0.331000
     33 CAK         7.1730    2.8160   -6.0110 c2        1 D17      0.345000
     34 OBE         7.0560    3.3180   -7.1110 o         1 D17     -0.325000
     35 HG1C       -5.8310   -5.0520    4.1320 hc        1 D17      0.060000
     36 HG2C       -4.3170   -5.4480    4.4550 hc        1 D17      0.060000
     37 HB1C       -3.8090   -3.3110    5.0960 hc        1 D17      0.093000
     38 HB2C       -5.3500   -2.8920    5.1240 hc        1 D17      0.093000
     39 HA         -4.3640   -3.7740    2.6600 h1        1 D17      0.109000
     40 H          -3.2560   -1.5830    3.8200 hn        1 D17      0.202000
     41 HAQ        -0.9640   -1.2370    0.2330 ha        1 D17      0.142000
     42 HAS        -3.3330    0.7430    2.9180 ha        1 D17      0.228000
     43 HAR        -2.0830    2.7170    2.5640 ha        1 D17      0.120000
     44 HAP        -0.2810    2.7160    1.0380 ha        1 D17      0.120000
     45 HAN1        1.5600    0.7610    0.1260 h1        1 D17      0.084000
     46 HAN2        0.7400   -0.1110   -0.9350 h1        1 D17      0.084000
     47 HAY        -0.0160    2.4080   -1.2600 hn        1 D17      0.252000
     48 HAC         1.6300    0.2280   -3.1270 ha        1 D17      0.143000
     49 HAB         2.1650    3.9750   -1.5720 ha        1 D17      0.145000
     50 HAE         3.3070    0.6560   -4.7350 ha        1 D17      0.130000
     51 HAG         3.8360    4.4060   -3.1850 ha        1 D17      0.128000
     52 HAH1        4.4380    3.2930   -6.0170 ha        1 D17      0.146000
     53 HAX         9.3870    2.3290   -5.7340 hn        1 D17      0.264000
@<TRIPOS>BOND
     1    1    2 1   
     2    2    4 1   
     3    4    5 1   
     4    4   35 1   
     5    4   36 1   
     6    5    6 1   
     7    5   37 1   
     8    5   38 1   
     9    6    7 1   
    10    6   10 1   
    11    6   39 1   
    12    7    8 1   
    13    7    9 1   
    14   10   11 1   
    15   10   40 1   
    16   11   12 1   
    17   11   13 1   
    18   13   14 1   
    19   13   15 1   
    20   14   18 1   
    21   14   41 1   
    22   15   42 1   
    23   16   17 1   
    24   16   43 1   
    25   17   44 1   
    26   18   19 1   
    27   19   20 1   
    28   19   45 1   
    29   19   46 1   
    30   20   21 1   
    31   20   47 1   
    32   21   22 1   
    33   21   24 1   
    34   22   23 1   
    35   22   48 1   
    36   23   50 1   
    37   24   49 1   
    38   25   26 1   
    39   25   51 1   
    40   26   27 1   
    41   27   28 1   
    42   27   52 1   
    43   28   33 1   
    44   29   30 1   
    45   30   31 1   
    46   30   32 1   
    47   32   33 1   
    48   32   53 1   
    49   33   34 1   
@<TRIPOS>SUBSTRUCTURE
     1 D17         1 TEMP              0 ****  ****    0 ROOT
