@<TRIPOS>MOLECULE
D17
   53    55     1     0     0
SMALL
bcc


@<TRIPOS>ATOM
      1 OE1        -7.2570   -0.1850   -2.3650 o         1 D17     -0.874300
      2 CD         -8.1660    0.3740   -1.6700 c         1 D17      0.909600
      3 OE2        -9.3260    0.5830   -2.1320 o         1 D17     -0.874300
      4 CG         -7.8350    0.8490   -0.2510 c3        1 D17     -0.191400
      5 CB         -7.7000   -0.2900    0.7370 c3        1 D17     -0.073400
      6 CA         -6.4590   -0.1870    1.6410 c3        1 D17     -0.037300
      7 C          -6.5700   -1.2910    2.7490 c         1 D17      0.917600
      8 OXT        -7.0780   -0.9360    3.8500 o         1 D17     -0.849300
      9 O          -6.1640   -2.4610    2.5000 o         1 D17     -0.849300
     10 N          -5.2240   -0.3320    0.8930 n         1 D17     -0.482900
     11 CAU        -4.5110    0.7200    0.3940 c         1 D17      0.658700
     12 OBC        -4.5150    1.8790    0.8720 o         1 D17     -0.653100
     13 CAT        -3.5950    0.3980   -0.7570 ca        1 D17     -0.128600
     14 CAQ        -2.2130    0.5050   -0.6080 ca        1 D17     -0.092000
     15 CAS        -4.1530    0.0120   -1.9820 ca        1 D17     -0.075000
     16 CAR        -3.3070   -0.2700   -3.0560 ca        1 D17     -0.144000
     17 CAP        -1.9230   -0.1880   -2.9090 ca        1 D17     -0.122000
     18 CAO        -1.3720    0.2010   -1.6840 ca        1 D17     -0.169300
     19 CAN         0.1120    0.2980   -1.5210 c3        1 D17      0.271100
     20 NAY         0.6090   -0.6170   -0.5190 nh        1 D17     -0.741600
     21 CAA         1.9300   -0.7630   -0.2260 ca        1 D17      0.262600
     22 CAC         2.3420   -1.6690    0.8040 ca        1 D17     -0.243500
     23 CAE         3.6750   -1.8430    1.0950 ca        1 D17     -0.020000
     24 CAB         2.9530   -0.0500   -0.9190 ca        1 D17     -0.243500
     25 CAG         4.2840   -0.2450   -0.6100 ca        1 D17     -0.020000
     26 CAF         4.6880   -1.1430    0.3960 ca        1 D17     -0.220800
     27 CAH         6.0510   -1.3830    0.7470 ce        1 D17      0.105800
     28 CAI         7.1690   -0.8520    0.1970 cd        1 D17     -0.244600
     29 SBG         7.3460    0.2670   -1.0800 ss        1 D17     -0.012200
     30 CAL         9.0790    0.2910   -1.0230 c         1 D17      0.360000
     31 SBH         9.9510    1.1630   -1.9850 s         1 D17     -0.407400
     32 NAX         9.5240   -0.5570   -0.0230 n         1 D17     -0.551500
     33 CAK         8.5070   -1.2300    0.7010 c         1 D17      0.707700
     34 OBE         8.7840   -2.0160    1.6180 o         1 D17     -0.602500
     35 HG1C       -6.8860    1.4430   -0.3040 hc        1 D17      0.024200
     36 HG2C       -8.6440    1.5460    0.0880 hc        1 D17      0.024200
     37 HB1C       -8.5920   -0.3160    1.4160 hc        1 D17      0.046700
     38 HB2C       -7.6730   -1.2700    0.1890 hc        1 D17      0.046700
     39 HA         -6.4480    0.8200    2.1460 h1        1 D17      0.066700
     40 H          -5.1460   -1.2130    0.4300 hn        1 D17      0.313500
     41 HAQ        -1.7950    0.8360    0.3540 ha        1 D17      0.135000
     42 HAS        -5.2660   -0.0620   -2.0920 ha        1 D17      0.249000
     43 HAR        -3.7430   -0.5670   -4.0210 ha        1 D17      0.136000
     44 HAP        -1.2650   -0.4290   -3.7560 ha        1 D17      0.108000
     45 HAN1        0.6260    0.0750   -2.5020 h1        1 D17      0.042700
     46 HAN2        0.3890    1.3530   -1.2220 h1        1 D17      0.042700
     47 HAY        -0.0670   -1.1130    0.0200 hn        1 D17      0.457800
     48 HAC         1.5810   -2.2290    1.3700 ha        1 D17      0.145000
     49 HAB         2.6800    0.6670   -1.7080 ha        1 D17      0.145000
     50 HAE         3.9640   -2.5460    1.8930 ha        1 D17      0.128500
     51 HAG         5.0400    0.3290   -1.1730 ha        1 D17      0.128500
     52 HAH1        6.2080   -2.1040    1.5810 ha        1 D17      0.146000
     53 HAX        10.4890   -0.6850    0.1760 hn        1 D17      0.349500
@<TRIPOS>BOND
     1    1    2 1   
     2    2    3 1   
     3    2    4 1   
     4    4    5 1   
     5    4   35 1   
     6    4   36 1   
     7    5    6 1   
     8    5   37 1   
     9    5   38 1   
    10    6    7 1   
    11    6   10 1   
    12    6   39 1   
    13    7    8 1   
    14    7    9 1   
    15   10   11 1   
    16   10   40 1   
    17   11   12 2   
    18   11   13 1   
    19   13   14 ar  
    20   13   15 ar  
    21   14   18 ar  
    22   14   41 1   
    23   15   16 ar  
    24   15   42 1   
    25   16   17 ar  
    26   16   43 1   
    27   17   18 ar  
    28   17   44 1   
    29   18   19 1   
    30   19   20 1   
    31   19   45 1   
    32   19   46 1   
    33   20   21 1   
    34   20   47 1   
    35   21   22 ar  
    36   21   24 ar  
    37   22   23 ar  
    38   22   48 1   
    39   23   26 ar  
    40   23   50 1   
    41   24   25 ar  
    42   24   49 1   
    43   25   26 ar  
    44   25   51 1   
    45   26   27 1   
    46   27   28 2   
    47   27   52 1   
    48   28   29 1   
    49   28   33 1   
    50   29   30 1   
    51   30   31 2   
    52   30   32 1   
    53   32   33 1   
    54   32   53 1   
    55   33   34 2   
@<TRIPOS>SUBSTRUCTURE
     1 D17         1 TEMP              0 ****  ****    0 ROOT
