@<TRIPOS>MOLECULE
D17
   55    57     1     0     0
SMALL
bcc


@<TRIPOS>ATOM
      1 OE1         1.5700    1.9980   -5.6550 oh        1 D17     -0.605100
      2 CD          0.9600    1.0600   -4.8780 c         1 D17      0.630100
      3 OE2        -0.1650    1.4090   -4.5040 o         1 D17     -0.524000
      4 CG          1.5940   -0.2530   -4.5280 c3        1 D17     -0.165400
      5 CB          3.0320   -0.4470   -4.9430 c3        1 D17     -0.077400
      6 CA          4.0860    0.3980   -4.2070 c3        1 D17     -0.020300
      7 C           4.9840    1.0770   -5.2710 c         1 D17      0.871600
      8 OXT         6.2310    0.8350   -5.3100 o         1 D17     -0.852800
      9 O           4.4800    1.9520   -6.0460 o         1 D17     -0.852800
     10 N           3.5160    1.3980   -3.3080 n         1 D17     -0.516900
     11 CAU         4.4040    1.9300   -2.3280 c         1 D17      0.658700
     12 OBC         4.7270    1.3030   -1.3160 o         1 D17     -0.505100
     13 CAT         4.9270    3.3000   -2.6500 ca        1 D17     -0.155600
     14 CAQ         5.9930    3.3140   -3.5570 ca        1 D17     -0.090000
     15 CAS         4.3320    4.4940   -2.2530 ca        1 D17     -0.063000
     16 CAR         4.7680    5.6970   -2.8210 ca        1 D17     -0.131000
     17 CAP         5.7310    5.6990   -3.8290 ca        1 D17     -0.093000
     18 CAO         6.3330    4.4960   -4.2160 ca        1 D17     -0.155300
     19 CAN         7.2640    4.4200   -5.3820 c3        1 D17      0.186100
     20 NAY         6.8120    3.3800   -6.3650 n4        1 D17     -0.682400
     21 CAA         7.4890    3.5060   -7.6480 ca        1 D17      0.006600
     22 CAC         7.2300    4.6100   -8.4830 ca        1 D17     -0.106500
     23 CAE         7.8690    4.7070   -9.7110 ca        1 D17     -0.095500
     24 CAB         8.3760    2.5010   -8.0670 ca        1 D17     -0.106500
     25 CAG         9.0140    2.6160   -9.3010 ca        1 D17     -0.095500
     26 CAF         8.7780    3.7180  -10.1330 ca        1 D17     -0.049800
     27 CAH         9.4210    3.8800  -11.4220 ce        1 D17     -0.011200
     28 CAI        10.5100    3.2300  -11.8690 cd        1 D17     -0.129600
     29 SBG        11.4850    2.0480  -11.1350 ss        1 D17     -0.065200
     30 CAL        12.6000    1.8920  -12.4870 c         1 D17      0.346000
     31 SBH        13.7910    0.9160  -12.4410 s         1 D17     -0.250400
     32 NAX        12.2040    2.7560  -13.4970 n         1 D17     -0.548500
     33 CAK        11.0540    3.5310  -13.2310 c         1 D17      0.696700
     34 OBE        10.5980    4.3400  -14.0440 o         1 D17     -0.559500
     35 HG1C        0.9680   -1.0510   -5.0150 hc        1 D17      0.086700
     36 HG2C        1.4910   -0.3860   -3.4150 hc        1 D17      0.086700
     37 HB1C        3.1270   -0.2630   -6.0480 hc        1 D17      0.058700
     38 HB2C        3.2940   -1.5260   -4.7710 hc        1 D17      0.058700
     39 HA          4.7310   -0.2910   -3.5860 h1        1 D17      0.092700
     40 H           2.4490    1.7050   -5.9550 ho        1 D17      0.464000
     41 HAQ         6.5190    2.3670   -3.7810 ha        1 D17      0.178000
     42 HAS         3.5140    4.4930   -1.5150 ha        1 D17      0.156000
     43 HAR         4.3180    6.6460   -2.4940 ha        1 D17      0.146000
     44 HAP         6.0090    6.6430   -4.3210 ha        1 D17      0.134000
     45 HAN1        7.3140    5.4120   -5.9130 hx        1 D17      0.087200
     46 HAN2        8.3010    4.1380   -5.0430 hx        1 D17      0.087200
     47 HAY         6.9690    2.4080   -5.9710 hn        1 D17      0.507300
     48 HAC         6.5140    5.3920   -8.1790 ha        1 D17      0.165000
     49 HAB         8.5600    1.6100   -7.4400 ha        1 D17      0.165000
     50 HAE         7.6580    5.5700  -10.3640 ha        1 D17      0.159500
     51 HAG         9.6950    1.8060   -9.6190 ha        1 D17      0.159500
     52 HAH1        8.9550    4.6330  -12.0940 ha        1 D17      0.166000
     53 HAX        12.6950    2.8260  -14.3600 hn        1 D17      0.364500
     54 H2          3.0710    2.1300   -3.8370 hn        1 D17      0.283500
     55 HAY2        5.7750    3.4230   -6.5010 hn        1 D17      0.507300
@<TRIPOS>BOND
     1    1    2 1   
     2    1   40 1   
     3    2    3 2   
     4    2    4 1   
     5    4    5 1   
     6    4   35 1   
     7    4   36 1   
     8    5    6 1   
     9    5   37 1   
    10    5   38 1   
    11    6    7 1   
    12    6   10 1   
    13    6   39 1   
    14    7    8 1   
    15    7    9 1   
    16   10   11 1   
    17   10   54 1   
    18   11   12 2   
    19   11   13 1   
    20   13   14 ar  
    21   13   15 ar  
    22   14   18 ar  
    23   14   41 1   
    24   15   16 ar  
    25   15   42 1   
    26   16   17 ar  
    27   16   43 1   
    28   17   18 ar  
    29   17   44 1   
    30   18   19 1   
    31   19   20 1   
    32   19   45 1   
    33   19   46 1   
    34   20   21 1   
    35   20   47 1   
    36   20   55 1   
    37   21   22 ar  
    38   21   24 ar  
    39   22   23 ar  
    40   22   48 1   
    41   23   26 ar  
    42   23   50 1   
    43   24   25 ar  
    44   24   49 1   
    45   25   26 ar  
    46   25   51 1   
    47   26   27 1   
    48   27   28 2   
    49   27   52 1   
    50   28   29 1   
    51   28   33 1   
    52   29   30 1   
    53   30   31 2   
    54   30   32 1   
    55   32   33 1   
    56   32   53 1   
    57   33   34 2   
@<TRIPOS>SUBSTRUCTURE
     1 D17         1 TEMP              0 ****  ****    0 ROOT
