@<TRIPOS>MOLECULE
D17
   54    56     1     0     0
SMALL
bcc


@<TRIPOS>ATOM
      1 OE1         2.2810    0.7930   -0.6690 oh        1 D17     -0.603100
      2 CD          2.1810   -0.5330   -0.9920 c         1 D17      0.636100
      3 OE2         2.2620   -1.2740   -0.0080 o         1 D17     -0.537000
      4 CG          2.0220   -0.9410   -2.4220 c3        1 D17     -0.187400
      5 CB          0.9200   -0.1860   -3.1420 c3        1 D17     -0.076400
      6 CA          1.4100    0.5540   -4.3890 c3        1 D17     -0.074300
      7 C           0.1340    0.9900   -5.2150 c         1 D17      0.914600
      8 OXT        -0.5920    0.0550   -5.6330 o         1 D17     -0.818300
      9 O          -0.0600    2.2230   -5.3990 o         1 D17     -0.818300
     10 N           2.2630    1.6920   -4.0850 n         1 D17     -0.513900
     11 CAU         3.6230    1.6450   -4.2950 c         1 D17      0.640700
     12 OBC         4.2670    0.5710   -4.3520 o         1 D17     -0.636100
     13 CAT         4.3560    2.9500   -4.3830 ca        1 D17     -0.123600
     14 CAQ         5.4700    3.0140   -5.2270 ca        1 D17     -0.079000
     15 CAS         3.9700    4.0780   -3.6530 ca        1 D17     -0.085000
     16 CAR         4.6910    5.2660   -3.7780 ca        1 D17     -0.141000
     17 CAP         5.7890    5.3380   -4.6340 ca        1 D17     -0.103000
     18 CAO         6.1830    4.2090   -5.3580 ca        1 D17     -0.130300
     19 CAN         7.3790    4.2700   -6.2610 c3        1 D17      0.259100
     20 NAY         7.0400    4.0540   -7.6460 nh        1 D17     -0.753600
     21 CAA         8.0090    3.8590   -8.6040 ca        1 D17      0.232600
     22 CAC         7.6400    3.4170   -9.9090 ca        1 D17     -0.225000
     23 CAE         8.5900    3.2860  -10.9010 ca        1 D17     -0.034500
     24 CAB         9.3800    4.1370   -8.3640 ca        1 D17     -0.225000
     25 CAG        10.3170    3.9990   -9.3750 ca        1 D17     -0.034500
     26 CAF         9.9510    3.5770  -10.6630 ca        1 D17     -0.183800
     27 CAH        10.8830    3.4230  -11.7460 ce        1 D17      0.077800
     28 CAI        12.2050    3.6970  -11.7540 cd        1 D17     -0.210600
     29 SBG        13.2200    4.3070  -10.5240 ss        1 D17     -0.034200
     30 CAL        14.6630    4.3040  -11.4980 c         1 D17      0.358000
     31 SBH        16.0420    4.7760  -10.9520 s         1 D17     -0.360400
     32 NAX        14.3640    3.8330  -12.7670 n         1 D17     -0.550500
     33 CAK        13.0100    3.4750  -12.9810 c         1 D17      0.704700
     34 OBE        12.6190    3.0420  -14.0720 o         1 D17     -0.588500
     35 HG1C        1.8130   -2.0430   -2.4470 hc        1 D17      0.087700
     36 HG2C        3.0120   -0.7750   -2.9350 hc        1 D17      0.087700
     37 HB1C        0.4050    0.5280   -2.4480 hc        1 D17      0.065200
     38 HB2C        0.1400   -0.9130   -3.5020 hc        1 D17      0.065200
     39 HA          1.9830   -0.1780   -5.0300 h1        1 D17      0.065700
     40 H           1.8040    2.5660   -4.2800 hn        1 D17      0.328500
     41 HAQ         5.7800    2.1070   -5.7710 ha        1 D17      0.155000
     42 HAS         3.1020    4.0380   -2.9760 ha        1 D17      0.150000
     43 HAR         4.3860    6.1520   -3.2030 ha        1 D17      0.134000
     44 HAP         6.3440    6.2820   -4.7380 ha        1 D17      0.129000
     45 HAN1        7.8730    5.2830   -6.1750 h1        1 D17      0.048700
     46 HAN2        8.1310    3.4970   -5.9170 h1        1 D17      0.048700
     47 HAY         6.1290    3.6950   -7.8330 hn        1 D17      0.440800
     48 HAC         6.5880    3.1800  -10.1300 ha        1 D17      0.142500
     49 HAB         9.7120    4.4690   -7.3690 ha        1 D17      0.142500
     50 HAE         8.2790    2.9430  -11.9010 ha        1 D17      0.134500
     51 HAG        11.3720    4.2260   -9.1430 ha        1 D17      0.134500
     52 HAH1       10.4490    3.0320  -12.6930 ha        1 D17      0.151000
     53 HAX        15.0510    3.7490  -13.4790 hn        1 D17      0.354500
     54 H2          2.2050    1.3270   -1.4730 ho        1 D17      0.440000
@<TRIPOS>BOND
     1    1    2 1   
     2    1   54 1   
     3    2    3 2   
     4    2    4 1   
     5    4    5 1   
     6    4   35 1   
     7    4   36 1   
     8    5    6 1   
     9    5   37 1   
    10    5   38 1   
    11    6    7 1   
    12    6   10 1   
    13    6   39 1   
    14    7    8 1   
    15    7    9 1   
    16   10   11 1   
    17   10   40 1   
    18   11   12 2   
    19   11   13 1   
    20   13   14 ar  
    21   13   15 ar  
    22   14   18 ar  
    23   14   41 1   
    24   15   16 ar  
    25   15   42 1   
    26   16   17 ar  
    27   16   43 1   
    28   17   18 ar  
    29   17   44 1   
    30   18   19 1   
    31   19   20 1   
    32   19   45 1   
    33   19   46 1   
    34   20   21 1   
    35   20   47 1   
    36   21   22 ar  
    37   21   24 ar  
    38   22   23 ar  
    39   22   48 1   
    40   23   26 ar  
    41   23   50 1   
    42   24   25 ar  
    43   24   49 1   
    44   25   26 ar  
    45   25   51 1   
    46   26   27 1   
    47   27   28 2   
    48   27   52 1   
    49   28   29 1   
    50   28   33 1   
    51   29   30 1   
    52   30   31 2   
    53   30   32 1   
    54   32   33 1   
    55   32   53 1   
    56   33   34 2   
@<TRIPOS>SUBSTRUCTURE
     1 D17         1 TEMP              0 ****  ****    0 ROOT
