@<TRIPOS>MOLECULE
D18
   61    55     1     0     0
SMALL
bcc


@<TRIPOS>ATOM
      1 C10        -4.7450   -4.9900   -5.8760 c3        1 D18     -0.229500
      2 C9         -5.8410   -2.7920   -5.3160 c3        1 D18     -0.229500
      3 C8         -4.5300   -3.4690   -5.7780 c3        1 D18     -0.016000
      4 N2         -3.4700   -3.1880   -4.8130 n3        1 D18     -0.348000
      5 C7         -2.3580   -2.5840   -5.4850 c3        1 D18      0.084000
      6 N1         -1.6950   -3.5530   -6.2590 n3        1 D18     -0.325000
      7 C1          0.4660   -0.9820   -2.6230 c1        1 D18     -0.016000
      8 C2          0.0260   -0.1900   -3.6850 c1        1 D18     -0.104000
      9 C3         -0.9020   -0.7010   -4.6010 c1        1 D18     -0.115000
     10 C4         -1.3880   -2.0050   -4.4520 c2        1 D18     -0.085000
     11 C5         -0.9470   -2.7960   -3.3890 c2        1 D18     -0.127000
     12 C6         -0.0190   -2.2850   -2.4730 c1        1 D18     -0.111000
     13 CA          1.4010   -0.4650   -1.6940 c1        1 D18      0.006000
     14 CB          2.7790   -0.4750   -1.8350 c1        1 D18     -0.179000
     15 CB'         3.3230    0.1100   -0.7200 c1        1 D18     -0.182000
     16 CA'         2.2870    0.4840    0.1140 c2        1 D18      0.010000
     17 O1          1.1020    0.1270   -0.4920 os        1 D18     -0.100000
     18 C1'         2.4170    1.1580    1.3320 c1        1 D18     -0.018000
     19 C2'         2.4890    2.5400    1.3520 c1        1 D18     -0.105000
     20 C3'         2.5680    3.2140    2.5640 c1        1 D18     -0.105000
     21 C4'         2.5750    2.5000    3.7560 c1        1 D18     -0.047000
     22 C5'         2.5020    1.1170    3.7350 c1        1 D18     -0.129000
     23 C6'         2.4230    0.4450    2.5220 c1        1 D18     -0.110000
     24 C7'         2.7290    3.2320    5.0810 c3        1 D18      0.089000
     25 N1'         4.0920    3.2160    5.4750 n3        1 D18     -0.371000
     26 N2'         1.9360    2.5850    6.0790 n3        1 D18     -0.343000
     27 C8'         1.2680    3.5820    6.8880 c3        1 D18     -0.020000
     28 C9'        -0.2170    3.4080    6.7700 c3        1 D18     -0.226500
     29 CAX         1.6820    3.4170    8.3400 c3        1 D18     -0.226500
     30 H101       -5.1260   -5.3240   -5.0290 hc        1 D18      0.078500
     31 H102       -5.3650   -5.1870   -6.6160 hc        1 D18      0.078500
     32 H103       -3.8870   -5.4300   -6.0450 hc        1 D18      0.078500
     33 H91        -6.0730   -3.1070   -4.4090 hc        1 D18      0.078500
     34 H92        -6.5690   -3.0240   -5.9400 hc        1 D18      0.078500
     35 H93        -5.7200   -1.8150   -5.3030 hc        1 D18      0.078500
     36 H8         -4.2740   -3.1200   -6.6520 h1        1 D18      0.092000
     37 HN2        -3.7860   -2.6150   -4.1680 hn        1 D18      0.161000
     38 H7         -2.6820   -1.8630   -6.0700 h2        1 D18      0.108000
     39 HN11       -0.7980   -3.3690   -6.2750 hn        1 D18      0.146500
     40 HN12       -2.0260   -3.5390   -7.1170 hn        1 D18      0.146500
     41 H2          0.3680    0.7280   -3.7900 ha        1 D18      0.148000
     42 H3         -1.2140   -0.1420   -5.3530 ha        1 D18      0.138000
     43 H5         -1.2890   -3.7170   -3.2830 ha        1 D18      0.134000
     44 H6          0.2930   -2.8440   -1.7220 ha        1 D18      0.136000
     45 HB          3.2760   -0.8350   -2.5960 DU        1 D18      0.161000
     46 HB'         4.2790    0.2400   -0.5460 DU        1 D18      0.161000
     47 H2'         2.4840    3.0470    0.5060 ha        1 D18      0.143500
     48 H3'         2.6190    4.1980    2.5790 ha        1 D18      0.143500
     49 H5'         2.5070    0.6120    4.5760 ha        1 D18      0.126000
     50 H6'         2.3720   -0.5380    2.5080 ha        1 D18      0.135000
     51 H7'         2.4330    4.1510    4.9790 h2        1 D18      0.117000
     52 HN'1        4.1900    3.6910    6.2430 hn        1 D18      0.147500
     53 HN'2        4.3610    2.3460    5.6150 hn        1 D18      0.147500
     54 HN2'        2.4760    2.0700    6.6120 hn        1 D18      0.161000
     55 H8'         1.5170    4.4760    6.5760 h1        1 D18      0.089000
     56 H9'1       -0.4650    2.5000    7.0590 hc        1 D18      0.077167
     57 H9'2       -0.6710    4.0690    7.3390 hc        1 D18      0.077167
     58 H9'3       -0.4860    3.5380    5.8460 hc        1 D18      0.077167
     59 H1'1        1.0100    3.8410    8.9220 hc        1 D18      0.077167
     60 H1'2        2.5480    3.8410    8.4820 hc        1 D18      0.077167
     61 H1'3        1.7450    2.4640    8.5550 hc        1 D18      0.077167
@<TRIPOS>BOND
     1    1    3 1   
     2    1   30 1   
     3    1   31 1   
     4    1   32 1   
     5    2    3 1   
     6    2   33 1   
     7    2   34 1   
     8    2   35 1   
     9    3    4 1   
    10    3   36 1   
    11    4    5 1   
    12    4   37 1   
    13    5    6 1   
    14    5   10 1   
    15    5   38 1   
    16    6   39 1   
    17    6   40 1   
    18    7    8 1   
    19    8   41 1   
    20    9   10 1   
    21    9   42 1   
    22   10   11 1   
    23   11   12 1   
    24   11   43 1   
    25   12   44 1   
    26   13   14 1   
    27   13   17 1   
    28   14   15 1   
    29   15   16 1   
    30   16   17 1   
    31   16   18 1   
    32   18   23 1   
    33   19   20 1   
    34   19   47 1   
    35   20   48 1   
    36   21   22 1   
    37   21   24 1   
    38   22   49 1   
    39   23   50 1   
    40   24   25 1   
    41   24   26 1   
    42   24   51 1   
    43   25   52 1   
    44   25   53 1   
    45   26   27 1   
    46   26   54 1   
    47   27   28 1   
    48   27   29 1   
    49   27   55 1   
    50   28   56 1   
    51   28   57 1   
    52   28   58 1   
    53   29   59 1   
    54   29   60 1   
    55   29   61 1   
@<TRIPOS>SUBSTRUCTURE
     1 D18         1 TEMP              0 ****  ****    0 ROOT
