@<TRIPOS>MOLECULE
D18
   65    67     1     0     0
SMALL
bcc


@<TRIPOS>ATOM
      1 C10        -0.0830    0.3920   -0.1390 c3        1 D18     -0.153850
      2 C9          1.9790   -0.1440   -1.4450 c3        1 D18     -0.153850
      3 C8          1.2690   -0.3070   -0.1120 c3        1 D18      0.141000
      4 N2          2.1140    0.2560    1.0370 n4        1 D18     -0.811500
      5 C7          3.2700   -0.6200    1.4710 c3        1 D18      0.412500
      6 N1          2.8520   -1.8650    2.2410 n4        1 D18     -0.869600
      7 C1          6.1830    1.6090    3.7480 ca        1 D18     -0.023000
      8 C2          4.8630    1.4830    4.2270 ca        1 D18     -0.097500
      9 C3          3.9130    0.7690    3.5050 ca        1 D18     -0.079000
     10 C4          4.2600    0.1620    2.2870 ca        1 D18     -0.277300
     11 C5          5.5710    0.2780    1.8020 ca        1 D18     -0.079000
     12 C6          6.5190    0.9940    2.5250 ca        1 D18     -0.097500
     13 CA          7.2040    2.3420    4.4500 cc        1 D18      0.277200
     14 CB          8.5230    2.6120    4.0940 cd        1 D18     -0.171300
     15 CB'         9.0970    3.3790    5.1610 cd        1 D18     -0.171300
     16 CA'         8.1040    3.5430    6.1240 cc        1 D18      0.277200
     17 O1          6.9180    2.9110    5.7050 os        1 D18     -0.350800
     18 C1'         8.1430    4.2220    7.3930 ca        1 D18     -0.023000
     19 C2'         7.0210    4.3280    8.2400 ca        1 D18     -0.097500
     20 C3'         7.1130    4.9980    9.4550 ca        1 D18     -0.079000
     21 C4'         8.3290    5.5760    9.8550 ca        1 D18     -0.277300
     22 C5'         9.4520    5.4760    9.0190 ca        1 D18     -0.079000
     23 C6'         9.3570    4.8080    7.8040 ca        1 D18     -0.097500
     24 C7'         8.4790    6.3050   11.1590 c3        1 D18      0.412500
     25 N1'         8.3030    5.3240   12.3100 n4        1 D18     -0.869600
     26 N2'         7.5530    7.5030   11.2260 n4        1 D18     -0.811500
     27 C8'         8.0800    8.6750   12.0580 c3        1 D18      0.141000
     28 C9'         7.1270    9.8540   11.9140 c3        1 D18     -0.153850
     29 CAX         8.2640    8.3090   13.5180 c3        1 D18     -0.153850
     30 H101       -0.6390    0.2780    0.8240 hc        1 D18      0.099283
     31 H102        0.0140    1.4780   -0.3890 hc        1 D18      0.099283
     32 H103       -0.7020   -0.0870   -0.9460 hc        1 D18      0.099283
     33 H91         1.3260   -0.5960   -2.2420 hc        1 D18      0.099283
     34 H92         2.1280    0.9330   -1.7100 hc        1 D18      0.099283
     35 H93         2.9620   -0.6730   -1.4740 hc        1 D18      0.099283
     36 H8          1.1170   -1.4030    0.1120 hx        1 D18      0.103200
     37 HN2         1.5000    0.4870    1.8270 hn        1 D18      0.476550
     38 H7          3.7560   -1.0000    0.5040 hx        1 D18      0.170700
     39 HN11        2.1890   -2.4490    1.7150 hn        1 D18      0.488800
     40 HN12        2.4490   -1.6240    3.1550 hn        1 D18      0.488800
     41 H3          2.8900    0.6940    3.9050 ha        1 D18      0.152000
     42 H5          5.8690   -0.1890    0.8470 ha        1 D18      0.152000
     43 H6          7.5470    1.0760    2.1270 ha        1 D18      0.184500
     44 HB          9.0460    2.3140    3.1830 ha        1 D18      0.198000
     45 HB'        10.1230    3.7510    5.1850 ha        1 D18      0.198000
     46 H2'         6.0640    3.8740    7.9290 ha        1 D18      0.184500
     47 H3'         6.2160    5.0680   10.0910 ha        1 D18      0.152000
     48 H5'        10.4190    5.9240    9.3090 ha        1 D18      0.152000
     49 H6'        10.2520    4.7400    7.1580 ha        1 D18      0.184500
     50 H7'         9.5430    6.7190   11.2650 hx        1 D18      0.170700
     51 HN'1        7.4150    4.8120   12.2290 hn        1 D18      0.488800
     52 HN'2        8.3540    5.7860   13.2290 hn        1 D18      0.488800
     53 HN2'        6.6180    7.2490   11.5650 hn        1 D18      0.476550
     54 H8'         9.0820    8.9480   11.6010 hx        1 D18      0.103200
     55 H9'1        6.9550   10.1330   10.8450 hc        1 D18      0.099283
     56 H9'2        6.1460    9.6610   12.4140 hc        1 D18      0.099283
     57 H9'3        7.5990   10.7420   12.4170 hc        1 D18      0.099283
     58 H1'1        9.1480    7.6450   13.6760 hc        1 D18      0.099283
     59 H1'2        7.3450    7.8630   13.9710 hc        1 D18      0.099283
     60 H1'3        8.4750    9.2590   14.0880 hc        1 D18      0.099283
     61 H22         2.5410    1.1410    0.7100 hn        1 D18      0.476550
     62 H13         3.7130   -2.4140    2.4100 hn        1 D18      0.488800
     63 H1'4        9.0720    4.6350   12.2400 hn        1 D18      0.488800
     64 H2'2        7.4450    7.8400   10.2520 hn        1 D18      0.476550
     65 H2          4.5880    1.9590    5.1840 ha        1 D18      0.184500
@<TRIPOS>BOND
     1    1    3 1   
     2    1   30 1   
     3    1   31 1   
     4    1   32 1   
     5    2    3 1   
     6    2   33 1   
     7    2   34 1   
     8    2   35 1   
     9    3    4 1   
    10    3   36 1   
    11    4    5 1   
    12    4   37 1   
    13    4   61 1   
    14    5    6 1   
    15    5   10 1   
    16    5   38 1   
    17    6   39 1   
    18    6   40 1   
    19    6   62 1   
    20    7    8 ar  
    21    7   12 ar  
    22    7   13 1   
    23    8    9 ar  
    24    8   65 1   
    25    9   10 ar  
    26    9   41 1   
    27   10   11 ar  
    28   11   12 ar  
    29   11   42 1   
    30   12   43 1   
    31   13   14 2   
    32   13   17 1   
    33   14   15 1   
    34   14   44 1   
    35   15   16 2   
    36   15   45 1   
    37   16   17 1   
    38   16   18 1   
    39   18   19 ar  
    40   18   23 ar  
    41   19   20 ar  
    42   19   46 1   
    43   20   21 ar  
    44   20   47 1   
    45   21   22 ar  
    46   21   24 1   
    47   22   23 ar  
    48   22   48 1   
    49   23   49 1   
    50   24   25 1   
    51   24   26 1   
    52   24   50 1   
    53   25   51 1   
    54   25   52 1   
    55   25   63 1   
    56   26   27 1   
    57   26   53 1   
    58   26   64 1   
    59   27   28 1   
    60   27   29 1   
    61   27   54 1   
    62   28   55 1   
    63   28   56 1   
    64   28   57 1   
    65   29   58 1   
    66   29   59 1   
    67   29   60 1   
@<TRIPOS>SUBSTRUCTURE
     1 D18         1 TEMP              0 ****  ****    0 ROOT
