@<TRIPOS>MOLECULE
D18
   65    67     1     0     0
SMALL
bcc


@<TRIPOS>ATOM
      1 C10        -0.0990    0.3540   -0.0990 c3        1 D18     -0.153850
      2 C9          1.9580   -0.1190   -1.4380 c3        1 D18     -0.153850
      3 C8          1.2670   -0.3180   -0.1000 c3        1 D18      0.141000
      4 N2          2.1150    0.2410    1.0480 ny        1 D18     -0.811500
      5 C7          3.2920   -0.6190    1.4540 c3        1 D18      0.412500
      6 N1          2.9070   -1.8850    2.2080 nz        1 D18     -0.869600
      7 C1          6.1910    1.6210    3.7360 ca        1 D18     -0.023000
      8 C2          4.8790    1.4660    4.2270 ca        1 D18     -0.097500
      9 C3          3.9340    0.7480    3.5030 ca        1 D18     -0.079000
     10 C4          4.2770    0.1670    2.2720 ca        1 D18     -0.277300
     11 C5          5.5800    0.3150    1.7740 ca        1 D18     -0.079000
     12 C6          6.5240    1.0340    2.4980 ca        1 D18     -0.097500
     13 CA          7.2090    2.3560    4.4420 cc        1 D18      0.277200
     14 CB          8.5260    2.6340    4.0870 cd        1 D18     -0.171300
     15 CB'         9.0970    3.3960    5.1600 cd        1 D18     -0.171300
     16 CA'         8.1040    3.5500    6.1230 cc        1 D18      0.277200
     17 O1          6.9200    2.9160    5.7010 os        1 D18     -0.350800
     18 C1'         8.1390    4.2230    7.3960 ca        1 D18     -0.023000
     19 C2'         7.0100    4.3420    8.2320 ca        1 D18     -0.097500
     20 C3'         7.0980    5.0090    9.4480 ca        1 D18     -0.079000
     21 C4'         8.3170    5.5720    9.8610 ca        1 D18     -0.277300
     22 C5'         9.4470    5.4580    9.0380 ca        1 D18     -0.079000
     23 C6'         9.3570    4.7920    7.8200 ca        1 D18     -0.097500
     24 C7'         8.4630    6.2990   11.1670 c3        1 D18      0.412500
     25 N1'         8.2610    5.3210   12.3160 nz        1 D18     -0.869600
     26 N2'         7.5510    7.5090   11.2230 ny        1 D18     -0.811500
     27 C8'         8.0840    8.6750   12.0610 c3        1 D18      0.141000
     28 C9'         7.1480    9.8660   11.9050 c3        1 D18     -0.153850
     29 CAX         8.2450    8.3070   13.5230 c3        1 D18     -0.153850
     30 H101       -0.0260    1.4450   -0.3320 hc        1 D18      0.099283
     31 H102       -0.7180   -0.1230   -0.9070 hc        1 D18      0.099283
     32 H103       -0.6400    0.2130    0.8680 hc        1 D18      0.099283
     33 H91         2.9500   -0.6280   -1.4880 hc        1 D18      0.099283
     34 H92         2.0820    0.9650   -1.6870 hc        1 D18      0.099283
     35 H93         1.3040   -0.5700   -2.2360 hc        1 D18      0.099283
     36 H8          1.1390   -1.4210    0.1060 hx        1 D18      0.103200
     37 HN2         2.5210    1.1400    0.7310 hn        1 D18      0.476550
     38 H7          3.7730   -0.9750    0.4750 hx        1 D18      0.170700
     39 HN11        2.2480   -2.4720    1.6810 hn        1 D18      0.488967
     40 HN12        2.5100   -1.6660    3.1310 hn        1 D18      0.488967
     41 H3          2.9160    0.6480    3.9130 ha        1 D18      0.152000
     42 H5          5.8750   -0.1310    0.8070 ha        1 D18      0.152000
     43 H6          7.5460    1.1410    2.0910 ha        1 D18      0.184500
     44 HB          9.0510    2.3440    3.1760 ha        1 D18      0.198000
     45 HB'        10.1220    3.7720    5.1870 ha        1 D18      0.198000
     46 H2'         6.0510    3.9000    7.9110 ha        1 D18      0.184500
     47 H3'         6.1960    5.0890   10.0760 ha        1 D18      0.152000
     48 H5'        10.4170    5.8930    9.3380 ha        1 D18      0.152000
     49 H6'        10.2580    4.7130    7.1840 ha        1 D18      0.184500
     50 H7'         9.5300    6.6990   11.2850 hx        1 D18      0.170700
     51 HN'1        9.0220    4.6220   12.2550 hn        1 D18      0.488967
     52 HN'2        8.3080    5.7830   13.2360 hn        1 D18      0.488967
     53 HN2'        6.6090    7.2670   11.5520 hn        1 D18      0.476550
     54 H8'         9.0950    8.9340   11.6150 hx        1 D18      0.103200
     55 H9'1        7.6260   10.7480   12.4130 hc        1 D18      0.099283
     56 H9'2        6.1590    9.6860   12.3930 hc        1 D18      0.099283
     57 H9'3        6.9930   10.1460   10.8330 hc        1 D18      0.099283
     58 H1'1        7.3160    7.8730   13.9650 hc        1 D18      0.099283
     59 H1'2        8.4620    9.2550   14.0950 hc        1 D18      0.099283
     60 H1'3        9.1190    7.6320   13.6920 hc        1 D18      0.099283
     61 H22         1.5060    0.4480    1.8490 hn        1 D18      0.476550
     62 H13         3.7800   -2.4200    2.3580 hn        1 D18      0.488967
     63 H1'4        7.3670    4.8200   12.2260 hn        1 D18      0.488967
     64 H2'2        7.4580    7.8470   10.2480 hn        1 D18      0.476550
     65 H2          4.6060    1.9210    5.1950 ha        1 D18      0.184500
@<TRIPOS>BOND
     1    1    3 1   
     2    1   30 1   
     3    1   31 1   
     4    1   32 1   
     5    2    3 1   
     6    2   33 1   
     7    2   34 1   
     8    2   35 1   
     9    3    4 1   
    10    3   36 1   
    11    4    5 1   
    12    4   37 1   
    13    4   61 1   
    14    5    6 1   
    15    5   10 1   
    16    5   38 1   
    17    6   39 1   
    18    6   40 1   
    19    6   62 1   
    20    7    8 ar  
    21    7   12 ar  
    22    7   13 1   
    23    8    9 ar  
    24    8   65 1   
    25    9   10 ar  
    26    9   41 1   
    27   10   11 ar  
    28   11   12 ar  
    29   11   42 1   
    30   12   43 1   
    31   13   14 2   
    32   13   17 1   
    33   14   15 1   
    34   14   44 1   
    35   15   16 2   
    36   15   45 1   
    37   16   17 1   
    38   16   18 1   
    39   18   19 ar  
    40   18   23 ar  
    41   19   20 ar  
    42   19   46 1   
    43   20   21 ar  
    44   20   47 1   
    45   21   22 ar  
    46   21   24 1   
    47   22   23 ar  
    48   22   48 1   
    49   23   49 1   
    50   24   25 1   
    51   24   26 1   
    52   24   50 1   
    53   25   51 1   
    54   25   52 1   
    55   25   63 1   
    56   26   27 1   
    57   26   53 1   
    58   26   64 1   
    59   27   28 1   
    60   27   29 1   
    61   27   54 1   
    62   28   55 1   
    63   28   56 1   
    64   28   57 1   
    65   29   58 1   
    66   29   59 1   
    67   29   60 1   
@<TRIPOS>SUBSTRUCTURE
     1 D18         1 TEMP              0 ****  ****    0 ROOT
