@<TRIPOS>MOLECULE
D18
   61    63     1     0     0
SMALL
bcc


@<TRIPOS>ATOM
      1 C10        -3.4780   -0.5690    7.8280 c3        1 D18     -0.102850
      2 C9         -1.4180   -1.9490    7.7420 c3        1 D18     -0.102850
      3 C8         -1.9620   -0.5240    7.6140 c3        1 D18      0.180500
      4 N2         -1.6310    0.1580    6.3740 n3        1 D18     -0.868700
      5 C7         -0.2210    0.5850    6.2570 c3        1 D18      0.445500
      6 N1          0.0080    1.9900    6.6010 n3        1 D18     -0.893300
      7 C1          1.3200   -0.2300    2.2980 ca        1 D18     -0.123500
      8 C2          0.1700    0.5590    2.4600 ca        1 D18     -0.108500
      9 C3         -0.3250    0.8230    3.7330 ca        1 D18     -0.119000
     10 C4          0.3160    0.3010    4.8610 ca        1 D18     -0.091800
     11 C5          1.4640   -0.4790    4.7060 ca        1 D18     -0.119000
     12 C6          1.9640   -0.7460    3.4340 ca        1 D18     -0.108500
     13 CA          1.8480   -0.5140    0.9870 cc        1 D18      0.309200
     14 CB          2.9570   -1.2200    0.5430 cd        1 D18     -0.243800
     15 CB'         2.9530   -1.1500   -0.8940 cd        1 D18     -0.243800
     16 CA'         1.8410   -0.4040   -1.2600 cc        1 D18      0.309200
     17 O1          1.1410    0.0000   -0.1120 os        1 D18     -0.358800
     18 C1'         1.3060    0.0070   -2.5330 ca        1 D18     -0.123500
     19 C2'         0.1560    0.8090   -2.6100 ca        1 D18     -0.108500
     20 C3'        -0.3470    1.1950   -3.8490 ca        1 D18     -0.119000
     21 C4'         0.2860    0.7880   -5.0260 ca        1 D18     -0.091800
     22 C5'         1.4340   -0.0050   -4.9540 ca        1 D18     -0.119000
     23 C6'         1.9420   -0.3950   -3.7180 ca        1 D18     -0.108500
     24 C7'        -0.2680    1.1970   -6.3870 c3        1 D18      0.445500
     25 N1'        -0.1670    2.6470   -6.5490 n3        1 D18     -0.893300
     26 N2'        -1.6170    0.6490   -6.6280 n3        1 D18     -0.868700
     27 C8'        -1.6230   -0.7390   -7.0830 c3        1 D18      0.180500
     28 C9'        -2.9100   -1.4700   -6.6950 c3        1 D18     -0.102850
     29 CAX        -1.4450   -0.8370   -8.6000 c3        1 D18     -0.102850
     30 H101       -3.9710   -1.1940    7.0460 hc        1 D18      0.038700
     31 H102       -3.6900   -1.0160    8.8290 hc        1 D18      0.038700
     32 H103       -3.9150    0.4570    7.7940 hc        1 D18      0.038700
     33 H91        -1.8510   -2.6100    6.9530 hc        1 D18      0.038700
     34 H92        -0.3060   -1.9660    7.6490 hc        1 D18      0.038700
     35 H93        -1.6940   -2.3640    8.7410 hc        1 D18      0.038700
     36 H8         -1.5160    0.0920    8.4540 h1        1 D18      0.037700
     37 HN2        -1.9200   -0.3770    5.5800 hn        1 D18      0.367800
     38 H7          0.4160    0.0000    7.0000 h2        1 D18      0.064200
     39 HN11       -0.3820    2.5970    5.9060 hn        1 D18      0.352050
     40 HN12       -0.4090    2.2070    7.4860 hn        1 D18      0.352050
     41 H3         -1.2250    1.4460    3.8510 ha        1 D18      0.137250
     42 H5          1.9820   -0.8810    5.5900 ha        1 D18      0.137250
     43 H6          2.8690   -1.3600    3.3170 ha        1 D18      0.142000
     44 HB          3.6970   -1.7320    1.1520 ha        1 D18      0.162000
     45 HB'         3.6890   -1.5990   -1.5540 ha        1 D18      0.162000
     46 H2'        -0.3430    1.1310   -1.6830 ha        1 D18      0.142000
     47 H3'        -1.2460    1.8280   -3.8940 ha        1 D18      0.137250
     48 H5'         1.9450   -0.3200   -5.8770 ha        1 D18      0.137250
     49 H6'         2.8470   -1.0190   -3.6680 ha        1 D18      0.142000
     50 H7'         0.4090    0.7610   -7.1910 h2        1 D18      0.064200
     51 HN'1       -0.5500    2.9290   -7.4310 hn        1 D18      0.352050
     52 HN'2       -0.6500    3.1290   -5.8160 hn        1 D18      0.352050
     53 HN2'       -2.1940    0.7520   -5.8150 hn        1 D18      0.367800
     54 H8'        -0.7610   -1.3070   -6.6070 h1        1 D18      0.037700
     55 H9'1       -2.8580   -2.5210   -7.0660 hc        1 D18      0.038700
     56 H9'2       -3.0380   -1.4920   -5.5860 hc        1 D18      0.038700
     57 H9'3       -3.8010   -0.9750   -7.1500 hc        1 D18      0.038700
     58 H1'1       -2.2910   -0.3390   -9.1310 hc        1 D18      0.038700
     59 H1'2       -0.4910   -0.3570   -8.9240 hc        1 D18      0.038700
     60 H1'3       -1.4200   -1.9140   -8.8940 hc        1 D18      0.038700
     61 H2         -0.3340    0.9700    1.5710 ha        1 D18      0.142000
@<TRIPOS>BOND
     1    1    3 1   
     2    1   30 1   
     3    1   31 1   
     4    1   32 1   
     5    2    3 1   
     6    2   33 1   
     7    2   34 1   
     8    2   35 1   
     9    3    4 1   
    10    3   36 1   
    11    4    5 1   
    12    4   37 1   
    13    5    6 1   
    14    5   10 1   
    15    5   38 1   
    16    6   39 1   
    17    6   40 1   
    18    7    8 ar  
    19    7   12 ar  
    20    7   13 1   
    21    8    9 ar  
    22    8   61 1   
    23    9   10 ar  
    24    9   41 1   
    25   10   11 ar  
    26   11   12 ar  
    27   11   42 1   
    28   12   43 1   
    29   13   14 2   
    30   13   17 1   
    31   14   15 1   
    32   14   44 1   
    33   15   16 2   
    34   15   45 1   
    35   16   17 1   
    36   16   18 1   
    37   18   19 ar  
    38   18   23 ar  
    39   19   20 ar  
    40   19   46 1   
    41   20   21 ar  
    42   20   47 1   
    43   21   22 ar  
    44   21   24 1   
    45   22   23 ar  
    46   22   48 1   
    47   23   49 1   
    48   24   25 1   
    49   24   26 1   
    50   24   50 1   
    51   25   51 1   
    52   25   52 1   
    53   26   27 1   
    54   26   53 1   
    55   27   28 1   
    56   27   29 1   
    57   27   54 1   
    58   28   55 1   
    59   28   56 1   
    60   28   57 1   
    61   29   58 1   
    62   29   59 1   
    63   29   60 1   
@<TRIPOS>SUBSTRUCTURE
     1 D18         1 TEMP              0 ****  ****    0 ROOT
