@<TRIPOS>MOLECULE
D19
   57    61     1     0     0
SMALL
bcc


@<TRIPOS>ATOM
      1 C10         0.8700   -0.0710   -9.2960 cx        1 D19     -0.155900
      2 C9          0.1880    1.2640   -9.2940 cx        1 D19     -0.155900
      3 C8          1.0500    0.8710   -8.1140 cx        1 D19      0.128000
      4 N2          0.4920    0.6640   -6.8190 n3        1 D19     -0.831200
      5 C7          1.3090   -0.1960   -5.9380 c3        1 D19      0.448500
      6 N1          1.7450   -1.4980   -6.4430 n3        1 D19     -0.913300
      7 C1         -0.7080   -0.6650   -2.1420 ca        1 D19     -0.123000
      8 C2          0.5030    0.0390   -2.2250 ca        1 D19     -0.107000
      9 C3          1.1470    0.1880   -3.4510 ca        1 D19     -0.118500
     10 C4          0.5920   -0.3650   -4.6070 ca        1 D19     -0.076800
     11 C5         -0.6150   -1.0670   -4.5300 ca        1 D19     -0.118500
     12 C6         -1.2620   -1.2180   -3.3070 ca        1 D19     -0.107000
     13 CA         -1.3890   -0.8290   -0.8810 cc        1 D19      0.309700
     14 CB         -2.5700   -1.4570   -0.5150 cd        1 D19     -0.244300
     15 CB'        -2.7200   -1.2770    0.9040 cd        1 D19     -0.244300
     16 CA'        -1.6220   -0.5470    1.3380 cc        1 D19      0.309700
     17 O1         -0.7840   -0.2570    0.2490 os        1 D19     -0.358800
     18 C1'        -1.2110   -0.0590    2.6300 ca        1 D19     -0.123000
     19 C2'        -0.0380    0.6980    2.7780 ca        1 D19     -0.107000
     20 C3'         0.3450    1.1580    4.0350 ca        1 D19     -0.118500
     21 C4'        -0.4330    0.8700    5.1600 ca        1 D19     -0.076800
     22 C5'        -1.6060    0.1240    5.0160 ca        1 D19     -0.118500
     23 C6'        -1.9940   -0.3400    3.7610 ca        1 D19     -0.107000
     24 C7'        -0.0160    1.3650    6.5390 c3        1 D19      0.448500
     25 N1'        -0.1140    2.8230    6.5900 n3        1 D19     -0.913300
     26 N2'         1.3070    0.8390    6.9430 n3        1 D19     -0.831200
     27 C8'         1.2710   -0.3070    7.7870 cx        1 D19      0.128000
     28 C9'         1.2620   -1.7460    7.2970 cx        1 D19     -0.155900
     29 CAX         2.4900   -1.1920    7.9550 cx        1 D19     -0.155900
     30 H101        1.7260   -0.2390   -9.9720 hc        1 D19      0.072825
     31 H102        0.2530   -0.9800   -9.1820 hc        1 D19      0.072825
     32 H91        -0.9100    1.3040   -9.1800 hc        1 D19      0.072825
     33 H92         0.5580    2.0610   -9.9630 hc        1 D19      0.072825
     34 H8          2.0430    1.3690   -8.0240 h1        1 D19      0.091700
     35 HN2        -0.4580    0.3470   -6.8700 hn        1 D19      0.364800
     36 H7          2.2680    0.3920   -5.7620 h2        1 D19      0.076700
     37 HN11        0.9990   -2.1630   -6.4600 hn        1 D19      0.353550
     38 HN12        2.1430   -1.4160   -7.3580 hn        1 D19      0.353550
     39 H3          2.0960    0.7420   -3.5050 ha        1 D19      0.134750
     40 H5         -1.0600   -1.5060   -5.4350 ha        1 D19      0.134750
     41 H6         -2.2120   -1.7720   -3.2520 ha        1 D19      0.142000
     42 HB         -3.2610   -1.9880   -1.1640 ha        1 D19      0.161500
     43 HB'        -3.5430   -1.6480    1.5080 ha        1 D19      0.161500
     44 H2'         0.5750    0.9250    1.8930 ha        1 D19      0.142000
     45 H3'         1.2620    1.7580    4.1350 ha        1 D19      0.134750
     46 H5'        -2.2320   -0.0950    5.8940 ha        1 D19      0.134750
     47 H6'        -2.9180   -0.9260    3.6550 ha        1 D19      0.142000
     48 H7'        -0.7800    0.9920    7.2950 h2        1 D19      0.076700
     49 HN'1        0.1980    3.1670    7.4780 hn        1 D19      0.353550
     50 HN'2        0.4320    3.2500    5.8670 hn        1 D19      0.353550
     51 HN2'        1.9030    0.6960    6.1500 hn        1 D19      0.364800
     52 H8'         0.6780   -0.0910    8.7060 h1        1 D19      0.091700
     53 H9'1        0.6450   -2.4830    7.8400 hc        1 D19      0.072825
     54 H9'2        1.2890   -1.9540    6.2130 hc        1 D19      0.072825
     55 H1'1        3.3890   -1.0080    7.3390 hc        1 D19      0.072825
     56 H1'2        2.7540   -1.5210    8.9750 hc        1 D19      0.072825
     57 H2          0.9400    0.4740   -1.3130 ha        1 D19      0.142000
@<TRIPOS>BOND
     1    1    2 1   
     2    1    3 1   
     3    1   30 1   
     4    1   31 1   
     5    2    3 1   
     6    2   32 1   
     7    2   33 1   
     8    3    4 1   
     9    3   34 1   
    10    4    5 1   
    11    4   35 1   
    12    5    6 1   
    13    5   10 1   
    14    5   36 1   
    15    6   37 1   
    16    6   38 1   
    17    7    8 ar  
    18    7   12 ar  
    19    7   13 1   
    20    8    9 ar  
    21    8   57 1   
    22    9   10 ar  
    23    9   39 1   
    24   10   11 ar  
    25   11   12 ar  
    26   11   40 1   
    27   12   41 1   
    28   13   14 2   
    29   13   17 1   
    30   14   15 1   
    31   14   42 1   
    32   15   16 2   
    33   15   43 1   
    34   16   17 1   
    35   16   18 1   
    36   18   19 ar  
    37   18   23 ar  
    38   19   20 ar  
    39   19   44 1   
    40   20   21 ar  
    41   20   45 1   
    42   21   22 ar  
    43   21   24 1   
    44   22   23 ar  
    45   22   46 1   
    46   23   47 1   
    47   24   25 1   
    48   24   26 1   
    49   24   48 1   
    50   25   49 1   
    51   25   50 1   
    52   26   27 1   
    53   26   51 1   
    54   27   28 1   
    55   27   29 1   
    56   27   52 1   
    57   28   29 1   
    58   28   53 1   
    59   28   54 1   
    60   29   55 1   
    61   29   56 1   
@<TRIPOS>SUBSTRUCTURE
     1 D19         1 TEMP              0 ****  ****    0 ROOT
