@<TRIPOS>MOLECULE
D19
   61    65     1     0     0
SMALL
bcc


@<TRIPOS>ATOM
      1 C10         0.2360   -0.5500    0.5230 cx        1 D19     -0.080900
      2 C9          1.3750   -1.4840    0.7710 cx        1 D19     -0.080900
      3 C8          0.7290   -0.7560    1.9450 cx        1 D19     -0.089000
      4 N2          1.4740    0.2920    2.6670 ny        1 D19     -0.751000
      5 C7          0.5900    1.1260    3.5850 c3        1 D19      0.416500
      6 N1         -0.6220    1.7070    2.8720 nz        1 D19     -0.865600
      7 C1          2.8710    4.2570    5.4830 ca        1 D19     -0.022500
      8 C2          2.2520    3.2510    6.2450 ca        1 D19     -0.096750
      9 C3          1.5160    2.2430    5.6260 ca        1 D19     -0.079500
     10 C4          1.3850    2.2210    4.2300 ca        1 D19     -0.274300
     11 C5          1.9980    3.2240    3.4590 ca        1 D19     -0.079500
     12 C6          2.7300    4.2270    4.0760 ca        1 D19     -0.096750
     13 CA          3.6450    5.3150    6.0790 cc        1 D19      0.277700
     14 CB          4.3480    6.3670    5.4970 cd        1 D19     -0.172300
     15 CB'         4.9430    7.1150    6.5670 cd        1 D19     -0.172300
     16 CA'         4.5760    6.4880    7.7550 cc        1 D19      0.277700
     17 O1          3.7700    5.3690    7.4790 os        1 D19     -0.349800
     18 C1'         4.8910    6.8160    9.1220 ca        1 D19     -0.022500
     19 C2'         4.3630    6.1030   10.2170 ca        1 D19     -0.096750
     20 C3'         4.6890    6.4640   11.5200 ca        1 D19     -0.079500
     21 C4'         5.5530    7.5460   11.7590 ca        1 D19     -0.274300
     22 C5'         6.0860    8.2610   10.6750 ca        1 D19     -0.079500
     23 C6'         5.7570    7.8990    9.3730 ca        1 D19     -0.096750
     24 C7'         5.9340    7.9760   13.1430 c3        1 D19      0.416500
     25 N1'         6.7040    6.8720   13.8490 nz        1 D19     -0.865600
     26 N2'         4.7120    8.4440   13.9210 ny        1 D19     -0.751000
     27 C8'         5.0330    8.8530   15.3010 cx        1 D19     -0.089000
     28 C9'         3.9170    9.0680   16.3170 cx        1 D19     -0.080900
     29 CAX         4.8480    7.9110   16.4780 cx        1 D19     -0.080900
     30 H101       -0.7620   -0.9650    0.2620 hc        1 D19      0.132950
     31 H102        0.4380    0.3990   -0.0110 hc        1 D19      0.132950
     32 H91         2.3920   -1.2060    0.4290 hc        1 D19      0.132950
     33 H92         1.2180   -2.5840    0.7130 hc        1 D19      0.132950
     34 H8          0.1240   -1.3650    2.6590 hx        1 D19      0.159700
     35 HN2         2.1780   -0.1620    3.2780 hn        1 D19      0.484050
     36 H7          0.1750    0.4010    4.3680 hx        1 D19      0.167700
     37 HN11       -1.2770    2.0420    3.5980 hn        1 D19      0.489967
     38 HN12       -1.1000    1.0040    2.2880 hn        1 D19      0.489967
     39 H3          1.0430    1.4650    6.2510 ha        1 D19      0.151750
     40 H5          1.9120    3.2340    2.3600 ha        1 D19      0.151750
     41 H6          3.2080    5.0100    3.4590 ha        1 D19      0.184750
     42 HB          4.4470    6.6010    4.4360 ha        1 D19      0.197500
     43 HB'         5.5610    8.0060    6.4420 ha        1 D19      0.197500
     44 H2'         3.6850    5.2520   10.0330 ha        1 D19      0.184750
     45 H3'         4.2570    5.8880   12.3530 ha        1 D19      0.151750
     46 H5'         6.7670    9.1150   10.8350 ha        1 D19      0.151750
     47 H6'         6.1860    8.4730    8.5310 ha        1 D19      0.184750
     48 H7'         6.6440    8.8760   13.1080 hx        1 D19      0.167700
     49 HN'1        6.2230    5.9680   13.7550 hn        1 D19      0.489967
     50 HN'2        6.8520    7.0820   14.8470 hn        1 D19      0.489967
     51 HN2'        3.9790    7.7210   13.9160 hn        1 D19      0.484050
     52 H8'         5.8780    9.5830   15.3030 hx        1 D19      0.159700
     53 H9'1        2.8610    8.8830   16.0380 hc        1 D19      0.132950
     54 H9'2        4.0070    9.9540   16.9830 hc        1 D19      0.132950
     55 H1'1        4.4520    6.8880   16.3230 hc        1 D19      0.132950
     56 H1'2        5.6170    7.9380   17.2810 hc        1 D19      0.132950
     57 H22         1.9820    0.8970    2.0060 hn        1 D19      0.484050
     58 H13        -0.3560    2.5130    2.2900 hn        1 D19      0.489967
     59 H1'3        7.6240    6.7920   13.3830 hn        1 D19      0.489967
     60 H2'2        4.3430    9.2670   13.4090 hn        1 D19      0.484050
     61 H2          2.3530    3.2610    7.3440 ha        1 D19      0.184750
@<TRIPOS>BOND
     1    1    2 1   
     2    1    3 1   
     3    1   30 1   
     4    1   31 1   
     5    2    3 1   
     6    2   32 1   
     7    2   33 1   
     8    3    4 1   
     9    3   34 1   
    10    4    5 1   
    11    4   35 1   
    12    4   57 1   
    13    5    6 1   
    14    5   10 1   
    15    5   36 1   
    16    6   37 1   
    17    6   38 1   
    18    6   58 1   
    19    7    8 ar  
    20    7   12 ar  
    21    7   13 1   
    22    8    9 ar  
    23    8   61 1   
    24    9   10 ar  
    25    9   39 1   
    26   10   11 ar  
    27   11   12 ar  
    28   11   40 1   
    29   12   41 1   
    30   13   14 2   
    31   13   17 1   
    32   14   15 1   
    33   14   42 1   
    34   15   16 2   
    35   15   43 1   
    36   16   17 1   
    37   16   18 1   
    38   18   19 ar  
    39   18   23 ar  
    40   19   20 ar  
    41   19   44 1   
    42   20   21 ar  
    43   20   45 1   
    44   21   22 ar  
    45   21   24 1   
    46   22   23 ar  
    47   22   46 1   
    48   23   47 1   
    49   24   25 1   
    50   24   26 1   
    51   24   48 1   
    52   25   49 1   
    53   25   50 1   
    54   25   59 1   
    55   26   27 1   
    56   26   51 1   
    57   26   60 1   
    58   27   28 1   
    59   27   29 1   
    60   27   52 1   
    61   28   29 1   
    62   28   53 1   
    63   28   54 1   
    64   29   55 1   
    65   29   56 1   
@<TRIPOS>SUBSTRUCTURE
     1 D19         1 TEMP              0 ****  ****    0 ROOT
