@<TRIPOS>MOLECULE
D19
   61    65     1     0     0
SMALL
bcc


@<TRIPOS>ATOM
      1 C10        -1.4190    0.0450    1.5650 cx        1 D19     -0.081400
      2 C9         -1.2930    1.0220    0.4420 cx        1 D19     -0.081400
      3 C8         -0.0700    0.6860    1.2890 cx        1 D19     -0.087000
      4 N2          0.5080    1.6980    2.1910 n4        1 D19     -0.751000
      5 C7          1.5110    1.1110    3.1740 c3        1 D19      0.416000
      6 N1          0.9470   -0.0450    3.9830 n4        1 D19     -0.865600
      7 C1          3.1630    4.1680    5.7290 ca        1 D19     -0.022000
      8 C2          1.7870    3.8690    5.7930 ca        1 D19     -0.097500
      9 C3          1.2390    2.8860    4.9780 ca        1 D19     -0.078500
     10 C4          2.0530    2.1730    4.0820 ca        1 D19     -0.275300
     11 C5          3.4270    2.4550    4.0190 ca        1 D19     -0.078500
     12 C6          3.9730    3.4400    4.8340 ca        1 D19     -0.097500
     13 CA          3.7790    5.1980    6.5250 cc        1 D19      0.276200
     14 CB          5.0640    5.7320    6.4600 cd        1 D19     -0.170800
     15 CB'         5.1510    6.7400    7.4760 cd        1 D19     -0.170800
     16 CA'         3.9170    6.7750    8.1210 cc        1 D19      0.276200
     17 O1          3.0460    5.8290    7.5470 os        1 D19     -0.349800
     18 C1'         3.4690    7.5860    9.2230 ca        1 D19     -0.022000
     19 C2'         2.2110    7.4210    9.8370 ca        1 D19     -0.097500
     20 C3'         1.8400    8.2160   10.9150 ca        1 D19     -0.078500
     21 C4'         2.7170    9.1970   11.4070 ca        1 D19     -0.275300
     22 C5'         3.9680    9.3770   10.7960 ca        1 D19     -0.078500
     23 C6'         4.3360    8.5820    9.7180 ca        1 D19     -0.097500
     24 C7'         2.3720   10.0710   12.5750 c3        1 D19      0.416000
     25 N1'         2.1990    9.2320   13.8310 n4        1 D19     -0.865600
     26 N2'         1.1620   10.9410   12.2660 n4        1 D19     -0.751000
     27 C8'         0.7730   11.8030   13.3960 cx        1 D19     -0.087000
     28 C9'        -0.5730   12.5180   13.3900 cx        1 D19     -0.081400
     29 CAX        -0.3320   11.4090   14.3610 cx        1 D19     -0.081400
     30 H101       -2.0090    0.3370    2.4560 hc        1 D19      0.132075
     31 H102       -1.5280   -1.0370    1.3360 hc        1 D19      0.132075
     32 H91        -1.7780    2.0150    0.5260 hc        1 D19      0.132075
     33 H92        -1.2890    0.6640   -0.6110 hc        1 D19      0.132075
     34 H8          0.7400    0.0860    0.8070 hx        1 D19      0.161200
     35 HN2         1.0330    2.3880    1.6220 hn        1 D19      0.483550
     36 H7          2.3480    0.6600    2.5320 hx        1 D19      0.169700
     37 HN11        0.3250    0.2940    4.7280 hn        1 D19      0.489967
     38 HN12        0.4410   -0.7200    3.3910 hn        1 D19      0.489967
     39 H3          0.1580    2.6830    5.0470 ha        1 D19      0.152000
     40 H5          4.0910    1.9060    3.3280 ha        1 D19      0.152000
     41 H6          5.0570    3.6480    4.7730 ha        1 D19      0.184500
     42 HB          5.8690    5.4610    5.7740 ha        1 D19      0.199000
     43 HB'         6.0340    7.3460    7.6850 ha        1 D19      0.199000
     44 H2'         1.5200    6.6490    9.4550 ha        1 D19      0.184500
     45 H3'         0.8500    8.0590   11.3730 ha        1 D19      0.152000
     46 H5'         4.6740   10.1460   11.1590 ha        1 D19      0.152000
     47 H6'         5.3250    8.7390    9.2480 ha        1 D19      0.184500
     48 H7'         3.2280   10.7980   12.8040 hx        1 D19      0.169700
     49 HN'1        1.5880    8.4250   13.6550 hn        1 D19      0.489967
     50 HN'2        3.1340    8.8730   14.0920 hn        1 D19      0.489967
     51 HN2'        1.4380   11.5440   11.4680 hn        1 D19      0.483550
     52 H8'         1.6570   12.3750   13.7710 hx        1 D19      0.161200
     53 H9'1       -0.5840   13.5740   13.7410 hc        1 D19      0.132075
     54 H9'2       -1.2850   12.3660   12.5550 hc        1 D19      0.132075
     55 H1'1       -0.1830   11.6490   15.4360 hc        1 D19      0.132075
     56 H1'2       -0.8830   10.4580   14.2260 hc        1 D19      0.132075
     57 H22        -0.2330    2.2090    2.6910 hn        1 D19      0.483550
     58 H13         1.7470   -0.5250    4.4310 hn        1 D19      0.489967
     59 H1'3        1.8230    9.7850   14.6150 hn        1 D19      0.489967
     60 H2'2        0.3680   10.3630   11.9570 hn        1 D19      0.483550
     61 H2          1.1440    4.4280    6.4950 ha        1 D19      0.184500
@<TRIPOS>BOND
     1    1    2 1   
     2    1    3 1   
     3    1   30 1   
     4    1   31 1   
     5    2    3 1   
     6    2   32 1   
     7    2   33 1   
     8    3    4 1   
     9    3   34 1   
    10    4    5 1   
    11    4   35 1   
    12    4   57 1   
    13    5    6 1   
    14    5   10 1   
    15    5   36 1   
    16    6   37 1   
    17    6   38 1   
    18    6   58 1   
    19    7    8 ar  
    20    7   12 ar  
    21    7   13 1   
    22    8    9 ar  
    23    8   61 1   
    24    9   10 ar  
    25    9   39 1   
    26   10   11 ar  
    27   11   12 ar  
    28   11   40 1   
    29   12   41 1   
    30   13   14 2   
    31   13   17 1   
    32   14   15 1   
    33   14   42 1   
    34   15   16 2   
    35   15   43 1   
    36   16   17 1   
    37   16   18 1   
    38   18   19 ar  
    39   18   23 ar  
    40   19   20 ar  
    41   19   44 1   
    42   20   21 ar  
    43   20   45 1   
    44   21   22 ar  
    45   21   24 1   
    46   22   23 ar  
    47   22   46 1   
    48   23   47 1   
    49   24   25 1   
    50   24   26 1   
    51   24   48 1   
    52   25   49 1   
    53   25   50 1   
    54   25   59 1   
    55   26   27 1   
    56   26   51 1   
    57   26   60 1   
    58   27   28 1   
    59   27   29 1   
    60   27   52 1   
    61   28   29 1   
    62   28   53 1   
    63   28   54 1   
    64   29   55 1   
    65   29   56 1   
@<TRIPOS>SUBSTRUCTURE
     1 D19         1 TEMP              0 ****  ****    0 ROOT
