@<TRIPOS>MOLECULE
D1A
   45    47     1     0     0
SMALL
bcc


@<TRIPOS>ATOM
      1 O3         -6.4710    2.7800    1.0450 o         1 D1A     -0.221000
      2 N7         -5.5330    2.0480    0.8770 no        1 D1A      0.325200
      3 O2         -4.4430    2.3070    1.3260 o         1 D1A     -0.221000
      4 C3         -5.7200    0.8050    0.1050 ca        1 D1A     -0.208200
      5 C2         -6.9760    0.4730   -0.4160 ca        1 D1A     -0.025000
      6 C4         -4.6390   -0.0770   -0.1260 ca        1 D1A      0.020800
      7 N1         -3.3030   -0.0060    0.2350 na        1 D1A     -0.160400
      8 C8         -2.6640   -1.1690   -0.2370 cc        1 D1A     -0.139300
      9 C7         -3.5750   -1.9690   -0.9280 cd        1 D1A     -0.090200
     10 C5         -4.8520   -1.2970   -0.8830 ca        1 D1A     -0.128800
     11 C6         -6.1170   -1.5920   -1.3860 ca        1 D1A     -0.017000
     12 C1         -7.1620   -0.7070   -1.1480 ca        1 D1A     -0.181000
     13 C9         -1.2290   -1.4930   -0.0240 c         1 D1A      0.698300
     14 O1         -0.8710   -2.6810    0.0510 o         1 D1A     -0.564100
     15 N2         -0.3580   -0.4160    0.0800 n         1 D1A     -0.466100
     16 C10         1.0350   -0.4870    0.2610 ca        1 D1A      0.067600
     17 C15         1.8050    0.6760    0.0170 ca        1 D1A     -0.167500
     18 C14         3.1800    0.6670    0.2150 ca        1 D1A     -0.082000
     19 C13         3.8270   -0.4900    0.6630 ca        1 D1A     -0.139900
     20 C12         3.0720   -1.6440    0.9000 ca        1 D1A     -0.082000
     21 C11         1.6950   -1.6520    0.7060 ca        1 D1A     -0.167500
     22 C16         5.2850   -0.5080    0.8940 ce        1 D1A      0.395900
     23 C17         5.7230   -1.1210    2.1880 c3        1 D1A     -0.171400
     24 N3          6.0660   -0.0070   -0.0350 n2        1 D1A     -0.459400
     25 N4          7.4000   -0.0840    0.0460 nh        1 D1A     -0.482300
     26 C18         8.1230    0.9010   -0.7760 c2        1 D1A      0.771100
     27 N6          7.8970    0.8250   -2.1790 nh        1 D1A     -0.913800
     28 N5          8.9920    1.6650   -0.1710 n2        1 D1A     -0.865100
     29 H2         -7.8320    1.1510   -0.2450 ha        1 D1A      0.171000
     30 H1         -8.1660   -0.9300   -1.5400 ha        1 D1A      0.150000
     31 HA         -2.9250    0.6660    0.8600 hn        1 D1A      0.332700
     32 H7         -3.3590   -2.9240   -1.4050 ha        1 D1A      0.182000
     33 H6         -6.2810   -2.5150   -1.9620 ha        1 D1A      0.151000
     34 HB         -0.7030    0.4850   -0.1710 hn        1 D1A      0.320500
     35 H15         1.3250    1.6030   -0.3320 ha        1 D1A      0.152500
     36 H11         1.1330   -2.5800    0.8960 ha        1 D1A      0.152500
     37 H14         3.7600    1.5810    0.0160 ha        1 D1A      0.143000
     38 H12         3.5720   -2.5640    1.2410 ha        1 D1A      0.143000
     39 H171        6.2630   -2.0820    1.9980 hc        1 D1A      0.056367
     40 H172        6.4090   -0.4320    2.7430 hc        1 D1A      0.056367
     41 H173        4.8430   -1.3320    2.8430 hc        1 D1A      0.056367
     42 H61N        7.1820    0.1920   -2.4670 hn        1 D1A      0.400300
     43 H62N        7.8090    1.7190   -2.6110 hn        1 D1A      0.400300
     44 H5N         9.5520    2.2420   -0.7580 hn        1 D1A      0.404400
     45 H4N         7.7970   -0.1450    0.9780 hn        1 D1A      0.403800
@<TRIPOS>BOND
     1    1    2 1   
     2    2    3 1   
     3    2    4 1   
     4    4    5 ar  
     5    4    6 ar  
     6    5   12 ar  
     7    5   29 1   
     8    6    7 1   
     9    6   10 ar  
    10    7    8 1   
    11    7   31 1   
    12    8    9 2   
    13    8   13 1   
    14    9   10 1   
    15    9   32 1   
    16   10   11 ar  
    17   11   12 ar  
    18   11   33 1   
    19   12   30 1   
    20   13   14 2   
    21   13   15 1   
    22   15   16 1   
    23   15   34 1   
    24   16   17 ar  
    25   16   21 ar  
    26   17   18 ar  
    27   17   35 1   
    28   18   19 ar  
    29   18   37 1   
    30   19   20 ar  
    31   19   22 1   
    32   20   21 ar  
    33   20   38 1   
    34   21   36 1   
    35   22   23 1   
    36   22   24 2   
    37   23   39 1   
    38   23   40 1   
    39   23   41 1   
    40   24   25 1   
    41   25   26 1   
    42   25   45 1   
    43   26   27 1   
    44   26   28 2   
    45   27   42 1   
    46   27   43 1   
    47   28   44 1   
@<TRIPOS>SUBSTRUCTURE
     1 D1A         1 TEMP              0 ****  ****    0 ROOT
