@<TRIPOS>MOLECULE
D1A
   47    49     1     0     0
SMALL
bcc


@<TRIPOS>ATOM
      1 O3          0.4060   -1.1190    0.5920 o         1 D1A     -0.212000
      2 N7          1.5740   -0.9130    0.4280 no        1 D1A      0.327200
      3 O2          2.3840   -1.0990    1.3060 o         1 D1A     -0.212000
      4 C3          2.0440   -0.4160   -0.8820 ca        1 D1A     -0.214200
      5 C2          1.1530   -0.2280   -1.9420 ca        1 D1A      0.005000
      6 C4          3.4130   -0.1240   -1.0950 ca        1 D1A      0.037800
      7 N1          4.4970   -0.1750   -0.2310 na        1 D1A     -0.164400
      8 C8          5.6470    0.1860   -0.9680 cc        1 D1A     -0.202300
      9 C7          5.2870    0.5270   -2.2800 cd        1 D1A     -0.015200
     10 C5          3.8640    0.3440   -2.3890 ca        1 D1A     -0.145800
     11 C6          2.9400    0.5220   -3.4250 ca        1 D1A     -0.003000
     12 C1          1.6040    0.2370   -3.1900 ca        1 D1A     -0.168000
     13 C9          7.0110    0.2360   -0.4390 c         1 D1A      0.715300
     14 O1          8.0140    0.2410   -1.1620 o         1 D1A     -0.518100
     15 N2          7.1450    0.3120    0.9840 ns        1 D1A     -0.438100
     16 C10         8.2820    0.1280    1.7140 ca        1 D1A      0.234600
     17 C15         8.2400    0.3230    3.1400 ca        1 D1A     -0.217500
     18 C14         9.3480    0.1200    3.9180 ca        1 D1A      0.006500
     19 C13        10.5970   -0.2910    3.3620 ca        1 D1A     -0.291900
     20 C12        10.6340   -0.4820    1.9460 ca        1 D1A      0.006500
     21 C11         9.5370   -0.2810    1.1520 ca        1 D1A     -0.217500
     22 C16        11.7440   -0.5450    4.1600 ce        1 D1A      0.608900
     23 C17        12.9730   -1.0470    3.4650 c3        1 D1A     -0.226400
     24 N3         11.6580   -0.3360    5.5040 n2        1 D1A     -0.742400
     25 N4         12.6440   -0.7240    6.3760 ny        1 D1A     -0.363100
     26 C18        13.5630    0.4140    6.8780 c2        1 D1A      0.584100
     27 N6         12.8130    1.6960    7.1530 nz        1 D1A     -0.847600
     28 N5         14.8060    0.1970    7.0040 n2        1 D1A     -0.636100
     29 H2          0.0780   -0.4480   -1.7990 ha        1 D1A      0.186000
     30 H1          0.8640    0.3710   -3.9970 ha        1 D1A      0.169000
     31 HA          4.4810   -0.6710    0.6300 hn        1 D1A      0.326700
     32 H7          5.9620    0.8690   -3.0650 ha        1 D1A      0.189000
     33 H6          3.2770    0.8830   -4.4100 ha        1 D1A      0.164000
     34 HB          6.3280    0.5880    1.4950 hn        1 D1A      0.348500
     35 H15         7.2940    0.6330    3.6170 ha        1 D1A      0.189000
     36 H11         9.6250   -0.4390    0.0600 ha        1 D1A      0.189000
     37 H14         9.2510    0.2710    5.0070 ha        1 D1A      0.151500
     38 H12        11.5690   -0.8070    1.4560 ha        1 D1A      0.151500
     39 H171       13.2520   -0.3420    2.6370 hc        1 D1A      0.093700
     40 H172       12.7570   -2.0500    3.0060 hc        1 D1A      0.093700
     41 H173       13.8740   -1.1560    4.1140 hc        1 D1A      0.093700
     42 H61N       12.5100    2.1170    6.2600 hn        1 D1A      0.490800
     43 H62N       11.9750    1.5130    7.7230 hn        1 D1A      0.490800
     44 H5N        15.4830    0.8580    7.3320 hn        1 D1A      0.519400
     45 H4N        12.1400   -1.0650    7.2200 hn        1 D1A      0.485800
     46 H42        13.2750   -1.4820    6.0370 hn        1 D1A      0.485800
     47 H63        13.4110    2.3690    7.6520 hn        1 D1A      0.490800
@<TRIPOS>BOND
     1    1    2 1   
     2    2    3 1   
     3    2    4 1   
     4    4    5 ar  
     5    4    6 ar  
     6    5   12 ar  
     7    5   29 1   
     8    6    7 1   
     9    6   10 ar  
    10    7    8 1   
    11    7   31 1   
    12    8    9 2   
    13    8   13 1   
    14    9   10 1   
    15    9   32 1   
    16   10   11 ar  
    17   11   12 ar  
    18   11   33 1   
    19   12   30 1   
    20   13   14 2   
    21   13   15 1   
    22   15   16 1   
    23   15   34 1   
    24   16   17 ar  
    25   16   21 ar  
    26   17   18 ar  
    27   17   35 1   
    28   18   19 ar  
    29   18   37 1   
    30   19   20 ar  
    31   19   22 1   
    32   20   21 ar  
    33   20   38 1   
    34   21   36 1   
    35   22   23 1   
    36   22   24 2   
    37   23   39 1   
    38   23   40 1   
    39   23   41 1   
    40   24   25 1   
    41   25   26 1   
    42   25   45 1   
    43   25   46 1   
    44   26   27 1   
    45   26   28 2   
    46   27   42 1   
    47   27   43 1   
    48   27   47 1   
    49   28   44 1   
@<TRIPOS>SUBSTRUCTURE
     1 D1A         1 TEMP              0 ****  ****    0 ROOT
