@<TRIPOS>MOLECULE
D1A
   45    37     1     0     0
SMALL
bcc


@<TRIPOS>ATOM
      1 O3          5.1720   -2.5200   -1.9270 o         1 D1A     -0.502700
      2 N7          5.0090   -1.1770   -1.7580 no        1 D1A      0.843400
      3 O2          5.4150   -0.4000   -2.6100 o         1 D1A     -0.502700
      4 C3          4.3980   -0.6770   -0.5710 c2        1 D1A     -0.163000
      5 C2          4.7010    0.6770   -0.6090 c1        1 D1A     -0.024000
      6 C4          3.8850   -1.2520    0.6100 c1        1 D1A      0.066000
      7 N1          3.3520   -2.5060    0.8650 n1        1 D1A     -0.183000
      8 C8          2.8270   -2.4940    2.1290 c1        1 D1A     -0.093000
      9 C7          3.0300   -1.2370    2.6640 c1        1 D1A     -0.101000
     10 C5          3.6850   -0.4730    1.7200 c1        1 D1A     -0.117000
     11 C6          3.9920    0.9000    1.6810 c1        1 D1A     -0.099000
     12 C1          4.4990    1.4660    0.5150 c1        1 D1A     -0.099000
     13 C9          1.3700   -2.1170    1.9790 c1        1 D1A      0.374000
     14 O1          0.6620   -2.0320    2.9600 o         1 D1A     -0.324000
     15 N2          0.8490   -1.7950    0.6970 n3        1 D1A     -0.321000
     16 C10        -0.5050   -1.3700    0.5680 c2        1 D1A      0.078000
     17 C15        -1.2890   -1.8610   -0.4640 c2        1 D1A     -0.177000
     18 C14        -2.5700   -1.3610   -0.6630 c1        1 D1A     -0.095000
     19 C13        -3.0650   -0.3710    0.1720 c1        1 D1A     -0.112000
     20 C12        -2.2800    0.1200    1.2040 c1        1 D1A     -0.080000
     21 C11        -1.0000   -0.3800    1.4020 c1        1 D1A     -0.151000
     22 C16        -4.4130    0.2670   -0.1250 c2        1 D1A     -0.052000
     23 C17        -5.7010   -0.4530    0.2650 c3        1 D1A     -0.164000
     24 N3         -4.4700    1.4470   -0.7210 n1        1 D1A     -0.081000
     25 N4         -3.2920    2.1070   -1.0780 n2        1 D1A     -0.212000
     26 C18        -3.2910    3.0270   -2.1810 c2        1 D1A      0.179000
     27 N6         -2.1430    3.8330   -2.4370 n3        1 D1A     -0.352000
     28 N5         -4.3600    3.1610   -2.9190 n1        1 D1A     -0.335000
     29 H2          5.0580    1.0760   -1.4310 ha        1 D1A      0.171000
     30 H1          4.7120    2.4200    0.4880 ha        1 D1A      0.150500
     31 HA          3.3510   -3.2100    0.2950 DU        1 D1A      0.208333
     32 H7          2.7580   -0.9420    3.5530 DU        1 D1A      0.208333
     33 H6          3.8500    1.4550    2.4710 ha        1 D1A      0.150500
     34 HB          1.3350   -1.9730   -0.0430 hn        1 D1A      0.235000
     35 H15        -0.9400   -2.5600   -1.0540 ha        1 D1A      0.136000
     36 H11        -0.4500   -0.0360    2.1260 ha        1 D1A      0.173000
     37 H14        -3.1230   -1.7080   -1.3910 ha        1 D1A      0.144000
     38 H12        -2.6280    0.8170    1.7930 ha        1 D1A      0.143000
     39 H171       -6.2310   -0.6360   -0.5400 hc        1 D1A      0.093000
     40 H172       -6.2200    0.1130    0.8770 hc        1 D1A      0.093000
     41 H173       -5.4810   -1.2980    0.7100 hc        1 D1A      0.093000
     42 H61N       -2.1410    4.4170   -3.1480 hn        1 D1A      0.195000
     43 H62N       -1.4230    3.7910   -1.8800 hn        1 D1A      0.195000
     44 H5N        -4.3600    3.7460   -3.6210 DU        1 D1A      0.208333
     45 H4N        -2.5370    2.0000   -0.5710 hn        1 D1A      0.203000
@<TRIPOS>BOND
     1    1    2 2   
     2    2    3 2   
     3    2    4 1   
     4    4    5 1   
     5    4    6 1   
     6    5   29 1   
     7    6   10 1   
     8    7    8 1   
     9    8    9 1   
    10    9   10 1   
    11   11   12 1   
    12   11   33 1   
    13   12   30 1   
    14   13   14 1   
    15   13   15 1   
    16   15   16 1   
    17   15   34 1   
    18   16   17 1   
    19   16   21 1   
    20   17   18 1   
    21   17   35 1   
    22   18   37 1   
    23   19   20 1   
    24   19   22 1   
    25   20   38 1   
    26   21   36 1   
    27   22   23 1   
    28   22   24 1   
    29   23   39 1   
    30   23   40 1   
    31   23   41 1   
    32   25   26 1   
    33   25   45 1   
    34   26   27 1   
    35   26   28 1   
    36   27   42 1   
    37   27   43 1   
@<TRIPOS>SUBSTRUCTURE
     1 D1A         1 TEMP              0 ****  ****    0 ROOT
