@<TRIPOS>MOLECULE
D1A
   45    47     1     0     0
SMALL
bcc


@<TRIPOS>ATOM
      1 O3          0.2580    0.3230    0.6910 o         1 D1A     -0.220500
      2 N7          1.4380    0.1520    0.5410 no        1 D1A      0.325200
      3 O2          2.1870    0.0620    1.4830 o         1 D1A     -0.220500
      4 C3          1.9810    0.0500   -0.8270 ca        1 D1A     -0.208200
      5 C2          1.1340    0.1370   -1.9370 ca        1 D1A     -0.025000
      6 C4          3.3650   -0.1410   -1.0470 ca        1 D1A      0.020800
      7 N1          4.4300   -0.2390   -0.1660 na        1 D1A     -0.160400
      8 C8          5.6010   -0.4420   -0.9220 cc        1 D1A     -0.139300
      9 C7          5.2980   -0.4420   -2.2840 cd        1 D1A     -0.090200
     10 C5          3.8730   -0.2450   -2.4030 ca        1 D1A     -0.128800
     11 C6          2.9970   -0.1510   -3.4820 ca        1 D1A     -0.018000
     12 C1          1.6410    0.0390   -3.2390 ca        1 D1A     -0.181000
     13 C9          6.9580   -0.6330   -0.3470 c         1 D1A      0.698300
     14 O1          7.7940   -1.3230   -0.9570 o         1 D1A     -0.565100
     15 N2          7.2110   -0.0110    0.8680 n         1 D1A     -0.467100
     16 C10         8.4250   -0.0450    1.5790 ca        1 D1A      0.067600
     17 C15         8.6420    0.9220    2.5900 ca        1 D1A     -0.166500
     18 C14         9.8090    0.9050    3.3440 ca        1 D1A     -0.083000
     19 C13        10.7940   -0.0610    3.1090 ca        1 D1A     -0.139900
     20 C12        10.5840   -1.0210    2.1130 ca        1 D1A     -0.083000
     21 C11         9.4180   -1.0220    1.3550 ca        1 D1A     -0.166500
     22 C16        12.0490   -0.0760    3.8880 ce        1 D1A      0.395900
     23 C17        13.3020   -0.2260    3.0830 c3        1 D1A     -0.171400
     24 N3         11.9680    0.0300    5.1940 n2        1 D1A     -0.459400
     25 N4         13.0460   -0.0860    5.9800 nh        1 D1A     -0.482300
     26 C18        12.8960    0.5140    7.3170 c2        1 D1A      0.772100
     27 N6         11.8670   -0.0360    8.1330 nh        1 D1A     -0.913800
     28 N5         13.7880    1.3950    7.6820 n2        1 D1A     -0.866100
     29 H2          0.0500    0.2850   -1.7840 ha        1 D1A      0.171000
     30 H1          0.9400    0.1140   -4.0850 ha        1 D1A      0.150000
     31 HA          4.3390   -0.3200    0.8190 hn        1 D1A      0.333700
     32 H7          6.0060   -0.5740   -3.1000 ha        1 D1A      0.182000
     33 H6          3.3790   -0.2280   -4.5120 ha        1 D1A      0.151000
     34 HB          6.5560    0.6670    1.1890 hn        1 D1A      0.320500
     35 H15         7.8880    1.6970    2.7950 ha        1 D1A      0.152000
     36 H11         9.2840   -1.7920    0.5770 ha        1 D1A      0.152000
     37 H14         9.9550    1.6620    4.1300 ha        1 D1A      0.143000
     38 H12        11.3470   -1.7930    1.9270 ha        1 D1A      0.143000
     39 H171       14.0400    0.5750    3.3430 hc        1 D1A      0.056700
     40 H172       13.0820   -0.1520    1.9910 hc        1 D1A      0.056700
     41 H173       13.7730   -1.2210    3.2840 hc        1 D1A      0.056700
     42 H61N       11.2620   -0.6880    7.6820 hn        1 D1A      0.400300
     43 H62N       11.3660    0.6550    8.6480 hn        1 D1A      0.400300
     44 H5N        13.7390    1.7020    8.6290 hn        1 D1A      0.404400
     45 H4N        13.9390    0.1600    5.5660 hn        1 D1A      0.403800
@<TRIPOS>BOND
     1    1    2 1   
     2    2    3 1   
     3    2    4 1   
     4    4    5 ar  
     5    4    6 ar  
     6    5   12 ar  
     7    5   29 1   
     8    6    7 1   
     9    6   10 ar  
    10    7    8 1   
    11    7   31 1   
    12    8    9 2   
    13    8   13 1   
    14    9   10 1   
    15    9   32 1   
    16   10   11 ar  
    17   11   12 ar  
    18   11   33 1   
    19   12   30 1   
    20   13   14 2   
    21   13   15 1   
    22   15   16 1   
    23   15   34 1   
    24   16   17 ar  
    25   16   21 ar  
    26   17   18 ar  
    27   17   35 1   
    28   18   19 ar  
    29   18   37 1   
    30   19   20 ar  
    31   19   22 1   
    32   20   21 ar  
    33   20   38 1   
    34   21   36 1   
    35   22   23 1   
    36   22   24 2   
    37   23   39 1   
    38   23   40 1   
    39   23   41 1   
    40   24   25 1   
    41   25   26 1   
    42   25   45 1   
    43   26   27 1   
    44   26   28 2   
    45   27   42 1   
    46   27   43 1   
    47   28   44 1   
@<TRIPOS>SUBSTRUCTURE
     1 D1A         1 TEMP              0 ****  ****    0 ROOT
