@<TRIPOS>MOLECULE
D1A
   47    49     1     0     0
SMALL
bcc


@<TRIPOS>ATOM
      1 O3          0.6000    1.4390    0.7050 o         1 D1A     -0.213500
      2 N7          1.7270    1.0750    0.5270 no        1 D1A      0.327200
      3 O2          2.5440    1.0730    1.4180 o         1 D1A     -0.213500
      4 C3          2.1340    0.6120   -0.8160 ca        1 D1A     -0.214200
      5 C2          1.2130    0.5480   -1.8660 ca        1 D1A      0.005000
      6 C4          3.4700    0.2160   -1.0690 ca        1 D1A      0.037800
      7 N1          4.5880    0.2180   -0.2470 na        1 D1A     -0.164400
      8 C8          5.6640   -0.3170   -0.9910 cc        1 D1A     -0.202300
      9 C7          5.2480   -0.5960   -2.3010 cd        1 D1A     -0.016200
     10 C5          3.8510   -0.2580   -2.3830 ca        1 D1A     -0.144800
     11 C6          2.9010   -0.3060   -3.4080 ca        1 D1A     -0.002000
     12 C1          1.6010    0.0960   -3.1380 ca        1 D1A     -0.168000
     13 C9          7.0220   -0.5160   -0.4830 c         1 D1A      0.715300
     14 O1          7.8300   -1.2950   -1.0020 o         1 D1A     -0.515100
     15 N2          7.3990    0.2690    0.6520 n         1 D1A     -0.439100
     16 C10         8.5080    0.1150    1.4310 ca        1 D1A      0.233600
     17 C15         8.7600    1.0580    2.4880 ca        1 D1A     -0.217000
     18 C14         9.8490    0.9340    3.3080 ca        1 D1A      0.006500
     19 C13        10.7860   -0.1330    3.1620 ca        1 D1A     -0.291900
     20 C12        10.5330   -1.0670    2.1100 ca        1 D1A      0.006500
     21 C11         9.4480   -0.9580    1.2820 ca        1 D1A     -0.217000
     22 C16        11.9400   -0.2560    3.9810 ce        1 D1A      0.609900
     23 C17        12.8960   -1.3660    3.6670 c3        1 D1A     -0.226400
     24 N3         12.1180    0.6460    4.9880 n2        1 D1A     -0.742400
     25 N4         13.2800    0.7200    5.7160 n4        1 D1A     -0.364100
     26 C18        13.2100    0.0920    7.1260 c2        1 D1A      0.585100
     27 N6         11.8960    0.3560    7.8230 n4        1 D1A     -0.847600
     28 N5         14.2030   -0.5670    7.5610 n2        1 D1A     -0.636100
     29 H2          0.1640    0.8540   -1.6920 ha        1 D1A      0.186000
     30 H1          0.8410    0.0640   -3.9370 ha        1 D1A      0.169000
     31 HA          4.5330    0.2840    0.7420 hn        1 D1A      0.325700
     32 H7          5.8710   -0.9900   -3.1050 ha        1 D1A      0.190000
     33 H6          3.1870   -0.6600   -4.4110 ha        1 D1A      0.164000
     34 HB          6.8240    1.0660    0.8530 hn        1 D1A      0.348500
     35 H15         8.0670    1.9060    2.6350 ha        1 D1A      0.189000
     36 H11         9.3040   -1.7080    0.4800 ha        1 D1A      0.189000
     37 H14        10.0000    1.6980    4.0900 ha        1 D1A      0.151500
     38 H12        11.2260   -1.9100    1.9400 ha        1 D1A      0.151500
     39 H171       13.7530   -1.4700    4.3740 hc        1 D1A      0.094033
     40 H172       12.3490   -2.3470    3.6720 hc        1 D1A      0.094033
     41 H173       13.3190   -1.2130    2.6370 hc        1 D1A      0.094033
     42 H61N       11.6470    1.3540    7.7650 hn        1 D1A      0.490800
     43 H62N       11.1480   -0.1910    7.3680 hn        1 D1A      0.490800
     44 H5N        14.2650   -1.0010    8.4620 hn        1 D1A      0.519400
     45 H4N        13.4360    1.7370    5.8730 hn        1 D1A      0.485800
     46 H42        14.1280    0.3210    5.2580 hn        1 D1A      0.485800
     47 H63        11.9490    0.0870    8.8160 hn        1 D1A      0.490800
@<TRIPOS>BOND
     1    1    2 1   
     2    2    3 1   
     3    2    4 1   
     4    4    5 ar  
     5    4    6 ar  
     6    5   12 ar  
     7    5   29 1   
     8    6    7 1   
     9    6   10 ar  
    10    7    8 1   
    11    7   31 1   
    12    8    9 2   
    13    8   13 1   
    14    9   10 1   
    15    9   32 1   
    16   10   11 ar  
    17   11   12 ar  
    18   11   33 1   
    19   12   30 1   
    20   13   14 2   
    21   13   15 1   
    22   15   16 1   
    23   15   34 1   
    24   16   17 ar  
    25   16   21 ar  
    26   17   18 ar  
    27   17   35 1   
    28   18   19 ar  
    29   18   37 1   
    30   19   20 ar  
    31   19   22 1   
    32   20   21 ar  
    33   20   38 1   
    34   21   36 1   
    35   22   23 1   
    36   22   24 2   
    37   23   39 1   
    38   23   40 1   
    39   23   41 1   
    40   24   25 1   
    41   25   26 1   
    42   25   45 1   
    43   25   46 1   
    44   26   27 1   
    45   26   28 2   
    46   27   42 1   
    47   27   43 1   
    48   27   47 1   
    49   28   44 1   
@<TRIPOS>SUBSTRUCTURE
     1 D1A         1 TEMP              0 ****  ****    0 ROOT
