@<TRIPOS>MOLECULE
D1B
   42    45     1     0     0
SMALL
bcc


@<TRIPOS>ATOM
      1 C1          0.8990    0.0430    2.1670 cc        1 D1B     -0.044100
      2 S2         -0.1380   -0.0520    0.8430 ss        1 D1B      0.019200
      3 C3          1.1150   -0.0450   -0.2810 cc        1 D1B     -0.152000
      4 C4          2.3510    0.0240    0.3420 cd        1 D1B     -0.096000
      5 C5          2.2240    0.0770    1.7590 cd        1 D1B     -0.151000
      6 C6          0.9260   -0.1150   -1.7120 cc        1 D1B      0.505400
      7 N7          1.9030   -0.3350   -2.6270 nd        1 D1B     -0.554100
      8 C8          1.2580   -0.3180   -3.8760 ca        1 D1B      0.078400
      9 C9         -0.1630   -0.0730   -3.6870 ca        1 D1B     -0.077200
     10 N10        -0.3500    0.0540   -2.3090 na        1 D1B     -0.283300
     11 C11         1.7540   -0.4990   -5.1760 ca        1 D1B     -0.077000
     12 C12         0.8670   -0.4270   -6.2370 ca        1 D1B     -0.134000
     13 C13        -0.5080   -0.1770   -6.0400 ca        1 D1B     -0.126900
     14 C14        -1.0470   -0.0050   -4.7700 ca        1 D1B     -0.092000
     15 C15         0.4200    0.0830    3.5270 ca        1 D1B      0.002000
     16 C16        -0.8210   -0.4850    3.8610 ca        1 D1B     -0.124000
     17 C17        -1.2860   -0.4450    5.1710 ca        1 D1B     -0.100500
     18 C18        -0.5150    0.1580    6.1710 ca        1 D1B     -0.194900
     19 C19         0.7210    0.7250    5.8490 ca        1 D1B     -0.100500
     20 C20         1.1840    0.6900    4.5350 ca        1 D1B     -0.124000
     21 C21        -1.4190   -0.1040   -7.2300 ce        1 D1B      0.653800
     22 N22        -0.9330    0.6980   -8.2850 nh        1 D1B     -0.960800
     23 N23        -2.5110   -0.8090   -7.2170 n2        1 D1B     -0.830100
     24 C24        -1.0400    0.2080    7.5730 ce        1 D1B      0.637800
     25 N25        -2.2260    0.6370    7.8920 n2        1 D1B     -0.832100
     26 N26        -0.1090   -0.1900    8.5560 nh        1 D1B     -0.892800
     27 H4          3.3120    0.0350   -0.1820 ha        1 D1B      0.179000
     28 H5          3.0830    0.1280    2.4330 ha        1 D1B      0.162000
     29 H10        -1.2030    0.2110   -1.8450 hn        1 D1B      0.307700
     30 H11         2.8220   -0.6990   -5.3380 ha        1 D1B      0.151000
     31 H12         1.2420   -0.5870   -7.2610 ha        1 D1B      0.146000
     32 H14        -2.1230    0.1630   -4.6220 ha        1 D1B      0.152000
     33 H16        -1.4270   -0.9710    3.0800 ha        1 D1B      0.140000
     34 H17        -2.2590   -0.8950    5.4190 ha        1 D1B      0.147500
     35 H19         1.3280    1.2080    6.6310 ha        1 D1B      0.147500
     36 H20         2.1540    1.1470    4.2850 ha        1 D1B      0.140000
     37 H221       -1.6010    1.0360   -8.9370 hn        1 D1B      0.400800
     38 H222       -0.2300    1.3540   -8.0370 hn        1 D1B      0.400800
     39 H23        -3.0950   -0.7390   -8.0230 hn        1 D1B      0.382400
     40 H25        -2.7550    0.9860    7.1220 hn        1 D1B      0.395400
     41 H261       -0.4820   -0.3120    9.4730 hn        1 D1B      0.398800
     42 H262        0.4740   -0.9410    8.2620 hn        1 D1B      0.398800
@<TRIPOS>BOND
     1    1    2 1   
     2    1    5 2   
     3    1   15 1   
     4    2    3 1   
     5    3    4 2   
     6    3    6 1   
     7    4    5 1   
     8    4   27 1   
     9    5   28 1   
    10    6    7 2   
    11    6   10 1   
    12    7    8 1   
    13    8    9 ar  
    14    8   11 ar  
    15    9   10 1   
    16    9   14 ar  
    17   10   29 1   
    18   11   12 ar  
    19   11   30 1   
    20   12   13 ar  
    21   12   31 1   
    22   13   14 ar  
    23   13   21 1   
    24   14   32 1   
    25   15   16 ar  
    26   15   20 ar  
    27   16   17 ar  
    28   16   33 1   
    29   17   18 ar  
    30   17   34 1   
    31   18   19 ar  
    32   18   24 1   
    33   19   20 ar  
    34   19   35 1   
    35   20   36 1   
    36   21   22 1   
    37   21   23 2   
    38   22   37 1   
    39   22   38 1   
    40   23   39 1   
    41   24   25 2   
    42   24   26 1   
    43   25   40 1   
    44   26   41 1   
    45   26   42 1   
@<TRIPOS>SUBSTRUCTURE
     1 D1B         1 TEMP              0 ****  ****    0 ROOT
