@<TRIPOS>MOLECULE
D1B
   44    47     1     0     0
SMALL
bcc


@<TRIPOS>ATOM
      1 C1          0.0330    0.1080    0.1910 cc        1 D1B     -0.089100
      2 S2          1.7120    0.0660    0.1230 ss        1 D1B      0.082200
      3 C3          1.8950    0.2080    1.7840 cc        1 D1B     -0.174000
      4 C4          0.6650    0.3000    2.4270 cd        1 D1B     -0.078000
      5 C5         -0.4120    0.2360    1.5020 cd        1 D1B     -0.124000
      6 C6          3.1580    0.2750    2.4870 cc        1 D1B      0.541400
      7 N7          3.3560    0.9260    3.6630 nd        1 D1B     -0.535100
      8 C8          4.7050    0.7260    3.9810 ca        1 D1B      0.118400
      9 C9          5.3360   -0.0860    2.9440 ca        1 D1B     -0.079200
     10 N10         4.3360   -0.3500    2.0060 na        1 D1B     -0.273300
     11 C11         5.4700    1.1780    5.0670 ca        1 D1B     -0.047000
     12 C12         6.8080    0.8240    5.1230 ca        1 D1B     -0.136000
     13 C13         7.4030    0.0300    4.1190 ca        1 D1B     -0.252900
     14 C14         6.6860   -0.4340    3.0150 ca        1 D1B     -0.076000
     15 C15        -0.8160    0.0290   -0.9730 ca        1 D1B      0.060000
     16 C16        -0.3620    0.4770   -2.2260 ca        1 D1B     -0.116000
     17 C17        -1.1870    0.4120   -3.3450 ca        1 D1B     -0.082500
     18 C18        -2.4830   -0.1020   -3.2230 ca        1 D1B     -0.269900
     19 C19        -2.9480   -0.5560   -1.9820 ca        1 D1B     -0.082500
     20 C20        -2.1190   -0.4920   -0.8670 ca        1 D1B     -0.116000
     21 C21         8.8440   -0.2800    4.2090 ce        1 D1B      0.591800
     22 N22         9.1610   -1.1220    5.4200 n4        1 D1B     -0.824600
     23 N23         9.8310    0.0330    3.4620 n2        1 D1B     -0.709100
     24 C24        -3.3380   -0.2120   -4.4230 ce        1 D1B      0.589800
     25 N25        -3.2550   -0.9490   -5.4610 n2        1 D1B     -0.701100
     26 N26        -4.5050    0.7420   -4.3680 n4        1 D1B     -0.824600
     27 H4          0.5320    0.4160    3.5080 ha        1 D1B      0.192000
     28 H5         -1.4610    0.2980    1.8070 ha        1 D1B      0.173000
     29 H10         4.4190   -0.9220    1.2070 hn        1 D1B      0.320700
     30 H11         5.0110    1.8060    5.8490 ha        1 D1B      0.182000
     31 H12         7.4230    1.2040    5.9550 ha        1 D1B      0.140000
     32 H14         7.1620   -1.0440    2.2330 ha        1 D1B      0.153000
     33 H16         0.6560    0.8910   -2.3250 ha        1 D1B      0.165000
     34 H17        -0.8130    0.7640   -4.3190 ha        1 D1B      0.150000
     35 H19        -3.9560   -0.9880   -1.8820 ha        1 D1B      0.150000
     36 H20        -2.4820   -0.8610    0.1070 ha        1 D1B      0.165000
     37 H221       10.1730   -1.2460    5.5520 hn        1 D1B      0.471467
     38 H222        8.7610   -0.6580    6.2440 hn        1 D1B      0.471467
     39 H23         9.6620    0.6030    2.6590 hn        1 D1B      0.489400
     40 H25        -2.5000   -1.6010   -5.5320 hn        1 D1B      0.492400
     41 H261       -4.1400    1.7000   -4.3920 hn        1 D1B      0.472133
     42 H262       -5.1540    0.6040   -5.1540 hn        1 D1B      0.472133
     43 H223        8.7170   -2.0380    5.3020 hn        1 D1B      0.471467
     44 H263       -5.0000    0.5910   -3.4830 hn        1 D1B      0.472133
@<TRIPOS>BOND
     1    1    2 1   
     2    1    5 2   
     3    1   15 1   
     4    2    3 1   
     5    3    4 2   
     6    3    6 1   
     7    4    5 1   
     8    4   27 1   
     9    5   28 1   
    10    6    7 2   
    11    6   10 1   
    12    7    8 1   
    13    8    9 ar  
    14    8   11 ar  
    15    9   10 1   
    16    9   14 ar  
    17   10   29 1   
    18   11   12 ar  
    19   11   30 1   
    20   12   13 ar  
    21   12   31 1   
    22   13   14 ar  
    23   13   21 1   
    24   14   32 1   
    25   15   16 ar  
    26   15   20 ar  
    27   16   17 ar  
    28   16   33 1   
    29   17   18 ar  
    30   17   34 1   
    31   18   19 ar  
    32   18   24 1   
    33   19   20 ar  
    34   19   35 1   
    35   20   36 1   
    36   21   22 1   
    37   21   23 2   
    38   22   37 1   
    39   22   38 1   
    40   22   43 1   
    41   23   39 1   
    42   24   25 2   
    43   24   26 1   
    44   25   40 1   
    45   26   41 1   
    46   26   42 1   
    47   26   44 1   
@<TRIPOS>SUBSTRUCTURE
     1 D1B         1 TEMP              0 ****  ****    0 ROOT
