@<TRIPOS>MOLECULE
D1B
   42    33     1     0     0
SMALL
bcc


@<TRIPOS>ATOM
      1 C1         -2.2800   -0.1500   -0.4600 c2        1 D1B     -0.361000
      2 S2         -0.7280   -0.1270   -0.4700 ss        1 D1B      0.712000
      3 C3         -0.2500   -0.1390    1.0070 c2        1 D1B     -0.363000
      4 C4         -1.4260   -0.1680    1.8560 c1        1 D1B     -0.142000
      5 C5         -2.7170   -0.1750    0.9230 c1        1 D1B     -0.146000
      6 C6          1.0680   -0.1900    1.4370 c2        1 D1B      0.098000
      7 N7          1.5800    1.0540    1.6320 n2        1 D1B     -0.149000
      8 C8          2.8370    0.9190    2.1240 c1        1 D1B     -0.054000
      9 C9          3.1040   -0.4140    2.2340 c1        1 D1B     -0.036000
     10 N10         2.0110   -1.0960    1.8100 n1        1 D1B     -0.224000
     11 C11         3.8140    1.8650    2.4880 c1        1 D1B     -0.074000
     12 C12         5.0480    1.4420    2.9570 c1        1 D1B     -0.113000
     13 C13         5.3190    0.0870    3.0690 c1        1 D1B     -0.106500
     14 C14         4.3570   -0.8440    2.7120 c1        1 D1B     -0.095000
     15 C15        -3.1040   -0.0880   -1.5750 c1        1 D1B      0.005000
     16 C16        -3.5500   -1.2560   -2.1730 c1        1 D1B     -0.113500
     17 C17        -4.4180   -1.1950   -3.2520 c1        1 D1B     -0.113500
     18 C18        -4.8400    0.0350   -3.7340 c1        1 D1B     -0.106500
     19 C19        -4.3930    1.2030   -3.1360 c1        1 D1B     -0.113000
     20 C20        -3.5250    1.1420   -2.0560 c1        1 D1B     -0.135000
     21 C21         6.6400   -0.3970    3.6300 c2        1 D1B      0.114000
     22 N22         7.7400   -0.6240    2.7620 n3        1 D1B     -0.331000
     23 N23         6.7680   -0.6060    4.9150 n1        1 D1B     -0.300000
     24 C24        -5.8300    0.1010   -4.8770 c2        1 D1B      0.114000
     25 N25        -7.1100   -0.0240   -4.6400 n1        1 D1B     -0.300000
     26 N26        -5.3700    0.2980   -6.2050 n3        1 D1B     -0.331000
     27 H4         -1.4260   -0.1810    2.8320 DU        1 D1B      0.174600
     28 H5         -3.6440   -0.1930    1.2300 DU        1 D1B      0.174600
     29 H10         1.9240   -2.0030    1.7790 DU        1 D1B      0.174600
     30 H11         3.6230    2.8190    2.4090 ha        1 D1B      0.153000
     31 H12         5.7250    2.0970    3.2100 ha        1 D1B      0.147000
     32 H14         4.5480   -1.7980    2.7900 ha        1 D1B      0.153000
     33 H16        -3.2540   -2.1220   -1.8340 ha        1 D1B      0.140500
     34 H17        -4.7320   -2.0180   -3.6730 ha        1 D1B      0.140500
     35 H19        -4.6900    2.0690   -3.4750 ha        1 D1B      0.147000
     36 H20        -3.2110    1.9650   -1.6360 ha        1 D1B      0.140000
     37 H221        8.5390   -0.9110    3.1010 hn        1 D1B      0.193250
     38 H222        7.6450   -0.4940    1.8620 hn        1 D1B      0.193250
     39 H23         6.0600   -0.4600    5.4740 DU        1 D1B      0.174600
     40 H25        -7.4060   -0.1510   -3.7860 DU        1 D1B      0.174600
     41 H261       -5.9700    0.3670   -6.8910 hn        1 D1B      0.193250
     42 H262       -4.4740    0.3620   -6.3730 hn        1 D1B      0.193250
@<TRIPOS>BOND
     1    1    2 1   
     2    1    5 1   
     3    1   15 1   
     4    2    3 1   
     5    3    4 1   
     6    3    6 1   
     7    4    5 1   
     8    6    7 1   
     9    6   10 1   
    10    7    8 1   
    11    8   11 1   
    12    9   14 1   
    13   11   30 1   
    14   12   13 1   
    15   12   31 1   
    16   13   21 1   
    17   14   32 1   
    18   15   20 1   
    19   16   17 1   
    20   16   33 1   
    21   17   34 1   
    22   18   19 1   
    23   18   24 1   
    24   19   35 1   
    25   20   36 1   
    26   21   22 1   
    27   21   23 1   
    28   22   37 1   
    29   22   38 1   
    30   24   25 1   
    31   24   26 1   
    32   26   41 1   
    33   26   42 1   
@<TRIPOS>SUBSTRUCTURE
     1 D1B         1 TEMP              0 ****  ****    0 ROOT
