@<TRIPOS>MOLECULE
D1B
   44    47     1     0     0
SMALL
bcc


@<TRIPOS>ATOM
      1 C1          0.0340    0.0880    0.1860 cc        1 D1B     -0.089100
      2 S2          1.7140    0.0740    0.1230 ss        1 D1B      0.082200
      3 C3          1.8900    0.1840    1.7870 cc        1 D1B     -0.174000
      4 C4          0.6560    0.2440    2.4270 cd        1 D1B     -0.078000
      5 C5         -0.4170    0.1810    1.4980 cd        1 D1B     -0.124000
      6 C6          3.1490    0.2560    2.4950 cc        1 D1B      0.541400
      7 N7          3.3330    0.8860    3.6850 nd        1 D1B     -0.535100
      8 C8          4.6850    0.7010    4.0030 ca        1 D1B      0.118400
      9 C9          5.3310   -0.0780    2.9510 ca        1 D1B     -0.079200
     10 N10         4.3390   -0.3390    2.0050 na        1 D1B     -0.273300
     11 C11         5.4390    1.1410    5.1010 ca        1 D1B     -0.047000
     12 C12         6.7830    0.8080    5.1540 ca        1 D1B     -0.136000
     13 C13         7.3930    0.0460    4.1350 ca        1 D1B     -0.252900
     14 C14         6.6870   -0.4060    3.0190 ca        1 D1B     -0.076000
     15 C15        -0.8110    0.0200   -0.9820 ca        1 D1B      0.060000
     16 C16        -0.3600    0.5020   -2.2240 ca        1 D1B     -0.116000
     17 C17        -1.1800    0.4470   -3.3460 ca        1 D1B     -0.082500
     18 C18        -2.4690   -0.0910   -3.2400 ca        1 D1B     -0.269900
     19 C19        -2.9290   -0.5770   -2.0100 ca        1 D1B     -0.082500
     20 C20        -2.1050   -0.5240   -0.8910 ca        1 D1B     -0.116000
     21 C21         8.8390   -0.2430    4.2230 ce        1 D1B      0.591800
     22 N22         9.1650   -1.1050    5.4170 nz        1 D1B     -0.824600
     23 N23         9.8230    0.1020    3.4860 n2        1 D1B     -0.709100
     24 C24        -3.3170   -0.1890   -4.4440 ce        1 D1B      0.589800
     25 N25        -3.2190   -0.9010   -5.4980 n2        1 D1B     -0.701100
     26 N26        -4.5010    0.7440   -4.3730 nz        1 D1B     -0.824600
     27 H4          0.5180    0.3340    3.5110 ha        1 D1B      0.192000
     28 H5         -1.4680    0.2200    1.8010 ha        1 D1B      0.173000
     29 H10         4.4330   -0.8920    1.1930 hn        1 D1B      0.320700
     30 H11         4.9680    1.7450    5.8950 ha        1 D1B      0.182000
     31 H12         7.3880    1.1790    5.9960 ha        1 D1B      0.140000
     32 H14         7.1750   -0.9910    2.2250 ha        1 D1B      0.153000
     33 H16         0.6510    0.9340   -2.3110 ha        1 D1B      0.165000
     34 H17        -0.8090    0.8260   -4.3120 ha        1 D1B      0.150000
     35 H19        -3.9310   -1.0280   -1.9230 ha        1 D1B      0.150000
     36 H20        -2.4660   -0.9190    0.0730 ha        1 D1B      0.165000
     37 H221        8.7370   -2.0260    5.2770 hn        1 D1B      0.471467
     38 H222        8.7550   -0.6660    6.2490 hn        1 D1B      0.471467
     39 H23         9.6470    0.6860    2.6950 hn        1 D1B      0.489400
     40 H25        -2.4540   -1.5390   -5.5810 hn        1 D1B      0.492400
     41 H261       -4.9950    0.5670   -3.4930 hn        1 D1B      0.472133
     42 H262       -5.1460    0.6130   -5.1640 hn        1 D1B      0.472133
     43 H223       10.1790   -1.2160    5.5490 hn        1 D1B      0.471467
     44 H263       -4.1520    1.7080   -4.3760 hn        1 D1B      0.472133
@<TRIPOS>BOND
     1    1    2 1   
     2    1    5 2   
     3    1   15 1   
     4    2    3 1   
     5    3    4 2   
     6    3    6 1   
     7    4    5 1   
     8    4   27 1   
     9    5   28 1   
    10    6    7 2   
    11    6   10 1   
    12    7    8 1   
    13    8    9 ar  
    14    8   11 ar  
    15    9   10 1   
    16    9   14 ar  
    17   10   29 1   
    18   11   12 ar  
    19   11   30 1   
    20   12   13 ar  
    21   12   31 1   
    22   13   14 ar  
    23   13   21 1   
    24   14   32 1   
    25   15   16 ar  
    26   15   20 ar  
    27   16   17 ar  
    28   16   33 1   
    29   17   18 ar  
    30   17   34 1   
    31   18   19 ar  
    32   18   24 1   
    33   19   20 ar  
    34   19   35 1   
    35   20   36 1   
    36   21   22 1   
    37   21   23 2   
    38   22   37 1   
    39   22   38 1   
    40   22   43 1   
    41   23   39 1   
    42   24   25 2   
    43   24   26 1   
    44   25   40 1   
    45   26   41 1   
    46   26   42 1   
    47   26   44 1   
@<TRIPOS>SUBSTRUCTURE
     1 D1B         1 TEMP              0 ****  ****    0 ROOT
