@<TRIPOS>MOLECULE
D1B
   44    47     1     0     0
SMALL
bcc


@<TRIPOS>ATOM
      1 C1         -0.0110   -0.1000    0.2410 cc        1 D1B     -0.087100
      2 S2          1.6560    0.1210    0.1650 ss        1 D1B      0.078200
      3 C3          1.8650   -0.0220    1.8230 cc        1 D1B     -0.172000
      4 C4          0.6550   -0.2360    2.4720 cd        1 D1B     -0.078000
      5 C5         -0.4290   -0.2840    1.5550 cd        1 D1B     -0.121000
      6 C6          3.1220    0.1100    2.5260 cc        1 D1B      0.540400
      7 N7          3.2540    0.5870    3.7910 nd        1 D1B     -0.534100
      8 C8          4.6250    0.5290    4.0740 ca        1 D1B      0.118400
      9 C9          5.3390   -0.0120    2.9210 ca        1 D1B     -0.079200
     10 N10         4.3650   -0.2600    1.9520 na        1 D1B     -0.272300
     11 C11         5.3440    0.9030    5.2200 ca        1 D1B     -0.047000
     12 C12         6.7180    0.7330    5.2200 ca        1 D1B     -0.136000
     13 C13         7.3940    0.1990    4.1020 ca        1 D1B     -0.252900
     14 C14         6.7250   -0.1780    2.9370 ca        1 D1B     -0.076000
     15 C15        -0.8700   -0.0880   -0.9170 ca        1 D1B      0.063000
     16 C16        -0.3490   -0.3320   -2.2010 ca        1 D1B     -0.117500
     17 C17        -1.1800   -0.3360   -3.3160 ca        1 D1B     -0.081000
     18 C18        -2.5510   -0.0950   -3.1630 ca        1 D1B     -0.268900
     19 C19        -3.0830    0.1560   -1.8920 ca        1 D1B     -0.081000
     20 C20        -2.2480    0.1610   -0.7800 ca        1 D1B     -0.117500
     21 C21         8.8660    0.0780    4.1440 ce        1 D1B      0.591800
     22 N22         9.3180   -0.8940    5.2060 n4        1 D1B     -0.824600
     23 N23         9.7860    0.6380    3.4590 n2        1 D1B     -0.709100
     24 C24        -3.4370   -0.1680   -4.3420 ce        1 D1B      0.589800
     25 N25        -3.7530   -1.1400   -5.1070 n2        1 D1B     -0.702100
     26 N26        -4.0530    1.1690   -4.6690 n4        1 D1B     -0.824600
     27 H4          0.5390   -0.3490    3.5560 ha        1 D1B      0.192000
     28 H5         -1.4630   -0.4580    1.8690 ha        1 D1B      0.174000
     29 H10         4.5080   -0.6800    1.0710 hn        1 D1B      0.320700
     30 H11         4.8190    1.3290    6.0920 ha        1 D1B      0.182000
     31 H12         7.2920    1.0560    6.1040 ha        1 D1B      0.140000
     32 H14         7.2630   -0.5830    2.0680 ha        1 D1B      0.153000
     33 H16         0.7280   -0.5320   -2.3270 ha        1 D1B      0.162500
     34 H17        -0.7550   -0.5390   -4.3120 ha        1 D1B      0.149500
     35 H19        -4.1630    0.3250   -1.7560 ha        1 D1B      0.149500
     36 H20        -2.6720    0.3610    0.2180 ha        1 D1B      0.162500
     37 H221        9.0010   -1.8320    4.9410 hn        1 D1B      0.471800
     38 H222        8.8760   -0.6260    6.0920 hn        1 D1B      0.471800
     39 H23         9.5250    1.3010    2.7580 hn        1 D1B      0.489400
     40 H25        -3.3740   -2.0460   -4.9190 hn        1 D1B      0.492400
     41 H261       -4.5040    1.5290   -3.8210 hn        1 D1B      0.471800
     42 H262       -4.7470    1.1000   -5.4250 hn        1 D1B      0.471800
     43 H223       10.3410   -0.8980    5.3170 hn        1 D1B      0.471800
     44 H263       -3.3050    1.8090   -4.9520 hn        1 D1B      0.471800
@<TRIPOS>BOND
     1    1    2 1   
     2    1    5 2   
     3    1   15 1   
     4    2    3 1   
     5    3    4 2   
     6    3    6 1   
     7    4    5 1   
     8    4   27 1   
     9    5   28 1   
    10    6    7 2   
    11    6   10 1   
    12    7    8 1   
    13    8    9 ar  
    14    8   11 ar  
    15    9   10 1   
    16    9   14 ar  
    17   10   29 1   
    18   11   12 ar  
    19   11   30 1   
    20   12   13 ar  
    21   12   31 1   
    22   13   14 ar  
    23   13   21 1   
    24   14   32 1   
    25   15   16 ar  
    26   15   20 ar  
    27   16   17 ar  
    28   16   33 1   
    29   17   18 ar  
    30   17   34 1   
    31   18   19 ar  
    32   18   24 1   
    33   19   20 ar  
    34   19   35 1   
    35   20   36 1   
    36   21   22 1   
    37   21   23 2   
    38   22   37 1   
    39   22   38 1   
    40   22   43 1   
    41   23   39 1   
    42   24   25 2   
    43   24   26 1   
    44   25   40 1   
    45   26   41 1   
    46   26   42 1   
    47   26   44 1   
@<TRIPOS>SUBSTRUCTURE
     1 D1B         1 TEMP              0 ****  ****    0 ROOT
