@<TRIPOS>MOLECULE
D1C
   52    53     1     0     0
SMALL
bcc


@<TRIPOS>ATOM
      1 FAS        -0.6170   -0.4750    0.2690 f         1 D1C     -0.147900
      2 CAQ         0.5720    0.1640    0.4320 ca        1 D1C      0.123900
      3 CAR         0.8050    0.9170    1.5860 ca        1 D1C     -0.155000
      4 CAM         2.0460    1.5590    1.7580 ca        1 D1C      0.219900
      5 FAT         2.2860    2.2920    2.8480 f         1 D1C     -0.031900
      6 CAN         3.0570    1.4190    0.7490 ca        1 D1C      0.135900
      7 FAU         4.2500    2.0140    0.9060 f         1 D1C     -0.052900
      8 CAO         2.7890    0.6690   -0.4070 ca        1 D1C     -0.111000
      9 CAP         1.5550    0.0390   -0.5850 ca        1 D1C     -0.240300
     10 CAV         1.2140   -0.6080   -1.8770 c3        1 D1C     -0.042100
     11 CAW         1.3970   -2.1430   -1.8770 c3        1 D1C      0.109500
     12 NAY         0.9760   -2.7370   -0.5680 n4        1 D1C     -0.842600
     13 CAX         0.5960   -2.7770   -3.0560 c3        1 D1C      0.062800
     14 NAZ         1.0210   -2.3060   -4.4090 n4        1 D1C     -0.721900
     15 SBA        -0.0700   -3.1280   -5.7160 s6        1 D1C      1.347800
     16 OBB         0.2180   -4.4550   -5.5430 o         1 D1C     -0.424300
     17 OBC        -1.2460   -2.4410   -5.5820 o         1 D1C     -0.424300
     18 NAL         0.6170   -2.6590   -7.3120 n4        1 D1C     -0.773900
     19 CAA        -0.2480   -3.3020   -8.3960 c3        1 D1C      0.149100
     20 CAB         0.1740   -3.0200   -9.8000 ca        1 D1C     -0.115300
     21 CAC         1.0040   -3.9250  -10.4760 ca        1 D1C     -0.104000
     22 CAD         1.1630   -3.8270  -11.8610 ca        1 D1C      0.017000
     23 CAE         0.5060   -2.8270  -12.5980 ca        1 D1C     -0.408500
     24 SAH         0.4120   -2.9240  -14.2680 sy        1 D1C      1.441200
     25 OAJ         0.8060   -4.1650  -14.7050 o         1 D1C     -0.511800
     26 OAK        -0.6380   -2.1760  -14.7390 o         1 D1C     -0.511800
     27 NAI         1.8670   -1.8770  -14.7900 n4        1 D1C     -0.809500
     28 CAF        -0.2530   -1.8770  -11.8940 ca        1 D1C      0.017000
     29 CAG        -0.4190   -1.9660  -10.5100 ca        1 D1C     -0.104000
     30 H1          0.0180    1.0260    2.3580 ha        1 D1C      0.225000
     31 H2          3.5720    0.6110   -1.1810 ha        1 D1C      0.169000
     32 H3          0.1440   -0.3620   -2.1300 hc        1 D1C      0.086700
     33 H4          1.8810   -0.1910   -2.6800 hc        1 D1C      0.086700
     34 H5          2.4990   -2.3880   -1.9950 hx        1 D1C      0.134700
     35 H6         -0.0030   -2.4850   -0.3480 hn        1 D1C      0.494800
     36 H7          1.5710   -2.3220    0.1750 hn        1 D1C      0.494800
     37 H9         -0.5010   -2.5120   -2.9330 hx        1 D1C      0.141700
     38 H10         0.7220   -3.9040   -3.0340 hx        1 D1C      0.141700
     39 H11         0.9320   -1.2810   -4.4150 hn        1 D1C      0.480800
     40 H12         0.6150   -1.6480   -7.5030 hn        1 D1C      0.494800
     41 H13        -1.3030   -2.9120   -8.2440 hx        1 D1C      0.144200
     42 H14        -0.2110   -4.4230   -8.2200 hx        1 D1C      0.144200
     43 H15         1.4950   -4.7590   -9.9440 ha        1 D1C      0.174000
     44 H16         1.7750   -4.5930  -12.3840 ha        1 D1C      0.207000
     45 H17         2.4070   -1.4720  -14.0300 hn        1 D1C      0.479467
     46 H18         1.5530   -1.0990  -15.3840 hn        1 D1C      0.479467
     47 H19        -0.7840   -1.0710  -12.4450 ha        1 D1C      0.207000
     48 H20        -1.0690   -1.2300  -10.0060 ha        1 D1C      0.174000
     49 HAY3        1.0870   -3.7570   -0.5550 hn        1 D1C      0.494800
     50 HAZ2        2.0170   -2.5210   -4.5160 hn        1 D1C      0.480800
     51 HAL2        1.5790   -2.9830   -7.4810 hn        1 D1C      0.494800
     52 HAI3        2.5200   -2.4300  -15.3610 hn        1 D1C      0.479467
@<TRIPOS>BOND
     1    1    2 1   
     2    2    3 ar  
     3    2    9 ar  
     4    3    4 ar  
     5    3   30 1   
     6    4    5 1   
     7    4    6 ar  
     8    6    7 1   
     9    6    8 ar  
    10    8    9 ar  
    11    8   31 1   
    12    9   10 1   
    13   10   11 1   
    14   10   32 1   
    15   10   33 1   
    16   11   12 1   
    17   11   13 1   
    18   11   34 1   
    19   12   35 1   
    20   12   36 1   
    21   12   49 1   
    22   13   14 1   
    23   13   37 1   
    24   13   38 1   
    25   14   15 1   
    26   14   39 1   
    27   14   50 1   
    28   15   16 2   
    29   15   17 2   
    30   15   18 1   
    31   18   19 1   
    32   18   40 1   
    33   18   51 1   
    34   19   20 1   
    35   19   41 1   
    36   19   42 1   
    37   20   21 ar  
    38   20   29 ar  
    39   21   22 ar  
    40   21   43 1   
    41   22   23 ar  
    42   22   44 1   
    43   23   24 1   
    44   23   28 ar  
    45   24   25 2   
    46   24   26 2   
    47   24   27 1   
    48   27   45 1   
    49   27   46 1   
    50   27   52 1   
    51   28   29 ar  
    52   28   47 1   
    53   29   48 1   
@<TRIPOS>SUBSTRUCTURE
     1 D1C         1 TEMP              0 ****  ****    0 ROOT
