@<TRIPOS>MOLECULE
D1C
   48    39     1     0     0
SMALL
bcc


@<TRIPOS>ATOM
      1 FAS        -2.7180    4.7590   -3.0140 f         1 D1C     -0.104000
      2 CAQ        -1.8080    3.7990   -3.0830 c2        1 D1C      0.090000
      3 CAR        -0.8420    3.8340   -4.0810 c2        1 D1C     -0.178000
      4 CAM         0.0010    2.7540   -4.2670 c1        1 D1C      0.087000
      5 FAT         1.0130    2.8370   -5.1560 f         1 D1C     -0.080000
      6 CAN        -0.1160    1.6370   -3.4580 c1        1 D1C     -0.387500
      7 FAU         0.6940    0.6040   -3.6350 f         1 D1C     -0.083000
      8 CAO        -1.0810    1.6000   -2.4580 c1        1 D1C     -0.066500
      9 CAP        -1.9250    2.6780   -2.2710 c1        1 D1C     -0.097000
     10 CAV        -3.1000    2.5880   -1.2180 c2        1 D1C     -0.157000
     11 CAW        -2.5440    2.8000    0.1920 c3        1 D1C     -0.064000
     12 NAY        -2.7940    4.1370    0.6030 n3        1 D1C     -0.358000
     13 CAX        -3.2180    1.8460    1.1480 c3        1 D1C      0.013000
     14 NAZ        -2.2590    1.3890    2.1370 n3        1 D1C     -0.885000
     15 SBA        -1.9510   -0.2620    2.3090 s4        1 D1C      2.040800
     16 OBB        -2.7060   -0.8250    3.4080 o         1 D1C     -0.545400
     17 OBC        -2.4740   -1.0060    1.2030 o         1 D1C     -0.545400
     18 NAL        -0.3160   -0.5280    2.4960 n2        1 D1C     -0.886000
     19 CAA         0.1470   -1.7770    2.9810 c3        1 D1C      0.016000
     20 CAB         1.2410   -2.2980    2.0700 c1        1 D1C     -0.028000
     21 CAC         0.9250   -3.1530    1.0310 c1        1 D1C     -0.080000
     22 CAD         1.9470   -3.6980    0.2300 c1        1 D1C     -0.080000
     23 CAE         3.2770   -3.3770    0.4840 c1        1 D1C     -0.387500
     24 SAH         4.5530   -3.9890   -0.5810 ss        1 D1C      2.867000
     25 OAJ         5.5460   -2.9960   -0.8240 o         1 D1C     -0.938000
     26 OAK         4.0640   -4.2160   -1.8950 o         1 D1C     -0.938000
     27 NAI         5.2260   -5.3730    0.0610 n2        1 D1C     -0.953000
     28 CAF         3.5990   -2.5100    1.5390 c1        1 D1C     -0.066500
     29 CAG         2.5900   -1.9720    2.3280 c1        1 D1C     -0.156000
     30 H1         -0.6920    4.6700   -4.5930 ha        1 D1C      0.174000
     31 H2         -1.1630    0.8080   -1.8850 ha        1 D1C      0.160000
     32 H3         -3.7630    3.2770   -1.4120 ha        1 D1C      0.104500
     33 H4         -3.5290    1.6870   -1.2740 ha        1 D1C      0.104500
     34 H5         -1.5830    2.6340    0.1910 h1        1 D1C      0.147000
     35 H6         -2.7900    4.6920   -0.1330 hn        1 D1C      0.157000
     36 H7         -2.1430    4.4030    1.1910 hn        1 D1C      0.157000
     37 H9         -3.5630    1.0840    0.6560 h1        1 D1C      0.075000
     38 H10        -3.9540    2.3020    1.5970 h1        1 D1C      0.075000
     39 H11        -1.9180    1.9780    2.7410 hn        1 D1C      0.240000
     40 H12         0.2840    0.0980    2.2060 hn        1 D1C      0.257000
     41 H13        -0.5930   -2.4120    2.9970 h1        1 D1C      0.103500
     42 H14         0.4980   -1.6650    3.8820 h1        1 D1C      0.103500
     43 H15         0.0090   -3.3740    0.8550 ha        1 D1C      0.152000
     44 H16         1.7280   -4.2860   -0.4830 ha        1 D1C      0.152000
     45 H17         4.9000   -6.2010   -0.1850 hn        1 D1C      0.243000
     46 H18         5.9660   -5.3150    0.6010 hn        1 D1C      0.243000
     47 H19         4.5230   -2.2870    1.7160 ha        1 D1C      0.160000
     48 H20         2.8110   -1.3780    3.0510 ha        1 D1C      0.140000
@<TRIPOS>BOND
     1    1    2 1   
     2    2    3 1   
     3    2    9 1   
     4    3    4 1   
     5    3   30 1   
     6    4    5 1   
     7    6    8 1   
     8    8   31 1   
     9   10   11 1   
    10   10   32 1   
    11   10   33 1   
    12   11   12 1   
    13   11   13 1   
    14   11   34 1   
    15   12   35 1   
    16   12   36 1   
    17   13   14 1   
    18   13   37 1   
    19   13   38 1   
    20   14   15 1   
    21   14   39 1   
    22   15   16 1   
    23   15   17 1   
    24   18   19 1   
    25   18   40 1   
    26   19   20 1   
    27   19   41 1   
    28   19   42 1   
    29   20   29 1   
    30   21   22 1   
    31   21   43 1   
    32   22   44 1   
    33   23   28 1   
    34   24   25 1   
    35   24   26 1   
    36   27   45 1   
    37   27   46 1   
    38   28   47 1   
    39   29   48 1   
@<TRIPOS>SUBSTRUCTURE
     1 D1C         1 TEMP              0 ****  ****    0 ROOT
