@<TRIPOS>MOLECULE
D1C
   52    53     1     0     0
SMALL
bcc


@<TRIPOS>ATOM
      1 FAS         0.0000    0.0000    0.0000 f         1 D1C     -0.131900
      2 CAQ         1.3520    0.0000    0.0000 ca        1 D1C      0.058900
      3 CAR         2.0440    0.0000    1.1990 ca        1 D1C     -0.090000
      4 CAM         3.4280    0.0000    1.1990 ca        1 D1C      0.207900
      5 FAT         4.1040   -0.0010    2.3680 f         1 D1C     -0.053900
      6 CAN         4.1190    0.0000   -0.0020 ca        1 D1C      0.137900
      7 FAU         5.4710   -0.0000   -0.0040 f         1 D1C     -0.064900
      8 CAO         3.4250    0.0000   -1.2000 ca        1 D1C     -0.058000
      9 CAP         2.0440   -0.0060   -1.1990 ca        1 D1C     -0.238300
     10 CAV         1.2900   -0.0060   -2.5030 c3        1 D1C      0.062900
     11 CAW         0.8230   -1.4280   -2.8230 c3        1 D1C     -0.077500
     12 NAY        -0.1500   -1.8630   -1.8120 nz        1 D1C      0.018400
     13 CAX         0.1680   -1.4520   -4.2040 c3        1 D1C      0.054800
     14 NAZ        -0.3850   -2.7840   -4.4600 ny        1 D1C     -0.251900
     15 SBA        -1.4650   -3.0100   -5.6950 s6        1 D1C      0.975800
     16 OBB        -1.7810   -4.3950   -5.7040 o         1 D1C     -0.374800
     17 OBC        -2.4460   -1.9900   -5.5620 o         1 D1C     -0.374800
     18 NAL        -0.6620   -2.7040   -7.1110 ny        1 D1C     -0.218900
     19 CAA         0.4460   -3.5680   -7.5260 c3        1 D1C      0.144100
     20 CAB         0.7590   -3.3210   -8.9790 ca        1 D1C     -0.166300
     21 CAC         1.6830   -2.3560   -9.3320 ca        1 D1C     -0.065000
     22 CAD         1.9700   -2.1290  -10.6650 ca        1 D1C      0.054500
     23 CAE         1.3320   -2.8660  -11.6450 ca        1 D1C     -0.176500
     24 SAH         1.6920   -2.5710  -13.3450 sy        1 D1C      0.958200
     25 OAJ         2.9880   -1.9890  -13.3850 o         1 D1C     -0.446800
     26 OAK         1.3530   -3.7630  -14.0390 o         1 D1C     -0.446800
     27 NAI         0.6410   -1.4070  -13.8730 nz        1 D1C     -0.128500
     28 CAF         0.4080   -3.8310  -11.2920 ca        1 D1C      0.054500
     29 CAG         0.1250   -4.0630   -9.9580 ca        1 D1C     -0.065000
     30 H1          1.5030    0.0350    2.1370 ha        1 D1C      0.178000
     31 H2          3.9650   -0.0020   -2.1390 ha        1 D1C      0.135000
     32 H3          0.4300    0.6470   -2.4230 hc        1 D1C      0.070700
     33 H4          1.9390    0.3470   -3.2950 hc        1 D1C      0.070700
     34 H5          1.6740   -2.0980   -2.8160 hx        1 D1C      0.114700
     35 H6         -0.4400   -2.8000   -2.0090 hn        1 D1C      0.257133
     36 H7         -0.9450   -1.2560   -1.8310 hn        1 D1C      0.257133
     37 H9         -0.6280   -0.7180   -4.2390 hx        1 D1C      0.110200
     38 H10         0.9080   -1.2170   -4.9590 hx        1 D1C      0.110200
     39 H11         0.3880   -3.3970   -4.6280 hn        1 D1C      0.351800
     40 H12        -0.3050   -1.7710   -7.0530 hn        1 D1C      0.356300
     41 H13         1.3200   -3.3470   -6.9260 hx        1 D1C      0.088200
     42 H14         0.1660   -4.6060   -7.3880 hx        1 D1C      0.088200
     43 H15         2.2160   -1.8100   -8.5630 ha        1 D1C      0.129500
     44 H16         2.6950   -1.3730  -10.9420 ha        1 D1C      0.161500
     45 H17         0.7710   -0.5710  -13.3380 hn        1 D1C      0.322800
     46 H18         0.8150   -1.2140  -14.8400 hn        1 D1C      0.322800
     47 H19        -0.0900   -4.4110  -12.0600 ha        1 D1C      0.161500
     48 H20        -0.6000   -4.8190   -9.6810 ha        1 D1C      0.129500
     49 HAY3        0.2740   -1.8290   -0.9050 hn        1 D1C      0.257133
     50 HAZ2       -0.8320   -3.0850   -3.6170 hn        1 D1C      0.351800
     51 HAL2       -1.3420   -2.7210   -7.8460 hn        1 D1C      0.356300
     52 HAI3       -0.3000   -1.7300  -13.7620 hn        1 D1C      0.322800
@<TRIPOS>BOND
     1    1    2 1   
     2    2    3 ar  
     3    2    9 ar  
     4    3    4 ar  
     5    3   30 1   
     6    4    5 1   
     7    4    6 ar  
     8    6    7 1   
     9    6    8 ar  
    10    8    9 ar  
    11    8   31 1   
    12    9   10 1   
    13   10   11 1   
    14   10   32 1   
    15   10   33 1   
    16   11   12 1   
    17   11   13 1   
    18   11   34 1   
    19   12   35 1   
    20   12   36 1   
    21   12   49 1   
    22   13   14 1   
    23   13   37 1   
    24   13   38 1   
    25   14   15 1   
    26   14   39 1   
    27   14   50 1   
    28   15   16 2   
    29   15   17 2   
    30   15   18 1   
    31   18   19 1   
    32   18   40 1   
    33   18   51 1   
    34   19   20 1   
    35   19   41 1   
    36   19   42 1   
    37   20   21 ar  
    38   20   29 ar  
    39   21   22 ar  
    40   21   43 1   
    41   22   23 ar  
    42   22   44 1   
    43   23   24 1   
    44   23   28 ar  
    45   24   25 2   
    46   24   26 2   
    47   24   27 1   
    48   27   45 1   
    49   27   46 1   
    50   27   52 1   
    51   28   29 ar  
    52   28   47 1   
    53   29   48 1   
@<TRIPOS>SUBSTRUCTURE
     1 D1C         1 TEMP              0 ****  ****    0 ROOT
