@<TRIPOS>MOLECULE
D1C
   48    49     1     0     0
SMALL
bcc


@<TRIPOS>ATOM
      1 FAS         5.7570   -1.1750    2.1700 f         1 D1C     -0.131900
      2 CAQ         6.3700   -0.4650    1.1920 ca        1 D1C      0.157900
      3 CAR         7.7430   -0.6610    0.9730 ca        1 D1C     -0.182000
      4 CAM         8.3960    0.0700   -0.0290 ca        1 D1C      0.120900
      5 FAT         9.7170   -0.1120   -0.2480 f         1 D1C     -0.119900
      6 CAN         7.6660    1.0040   -0.8110 ca        1 D1C      0.080900
      7 FAU         8.2910    1.7140   -1.7770 f         1 D1C     -0.123900
      8 CAO         6.2940    1.1840   -0.5760 ca        1 D1C     -0.121000
      9 CAP         5.6360    0.4610    0.4160 ca        1 D1C     -0.087300
     10 CAV         4.1820    0.6630    0.6500 c3        1 D1C     -0.034100
     11 CAW         3.3200   -0.2980   -0.1910 c3        1 D1C      0.169500
     12 NAY         3.6770   -1.6810    0.0160 n3        1 D1C     -0.911800
     13 CAX         1.8350    0.0680    0.1140 c3        1 D1C      0.177800
     14 NAZ         0.8820   -0.6870   -0.6390 n3        1 D1C     -0.922100
     15 SBA        -0.4730   -1.3390   -0.0210 s6        1 D1C      1.578800
     16 OBB        -0.9060   -2.3390   -0.9300 o         1 D1C     -0.647800
     17 OBC        -0.2280   -1.7320    1.3210 o         1 D1C     -0.647800
     18 NAL        -1.5630   -0.1320    0.0180 n3        1 D1C     -0.920100
     19 CAA        -2.4630    0.1860   -1.0510 c3        1 D1C      0.264100
     20 CAB        -3.9120    0.2050   -0.6470 ca        1 D1C     -0.047300
     21 CAC        -4.3710    1.1490    0.2780 ca        1 D1C     -0.145000
     22 CAD        -5.7160    1.1800    0.6310 ca        1 D1C     -0.017000
     23 CAE        -6.6270    0.2750    0.0730 ca        1 D1C     -0.375500
     24 SAH        -8.2680    0.3340    0.4880 sy        1 D1C      1.526200
     25 OAJ        -8.5550    1.6340    0.9580 o         1 D1C     -0.656800
     26 OAK        -9.0170   -0.1510   -0.6050 o         1 D1C     -0.656800
     27 NAI        -8.3740   -0.7020    1.7030 n3        1 D1C     -1.026700
     28 CAF        -6.1570   -0.6590   -0.8570 ca        1 D1C     -0.017000
     29 CAG        -4.8120   -0.7020   -1.2150 ca        1 D1C     -0.145000
     30 H1          8.3040   -1.3870    1.5800 ha        1 D1C      0.171000
     31 H2          5.7400    1.9090   -1.1930 ha        1 D1C      0.156000
     32 H3          3.9530    0.5160    1.7410 hc        1 D1C      0.060700
     33 H4          3.8970    1.7150    0.3800 hc        1 D1C      0.060700
     34 H5          3.5140   -0.0760   -1.2840 h1        1 D1C      0.062700
     35 H6          3.6880   -1.9160    0.9890 hn        1 D1C      0.363800
     36 H7          3.0580   -2.2930   -0.4740 hn        1 D1C      0.363800
     37 H9          1.6400   -0.0970    1.2140 h1        1 D1C      0.051200
     38 H10         1.7080    1.1680   -0.1030 h1        1 D1C      0.051200
     39 H11         1.1060   -0.7740   -1.6020 hn        1 D1C      0.449800
     40 H12        -1.7110    0.4060    0.8390 hn        1 D1C      0.449800
     41 H13        -2.2110    1.2100   -1.4640 h1        1 D1C      0.062700
     42 H14        -2.3170   -0.5680   -1.8810 h1        1 D1C      0.062700
     43 H15        -3.6700    1.8740    0.7190 ha        1 D1C      0.144000
     44 H16        -6.0800    1.9400    1.3450 ha        1 D1C      0.156000
     45 H17        -8.2650   -0.4470    2.6520 hn        1 D1C      0.449300
     46 H18        -8.5790   -1.6630    1.5870 hn        1 D1C      0.449300
     47 H19        -6.8700   -1.3610   -1.3250 ha        1 D1C      0.156000
     48 H20        -4.4600   -1.4500   -1.9420 ha        1 D1C      0.144000
@<TRIPOS>BOND
     1    1    2 1   
     2    2    3 ar  
     3    2    9 ar  
     4    3    4 ar  
     5    3   30 1   
     6    4    5 1   
     7    4    6 ar  
     8    6    7 1   
     9    6    8 ar  
    10    8    9 ar  
    11    8   31 1   
    12    9   10 1   
    13   10   11 1   
    14   10   32 1   
    15   10   33 1   
    16   11   12 1   
    17   11   13 1   
    18   11   34 1   
    19   12   35 1   
    20   12   36 1   
    21   13   14 1   
    22   13   37 1   
    23   13   38 1   
    24   14   15 1   
    25   14   39 1   
    26   15   16 2   
    27   15   17 2   
    28   15   18 1   
    29   18   19 1   
    30   18   40 1   
    31   19   20 1   
    32   19   41 1   
    33   19   42 1   
    34   20   21 ar  
    35   20   29 ar  
    36   21   22 ar  
    37   21   43 1   
    38   22   23 ar  
    39   22   44 1   
    40   23   24 1   
    41   23   28 ar  
    42   24   25 2   
    43   24   26 2   
    44   24   27 1   
    45   27   45 1   
    46   27   46 1   
    47   28   29 ar  
    48   28   47 1   
    49   29   48 1   
@<TRIPOS>SUBSTRUCTURE
     1 D1C         1 TEMP              0 ****  ****    0 ROOT
