@<TRIPOS>MOLECULE
D1D
   16    16     1     0     0
SMALL
bcc


@<TRIPOS>ATOM
      1 S1         -1.4830   -0.6230   -1.6960 ss        1 D1D     -0.157100
      2 C1          0.1430   -0.6230   -1.6960 c3        1 D1D     -0.026300
      3 C2          0.7560   -0.6230   -0.2090 c3        1 D1D      0.108100
      4 O2          2.0170   -0.4770   -0.2830 oh        1 D1D     -0.597800
      5 C3          0.1130    0.6160    0.7810 c3        1 D1D      0.108100
      6 O3          0.5410    0.4580    1.9680 oh        1 D1D     -0.597800
      7 C4         -1.4960    0.6320    0.8060 c3        1 D1D     -0.026300
      8 S4         -2.1380    0.6490   -0.6880 ss        1 D1D     -0.157100
      9 H1C1        0.4590    0.1720   -2.1680 h1        1 D1D      0.098700
     10 H1C2        0.4590   -1.4170   -2.1680 h1        1 D1D      0.098700
     11 H2          0.5660   -1.4850    0.2070 h1        1 D1D      0.064700
     12 HA          2.4140   -1.2600   -0.1520 ho        1 D1D      0.412000
     13 H3          0.4290    1.4780    0.4470 h1        1 D1D      0.064700
     14 HB          0.8270    1.2360    2.2860 ho        1 D1D      0.412000
     15 H4C1       -1.8120   -0.1620    1.2770 h1        1 D1D      0.098700
     16 H4C2       -1.7960    1.4260    1.2880 h1        1 D1D      0.098700
@<TRIPOS>BOND
     1    1    2 1   
     2    1    8 1   
     3    2    3 1   
     4    2    9 1   
     5    2   10 1   
     6    3    4 1   
     7    3    5 1   
     8    3   11 1   
     9    4   12 1   
    10    5    6 1   
    11    5    7 1   
    12    5   13 1   
    13    6   14 1   
    14    7    8 1   
    15    7   15 1   
    16    7   16 1   
@<TRIPOS>SUBSTRUCTURE
     1 D1D         1 TEMP              0 ****  ****    0 ROOT
