@<TRIPOS>MOLECULE
D1D
   16    16     1     0     0
SMALL
bcc


@<TRIPOS>ATOM
      1 S1          1.0570   -0.1770   -1.7080 ss        1 D1D     -0.157100
      2 C1          1.5030    0.5020   -0.1450 c3        1 D1D     -0.026300
      3 C2          0.7510   -0.1810    0.9850 c3        1 D1D      0.108100
      4 O2          1.3250    0.2800    2.2030 oh        1 D1D     -0.597800
      5 C3         -0.7510    0.1830    0.9840 c3        1 D1D      0.108100
      6 O3         -1.3270   -0.2780    2.2010 oh        1 D1D     -0.597800
      7 C4         -1.5020   -0.5010   -0.1470 c3        1 D1D     -0.026300
      8 S4         -1.0540    0.1760   -1.7100 ss        1 D1D     -0.157100
      9 H1C1        1.3430    1.6060   -0.1020 h1        1 D1D      0.098700
     10 H1C2        2.6030    0.3110   -0.0350 h1        1 D1D      0.098700
     11 H2          0.8640   -1.3000    0.9070 h1        1 D1D      0.064700
     12 HA          1.0790   -0.3620    2.8810 ho        1 D1D      0.412000
     13 H3         -0.8650    1.3010    0.9050 h1        1 D1D      0.064700
     14 HB         -1.0830    0.3650    2.8790 ho        1 D1D      0.412000
     15 H4C1       -2.6020   -0.3110   -0.0390 h1        1 D1D      0.098700
     16 H4C2       -1.3420   -1.6050   -0.1030 h1        1 D1D      0.098700
@<TRIPOS>BOND
     1    1    2 1   
     2    1    8 1   
     3    2    3 1   
     4    2    9 1   
     5    2   10 1   
     6    3    4 1   
     7    3    5 1   
     8    3   11 1   
     9    4   12 1   
    10    5    6 1   
    11    5    7 1   
    12    5   13 1   
    13    6   14 1   
    14    7    8 1   
    15    7   15 1   
    16    7   16 1   
@<TRIPOS>SUBSTRUCTURE
     1 D1D         1 TEMP              0 ****  ****    0 ROOT
