@<TRIPOS>MOLECULE
D1D
   16    16     1     0     0
SMALL
bcc


@<TRIPOS>ATOM
      1 S1         -0.0320    0.0730   -0.0660 ss        1 D1D     -0.153100
      2 C1          1.7240   -0.0390   -0.0710 c3        1 D1D     -0.045800
      3 C2          2.3020   -0.0810    1.3360 c3        1 D1D      0.125100
      4 O2          3.6820   -0.3760    1.1810 oh        1 D1D     -0.600800
      5 C3          2.1370    1.2690    2.0730 c3        1 D1D      0.125100
      6 O3          2.9060    1.1260    3.2620 oh        1 D1D     -0.600800
      7 C4          0.6890    1.5730    2.4260 c3        1 D1D     -0.045800
      8 S4         -0.2910    1.9050    1.0020 ss        1 D1D     -0.153100
      9 H1C1        1.9630   -1.0020   -0.5950 h1        1 D1D      0.095950
     10 H1C2        2.1960    0.7900   -0.6530 h1        1 D1D      0.095950
     11 H2          1.8110   -0.8920    1.9430 h1        1 D1D      0.063700
     12 HA          4.0770   -0.3450    2.0630 ho        1 D1D      0.419500
     13 H3          2.5670    2.0950    1.4400 h1        1 D1D      0.063700
     14 HB          2.9440    1.9950    3.6790 ho        1 D1D      0.419500
     15 H4C1        0.6350    2.5080    3.0430 h1        1 D1D      0.095950
     16 H4C2        0.2650    0.7380    3.0360 h1        1 D1D      0.095950
@<TRIPOS>BOND
     1    1    2 1   
     2    1    8 1   
     3    2    3 1   
     4    2    9 1   
     5    2   10 1   
     6    3    4 1   
     7    3    5 1   
     8    3   11 1   
     9    4   12 1   
    10    5    6 1   
    11    5    7 1   
    12    5   13 1   
    13    6   14 1   
    14    7    8 1   
    15    7   15 1   
    16    7   16 1   
@<TRIPOS>SUBSTRUCTURE
     1 D1D         1 TEMP              0 ****  ****    0 ROOT
