@<TRIPOS>MOLECULE
D1D
   16    16     1     0     0
SMALL
bcc


@<TRIPOS>ATOM
      1 S1          0.0200   -0.0040   -0.0830 ss        1 D1D     -0.157100
      2 C1          1.7810   -0.0040   -0.0400 c3        1 D1D     -0.026300
      3 C2          2.2960    0.0030    1.3900 c3        1 D1D      0.108100
      4 O2          3.7010   -0.2090    1.3250 oh        1 D1D     -0.597800
      5 C3          2.0370    1.3560    2.0920 c3        1 D1D      0.108100
      6 O3          2.7640    1.3750    3.3150 oh        1 D1D     -0.597800
      7 C4          0.5710    1.5430    2.4470 c3        1 D1D     -0.026300
      8 S4         -0.4060    1.7910    1.0030 ss        1 D1D     -0.157100
      9 H1C1        2.0960   -0.9510   -0.5500 h1        1 D1D      0.098700
     10 H1C2        2.2180    0.8510   -0.6100 h1        1 D1D      0.098700
     11 H2          1.8100   -0.8230    1.9820 h1        1 D1D      0.064700
     12 HA          3.9730   -0.5120    2.2010 ho        1 D1D      0.412000
     13 H3          2.3850    2.1950    1.4260 h1        1 D1D      0.064700
     14 HB          3.6820    1.5700    3.0850 ho        1 D1D      0.412000
     15 H4C1        0.4470    2.4730    3.0600 h1        1 D1D      0.098700
     16 H4C2        0.2100    0.6810    3.0590 h1        1 D1D      0.098700
@<TRIPOS>BOND
     1    1    2 1   
     2    1    8 1   
     3    2    3 1   
     4    2    9 1   
     5    2   10 1   
     6    3    4 1   
     7    3    5 1   
     8    3   11 1   
     9    4   12 1   
    10    5    6 1   
    11    5    7 1   
    12    5   13 1   
    13    6   14 1   
    14    7    8 1   
    15    7   15 1   
    16    7   16 1   
@<TRIPOS>SUBSTRUCTURE
     1 D1D         1 TEMP              0 ****  ****    0 ROOT
