@<TRIPOS>MOLECULE
D1F
   50    51     1     0     0
SMALL
bcc


@<TRIPOS>ATOM
      1 N1         -0.8640   -0.5740   -0.3240 n         1 D1F     -0.357000
      2 C2         -1.1820   -1.9430   -0.5670 c         1 D1F      0.819500
      3 O2         -2.3350   -2.3040   -0.8820 o         1 D1F     -0.632500
      4 N3         -0.1510   -2.8870   -0.4670 n         1 D1F     -0.588500
      5 C4          1.1760   -2.5670   -0.1250 c         1 D1F      0.724700
      6 O4          2.0030   -3.4870   -0.0610 o         1 D1F     -0.590500
      7 C5          1.4450   -1.1350    0.1310 cc        1 D1F     -0.095900
      8 C6          0.4270   -0.2230    0.0390 cd        1 D1F      0.067600
      9 C7          2.7470   -0.7470    0.4620 cg        1 D1F     -0.159300
     10 C8          3.8670   -0.4290    0.7450 c1        1 D1F     -0.085100
     11 C9          5.2050   -0.0630    1.0960 c3        1 D1F     -0.004300
     12 C1'        -1.9210    0.4220   -0.2570 c3        1 D1F      0.330500
     13 C10         5.8430    0.8570    0.0670 c3        1 D1F     -0.076400
     14 C11         7.2560    1.2150    0.4730 c3        1 D1F     -0.081400
     15 C12         7.9020    2.1320   -0.5440 c3        1 D1F     -0.079400
     16 C13         9.3100    2.4930   -0.1470 c3        1 D1F     -0.093100
     17 C2'        -2.7690    0.5310   -1.5560 c3        1 D1F      0.112100
     18 O2'        -1.9030    1.0280   -2.5590 oh        1 D1F     -0.596800
     19 C3'        -3.9120    1.5310   -1.3140 c3        1 D1F      0.072100
     20 O3'        -4.7080    1.5150   -2.4880 oh        1 D1F     -0.598800
     21 C4'        -4.7330    1.0930   -0.0930 c3        1 D1F      0.082100
     22 O4'        -5.7140    2.0750    0.1990 oh        1 D1F     -0.592800
     23 C5'        -3.7980    0.9950    1.1200 c3        1 D1F      0.110100
     24 O5'        -2.7570    0.0530    0.8540 os        1 D1F     -0.432600
     25 C6'        -4.5360    0.4500    2.3480 c3        1 D1F      0.140400
     26 O6'        -3.7150    0.4910    3.4920 oh        1 D1F     -0.591800
     27 HN3        -0.3930   -3.8380   -0.6520 hn        1 D1F      0.354500
     28 H6          0.6030    0.8530    0.2320 h4        1 D1F      0.173000
     29 H9          5.2010    0.4450    2.1020 hc        1 D1F      0.065200
     30 H9A         5.8260   -0.9990    1.1990 hc        1 D1F      0.065200
     31 H1'        -1.4520    1.4320   -0.0490 h2        1 D1F      0.071700
     32 H10         5.8520    0.3520   -0.9340 hc        1 D1F      0.048200
     33 H10A        5.2300    1.7900   -0.0350 hc        1 D1F      0.048200
     34 H11         7.2460    1.7160    1.4770 hc        1 D1F      0.041200
     35 H11A        7.8680    0.2800    0.5760 hc        1 D1F      0.041200
     36 H12         7.9100    1.6290   -1.5480 hc        1 D1F      0.039700
     37 H12A        7.2880    3.0660   -0.6480 hc        1 D1F      0.039700
     38 H13         9.3200    3.0160    0.8390 hc        1 D1F      0.033367
     39 H13A        9.9430    1.5760   -0.0630 hc        1 D1F      0.033367
     40 H13B        9.7670    3.1680   -0.9100 hc        1 D1F      0.033367
     41 H2'        -3.1920   -0.4700   -1.8490 h1        1 D1F      0.106700
     42 HO2'       -2.4260    1.0650   -3.3720 ho        1 D1F      0.429000
     43 H3'        -3.4960    2.5630   -1.1470 h1        1 D1F      0.062700
     44 HO3'       -5.3040    2.2710   -2.4260 ho        1 D1F      0.412000
     45 H4'        -5.2100    0.0940   -0.2930 h1        1 D1F      0.075700
     46 HO4'       -6.4700    1.8840   -0.3690 ho        1 D1F      0.411000
     47 H5'        -3.3500    2.0010    1.3500 h1        1 D1F      0.068700
     48 H6'        -5.4050    1.1250    2.5750 h1        1 D1F      0.067200
     49 H6'A       -4.8900   -0.5950    2.1490 h1        1 D1F      0.067200
     50 HO6'       -2.9710   -0.1020    3.3280 ho        1 D1F      0.412000
@<TRIPOS>BOND
     1    1    2 1   
     2    1    8 1   
     3    1   12 1   
     4    2    3 2   
     5    2    4 1   
     6    4    5 1   
     7    4   27 1   
     8    5    6 2   
     9    5    7 1   
    10    7    8 2   
    11    7    9 1   
    12    8   28 1   
    13    9   10 3   
    14   10   11 1   
    15   11   13 1   
    16   11   29 1   
    17   11   30 1   
    18   12   17 1   
    19   12   24 1   
    20   12   31 1   
    21   13   14 1   
    22   13   32 1   
    23   13   33 1   
    24   14   15 1   
    25   14   34 1   
    26   14   35 1   
    27   15   16 1   
    28   15   36 1   
    29   15   37 1   
    30   16   38 1   
    31   16   39 1   
    32   16   40 1   
    33   17   18 1   
    34   17   19 1   
    35   17   41 1   
    36   18   42 1   
    37   19   20 1   
    38   19   21 1   
    39   19   43 1   
    40   20   44 1   
    41   21   22 1   
    42   21   23 1   
    43   21   45 1   
    44   22   46 1   
    45   23   24 1   
    46   23   25 1   
    47   23   47 1   
    48   25   26 1   
    49   25   48 1   
    50   25   49 1   
    51   26   50 1   
@<TRIPOS>SUBSTRUCTURE
     1 D1F         1 TEMP              0 ****  ****    0 ROOT
