@<TRIPOS>MOLECULE
D1F
   50    51     1     0     0
SMALL
bcc


@<TRIPOS>ATOM
      1 N1          0.1070    0.3040   -0.0850 n         1 D1F     -0.358000
      2 C2          1.5300    0.3580   -0.1650 c         1 D1F      0.819500
      3 O2          2.1210    0.5390   -1.2490 o         1 D1F     -0.630500
      4 N3          2.2610    0.2250    1.0230 ns        1 D1F     -0.588500
      5 C4          1.6760    0.0250    2.2870 c         1 D1F      0.724700
      6 O4          2.4240   -0.0850    3.2700 o         1 D1F     -0.590500
      7 C5          0.1980   -0.0350    2.3080 cc        1 D1F     -0.093900
      8 C6         -0.5060    0.0890    1.1390 cd        1 D1F      0.065600
      9 C7         -0.4480   -0.2170    3.5350 cg        1 D1F     -0.159300
     10 C8         -0.9880   -0.3730    4.5930 c1        1 D1F     -0.084100
     11 C9         -1.6420   -0.5650    5.8520 c3        1 D1F     -0.002300
     12 C1'        -0.6920    0.2810   -1.2990 c3        1 D1F      0.328500
     13 C10        -0.7800   -0.1100    7.0190 c3        1 D1F     -0.077400
     14 C11        -1.4970   -0.3360    8.3330 c3        1 D1F     -0.080400
     15 C12        -0.6480    0.1160    9.5030 c3        1 D1F     -0.080400
     16 C13        -1.3540   -0.1070   10.8150 c3        1 D1F     -0.093100
     17 C2'        -0.4900    1.5250   -2.2110 c3        1 D1F      0.113100
     18 O2'        -1.0100    2.6290   -1.4940 oh        1 D1F     -0.596800
     19 C3'        -1.2880    1.3280   -3.5110 c3        1 D1F      0.075100
     20 O3'        -0.9890    2.4430   -4.3330 oh        1 D1F     -0.598800
     21 C4'        -0.8890    0.0060   -4.1810 c3        1 D1F      0.074100
     22 O4'        -1.6300   -0.1820   -5.3700 oh        1 D1F     -0.585800
     23 C5'        -1.0890   -1.1420   -3.1850 c3        1 D1F      0.079100
     24 O5'        -0.3240   -0.9200   -2.0020 os        1 D1F     -0.425600
     25 C6'        -0.5730   -2.4660   -3.7620 c3        1 D1F      0.137400
     26 O6'        -1.0100   -3.5560   -2.9830 oh        1 D1F     -0.592800
     27 HN3         3.2560    0.2770    0.9470 hn        1 D1F      0.355500
     28 H6         -1.6120    0.0430    1.1290 h4        1 D1F      0.172000
     29 H9         -1.8950   -1.6560    5.9770 hc        1 D1F      0.059700
     30 H9A        -2.6140    0.0050    5.8580 hc        1 D1F      0.059700
     31 H1'        -1.7850    0.2210   -1.0100 h2        1 D1F      0.069700
     32 H10        -0.5330    0.9780    6.9030 hc        1 D1F      0.053700
     33 H10A        0.1900   -0.6730    7.0130 hc        1 D1F      0.053700
     34 H11        -2.4680    0.2250    8.3350 hc        1 D1F      0.039200
     35 H11A       -1.7430   -1.4250    8.4470 hc        1 D1F      0.039200
     36 H12        -0.4020    1.2040    9.3870 hc        1 D1F      0.041700
     37 H12A        0.3240   -0.4450    9.4970 hc        1 D1F      0.041700
     38 H13        -2.3140    0.4640   10.8490 hc        1 D1F      0.033033
     39 H13A       -1.5860   -1.1900   10.9600 hc        1 D1F      0.033033
     40 H13B       -0.7120    0.2330   11.6630 hc        1 D1F      0.033033
     41 H2'         0.5990    1.6780   -2.4520 h1        1 D1F      0.106700
     42 HO2'       -0.8780    3.4040   -2.0590 ho        1 D1F      0.432000
     43 H3'        -2.3930    1.3310   -3.2900 h1        1 D1F      0.047700
     44 HO3'       -1.2160    2.1940   -5.2400 ho        1 D1F      0.426000
     45 H4'         0.1850    0.0520   -4.5210 h1        1 D1F      0.115700
     46 HO4'       -2.5520   -0.3290   -5.1240 ho        1 D1F      0.405000
     47 H5'        -2.1780   -1.2380   -2.9140 h1        1 D1F      0.052700
     48 H6'         0.5470   -2.4420   -3.8280 h1        1 D1F      0.070200
     49 H6'A       -1.0220   -2.6220   -4.7790 h1        1 D1F      0.070200
     50 HO6'       -0.5790   -3.4780   -2.1210 ho        1 D1F      0.413000
@<TRIPOS>BOND
     1    1    2 1   
     2    1    8 1   
     3    1   12 1   
     4    2    3 2   
     5    2    4 1   
     6    4    5 1   
     7    4   27 1   
     8    5    6 2   
     9    5    7 1   
    10    7    8 2   
    11    7    9 1   
    12    8   28 1   
    13    9   10 3   
    14   10   11 1   
    15   11   13 1   
    16   11   29 1   
    17   11   30 1   
    18   12   17 1   
    19   12   24 1   
    20   12   31 1   
    21   13   14 1   
    22   13   32 1   
    23   13   33 1   
    24   14   15 1   
    25   14   34 1   
    26   14   35 1   
    27   15   16 1   
    28   15   36 1   
    29   15   37 1   
    30   16   38 1   
    31   16   39 1   
    32   16   40 1   
    33   17   18 1   
    34   17   19 1   
    35   17   41 1   
    36   18   42 1   
    37   19   20 1   
    38   19   21 1   
    39   19   43 1   
    40   20   44 1   
    41   21   22 1   
    42   21   23 1   
    43   21   45 1   
    44   22   46 1   
    45   23   24 1   
    46   23   25 1   
    47   23   47 1   
    48   25   26 1   
    49   25   48 1   
    50   25   49 1   
    51   26   50 1   
@<TRIPOS>SUBSTRUCTURE
     1 D1F         1 TEMP              0 ****  ****    0 ROOT
