@<TRIPOS>MOLECULE
D1F
   50    50     1     0     0
SMALL
bcc


@<TRIPOS>ATOM
      1 N1          0.8180    0.4040   -2.2010 n         1 D1F     -0.285000
      2 C2          2.2950    0.4350   -2.2140 c2        1 D1F      0.419000
      3 O2          2.8750    0.7660   -3.2070 o         1 D1F     -0.398000
      4 N3          3.0540    0.1680   -0.9700 n         1 D1F     -0.366000
      5 C4          2.3690    0.0340    0.2590 c2        1 D1F      0.360000
      6 O4          2.9970   -0.1580    1.2850 o         1 D1F     -0.311000
      7 C5          0.8940   -0.0000    0.2800 c2        1 D1F     -0.110000
      8 C6          0.1300    0.1390   -0.9960 c2        1 D1F      0.050000
      9 C7          0.1770   -0.1600    1.5590 c1        1 D1F     -0.130000
     10 C8         -0.4030   -0.2870    2.5950 c1        1 D1F     -0.107000
     11 C9         -1.1590   -0.4510    3.9450 c2        1 D1F     -0.057000
     12 C1'         0.0960    0.8040   -3.3510 c3        1 D1F      0.142000
     13 C10        -1.0270    0.8580    4.7770 c3        1 D1F     -0.155000
     14 C11        -1.8530    0.7370    6.0310 c3        1 D1F     -0.160000
     15 C12        -1.6300    1.9560    6.9100 c3        1 D1F     -0.158000
     16 C13        -2.5230    1.8750    8.1030 c3        1 D1F     -0.211000
     17 C2'         1.0350    0.8200   -4.5310 c3        1 D1F     -0.034000
     18 O2'         0.3660    1.4360   -5.6480 oh        1 D1F     -0.320000
     19 C3'         1.4690   -0.5510   -4.9260 c3        1 D1F      0.008000
     20 O3'         2.3400   -1.0940   -3.8790 oh        1 D1F     -0.329000
     21 C4'         0.3150   -1.4720   -5.1210 c3        1 D1F      0.020000
     22 O4'        -0.4060   -1.0690   -6.2890 oh        1 D1F     -0.312000
     23 C5'        -0.6260   -1.4740   -3.9370 c3        1 D1F     -0.007000
     24 O5'        -1.0450   -0.1190   -3.5470 os        1 D1F     -0.271000
     25 C6'         0.0500   -2.1160   -2.7900 c3        1 D1F     -0.050000
     26 O6'        -0.9100   -2.8100   -2.0030 oh        1 D1F     -0.325000
     27 HN3         3.9540    0.1880   -0.9810 hn        1 D1F      0.269000
     28 H6         -0.8660    0.1170   -0.9850 h4        1 D1F      0.190000
     29 H9         -0.7660   -1.2090    4.4550 ha        1 D1F      0.105000
     30 H9A        -2.1100   -0.6330    3.7690 ha        1 D1F      0.105000
     31 H1'        -0.2520    1.7170   -3.2080 h2        1 D1F      0.121000
     32 H10        -0.0890    0.9990    5.0150 hc        1 D1F      0.087500
     33 H10A       -1.3410    1.6010    4.2570 hc        1 D1F      0.087500
     34 H11        -2.8120    0.6770    5.7900 hc        1 D1F      0.081000
     35 H11A       -1.5850   -0.0800    6.5260 hc        1 D1F      0.081000
     36 H12        -0.6780    1.9830    7.2070 hc        1 D1F      0.079000
     37 H12A       -1.8400    2.7790    6.3940 hc        1 D1F      0.079000
     38 H13        -3.4790    1.8990    7.8060 hc        1 D1F      0.073000
     39 H13A       -2.3520    1.0410    8.5830 hc        1 D1F      0.073000
     40 H13B       -2.3460    2.6320    8.6940 hc        1 D1F      0.073000
     41 H2'         1.8390    1.3590   -4.2980 h1        1 D1F      0.136000
     42 HO2'        0.6960    2.2390   -5.7810 ho        1 D1F      0.212000
     43 H3'         1.9750   -0.4950   -5.7630 h1        1 D1F      0.114000
     44 HO3'        3.0050   -1.5810   -4.2600 ho        1 D1F      0.230000
     45 H4'         0.6510   -2.3730   -5.2530 h1        1 D1F      0.153000
     46 HO4'       -0.5120   -1.7860   -6.8430 ho        1 D1F      0.219000
     47 H5'        -1.4310   -2.0020   -4.1700 h1        1 D1F      0.154000
     48 H6'         0.7200   -2.7490   -3.1190 h1        1 D1F      0.084500
     49 H6'A        0.4910   -1.4270   -2.2390 h1        1 D1F      0.084500
     50 HO6'       -0.5690   -3.5650   -1.7290 ho        1 D1F      0.208000
@<TRIPOS>BOND
     1    1    2 1   
     2    1    8 1   
     3    1   12 1   
     4    2    3 1   
     5    2    4 1   
     6    4    5 1   
     7    4   27 1   
     8    5    6 1   
     9    5    7 1   
    10    7    8 1   
    11    7    9 1   
    12    8   28 1   
    13    9   10 1   
    14   11   13 1   
    15   11   29 1   
    16   11   30 1   
    17   12   17 1   
    18   12   24 1   
    19   12   31 1   
    20   13   14 1   
    21   13   32 1   
    22   13   33 1   
    23   14   15 1   
    24   14   34 1   
    25   14   35 1   
    26   15   16 1   
    27   15   36 1   
    28   15   37 1   
    29   16   38 1   
    30   16   39 1   
    31   16   40 1   
    32   17   18 1   
    33   17   19 1   
    34   17   41 1   
    35   18   42 1   
    36   19   20 1   
    37   19   21 1   
    38   19   43 1   
    39   20   44 1   
    40   21   22 1   
    41   21   23 1   
    42   21   45 1   
    43   22   46 1   
    44   23   24 1   
    45   23   25 1   
    46   23   47 1   
    47   25   26 1   
    48   25   48 1   
    49   25   49 1   
    50   26   50 1   
@<TRIPOS>SUBSTRUCTURE
     1 D1F         1 TEMP              0 ****  ****    0 ROOT
