@<TRIPOS>MOLECULE
D1F
   50    51     1     0     0
SMALL
bcc


@<TRIPOS>ATOM
      1 N1          0.4430    0.1080    0.2230 n         1 D1F     -0.357000
      2 C2          1.7610   -0.3920    0.0120 c         1 D1F      0.821500
      3 O2          2.2930   -0.3880   -1.1170 o         1 D1F     -0.638500
      4 N3          2.4700   -0.8710    1.1210 n         1 D1F     -0.587500
      5 C4          1.9520   -0.9040    2.4300 c         1 D1F      0.723700
      6 O4          2.6700   -1.3560    3.3330 o         1 D1F     -0.589500
      7 C5          0.5750   -0.3860    2.5880 cc        1 D1F     -0.091900
      8 C6         -0.1110    0.0700    1.4940 cd        1 D1F      0.065600
      9 C7          0.0060   -0.3760    3.8650 cg        1 D1F     -0.162300
     10 C8         -0.4680   -0.3740    4.9660 c1        1 D1F     -0.081100
     11 C9         -1.0260   -0.3950    6.2840 c3        1 D1F     -0.004300
     12 C1'        -0.3990    0.4560   -0.9110 c3        1 D1F      0.333500
     13 C10        -1.2130    0.9910    6.8780 c3        1 D1F     -0.075400
     14 C11        -2.3290    1.7560    6.1990 c3        1 D1F     -0.080400
     15 C12        -2.4870    3.1390    6.7930 c3        1 D1F     -0.080400
     16 C13        -3.6030    3.9020    6.1270 c3        1 D1F     -0.092100
     17 C2'         0.2060    1.5520   -1.8320 c3        1 D1F      0.077100
     18 O2'         0.2180    2.7450   -1.0670 oh        1 D1F     -0.591800
     19 C3'        -0.6790    1.7370   -3.0740 c3        1 D1F      0.060100
     20 O3'        -0.0810    2.6530   -3.9720 oh        1 D1F     -0.595800
     21 C4'        -0.9440    0.3920   -3.7630 c3        1 D1F      0.089100
     22 O4'        -1.9060    0.5350   -4.7930 oh        1 D1F     -0.589800
     23 C5'        -1.5150   -0.6020   -2.7430 c3        1 D1F      0.110100
     24 O5'        -0.6030   -0.7580   -1.6550 os        1 D1F     -0.432600
     25 C6'        -1.6620   -1.9990   -3.3580 c3        1 D1F      0.141400
     26 O6'        -2.3140   -2.8760   -2.4690 oh        1 D1F     -0.591800
     27 HN3         3.3950   -1.2080    0.9530 hn        1 D1F      0.354500
     28 H6         -1.1460    0.4550    1.5860 h4        1 D1F      0.173000
     29 H9         -0.3410   -0.9910    6.9530 hc        1 D1F      0.064700
     30 H9A        -2.0170   -0.9300    6.2590 hc        1 D1F      0.064700
     31 H1'        -1.3950    0.8270   -0.5210 h2        1 D1F      0.073700
     32 H10        -1.4460    0.8810    7.9700 hc        1 D1F      0.048200
     33 H10A       -0.2550    1.5690    6.7960 hc        1 D1F      0.048200
     34 H11        -2.1120    1.8390    5.1020 hc        1 D1F      0.041200
     35 H11A       -3.2920    1.1900    6.3050 hc        1 D1F      0.041200
     36 H12        -1.5240    3.7050    6.6820 hc        1 D1F      0.039700
     37 H12A       -2.6930    3.0530    7.8930 hc        1 D1F      0.039700
     38 H13        -3.4020    4.0200    5.0350 hc        1 D1F      0.033033
     39 H13A       -4.5750    3.3650    6.2480 hc        1 D1F      0.033033
     40 H13B       -3.7020    4.9180    6.5800 hc        1 D1F      0.033033
     41 H2'         1.2530    1.2770   -2.1440 h1        1 D1F      0.093700
     42 HO2'        0.4770    3.4550   -1.6710 ho        1 D1F      0.424000
     43 H3'        -1.6530    2.2310   -2.7920 h1        1 D1F      0.103700
     44 HO3'        0.7670    2.2820   -4.2500 ho        1 D1F      0.409000
     45 H4'         0.0140   -0.0110   -4.1970 h1        1 D1F      0.059700
     46 HO4'       -1.6540    1.3190   -5.3010 ho        1 D1F      0.422000
     47 H5'        -2.5080   -0.2400   -2.3600 h1        1 D1F      0.069700
     48 H6'        -0.6540   -2.3980   -3.6450 h1        1 D1F      0.069700
     49 H6'A       -2.3290   -1.9280   -4.2590 h1        1 D1F      0.069700
     50 HO6'       -1.7400   -2.9770   -1.6980 ho        1 D1F      0.410000
@<TRIPOS>BOND
     1    1    2 1   
     2    1    8 1   
     3    1   12 1   
     4    2    3 2   
     5    2    4 1   
     6    4    5 1   
     7    4   27 1   
     8    5    6 2   
     9    5    7 1   
    10    7    8 2   
    11    7    9 1   
    12    8   28 1   
    13    9   10 3   
    14   10   11 1   
    15   11   13 1   
    16   11   29 1   
    17   11   30 1   
    18   12   17 1   
    19   12   24 1   
    20   12   31 1   
    21   13   14 1   
    22   13   32 1   
    23   13   33 1   
    24   14   15 1   
    25   14   34 1   
    26   14   35 1   
    27   15   16 1   
    28   15   36 1   
    29   15   37 1   
    30   16   38 1   
    31   16   39 1   
    32   16   40 1   
    33   17   18 1   
    34   17   19 1   
    35   17   41 1   
    36   18   42 1   
    37   19   20 1   
    38   19   21 1   
    39   19   43 1   
    40   20   44 1   
    41   21   22 1   
    42   21   23 1   
    43   21   45 1   
    44   22   46 1   
    45   23   24 1   
    46   23   25 1   
    47   23   47 1   
    48   25   26 1   
    49   25   48 1   
    50   25   49 1   
    51   26   50 1   
@<TRIPOS>SUBSTRUCTURE
     1 D1F         1 TEMP              0 ****  ****    0 ROOT
