@<TRIPOS>MOLECULE
D1G
   29    30     1     0     0
SMALL
bcc


@<TRIPOS>ATOM
      1 C_1         1.8770   -0.1300    0.0120 ca        1 D1G     -0.236800
      2 C_2         2.0800    1.1630   -0.4980 ca        1 D1G     -0.073000
      3 C_3         3.3690    1.6940   -0.5010 ca        1 D1G     -0.246300
      4 C_4         4.4220    0.9120    0.0080 ca        1 D1G      0.396200
      5 N_1         4.2510   -0.3300    0.5020 nb        1 D1G     -0.663000
      6 C_5         3.0050   -0.8340    0.5010 ca        1 D1G      0.410200
      7 C_6         0.5770   -0.7400    0.0460 cc        1 D1G      0.300200
      8 C_7         0.1200   -1.9790    0.4710 cd        1 D1G     -0.239300
      9 C_8        -1.3040   -2.0030    0.2430 cd        1 D1G     -0.239300
     10 C_9        -1.6400   -0.7820   -0.3100 cc        1 D1G      0.257000
     11 O_1        -0.5010    0.0210   -0.4400 os        1 D1G     -0.366800
     12 C10        -2.9100   -0.1920   -0.8020 c3        1 D1G      0.137500
     13 N_2        -3.7120    0.4110    0.2560 n3        1 D1G     -0.734600
     14 C11        -3.0800    1.5560    0.8730 c3        1 D1G      0.154600
     15 C12        -5.0660    0.6780   -0.1730 c3        1 D1G      0.154600
     16 H_2         1.2280    1.7400   -0.8870 ha        1 D1G      0.152000
     17 H_3         3.5630    2.7010   -0.8920 ha        1 D1G      0.146000
     18 H_4         5.4580    1.2960    0.0240 h4        1 D1G      0.024100
     19 H_5         2.8940   -1.8530    0.9120 h4        1 D1G      0.025100
     20 H_7         0.7090   -2.7870    0.8960 ha        1 D1G      0.162000
     21 H_8        -1.9720   -2.8290    0.4720 ha        1 D1G      0.167000
     22 H101       -3.5130   -1.0280   -1.2620 h1        1 D1G      0.052700
     23 H102       -2.6630    0.5530   -1.6180 h1        1 D1G      0.052700
     24 H111       -2.0340    1.2820    1.1700 h1        1 D1G      0.035033
     25 H112       -3.0350    2.4540    0.1960 h1        1 D1G      0.035033
     26 H113       -3.6610    1.8300    1.7920 h1        1 D1G      0.035033
     27 H121       -5.1290    1.4230   -1.0140 h1        1 D1G      0.035033
     28 H122       -5.5410   -0.2810   -0.5090 h1        1 D1G      0.035033
     29 H123       -5.6450    1.0790    0.7000 h1        1 D1G      0.035033
@<TRIPOS>BOND
     1    1    2 ar  
     2    1    6 ar  
     3    1    7 1   
     4    2    3 ar  
     5    2   16 1   
     6    3    4 ar  
     7    3   17 1   
     8    4    5 ar  
     9    4   18 1   
    10    5    6 ar  
    11    6   19 1   
    12    7    8 2   
    13    7   11 1   
    14    8    9 1   
    15    8   20 1   
    16    9   10 2   
    17    9   21 1   
    18   10   11 1   
    19   10   12 1   
    20   12   13 1   
    21   12   22 1   
    22   12   23 1   
    23   13   14 1   
    24   13   15 1   
    25   14   24 1   
    26   14   25 1   
    27   14   26 1   
    28   15   27 1   
    29   15   28 1   
    30   15   29 1   
@<TRIPOS>SUBSTRUCTURE
     1 D1G         1 TEMP              0 ****  ****    0 ROOT
