@<TRIPOS>MOLECULE
D1G
   30    31     1     0     0
SMALL
bcc


@<TRIPOS>ATOM
      1 C_1        -0.0620    0.0820   -0.1080 ca        1 D1G     -0.302800
      2 C_2         1.1590   -0.6160   -0.0860 ca        1 D1G     -0.055000
      3 C_3         1.9710   -0.5180    1.0410 ca        1 D1G     -0.245300
      4 C_4         1.5370    0.2790    2.1190 ca        1 D1G      0.436200
      5 N_1         0.3710    0.9550    2.1170 nb        1 D1G     -0.649000
      6 C_5        -0.4080    0.8560    1.0270 ca        1 D1G      0.443200
      7 C_6        -0.9600    0.0190   -1.2280 cc        1 D1G      0.405200
      8 C_7        -2.2860    0.4090   -1.4000 cd        1 D1G     -0.272300
      9 C_8        -2.6460    0.0920   -2.7530 cd        1 D1G     -0.132300
     10 C_9        -1.5280   -0.4750   -3.3440 cc        1 D1G      0.085000
     11 O_1        -0.4680   -0.5310   -2.4180 os        1 D1G     -0.373800
     12 C10        -1.2720   -1.0770   -4.6540 c3        1 D1G      0.115500
     13 N_2        -0.4380   -0.1710   -5.5380 n4        1 D1G     -0.688400
     14 C11         0.9980   -0.2330   -5.1640 c3        1 D1G      0.080100
     15 C12        -0.6270   -0.5170   -6.9680 c3        1 D1G      0.080100
     16 H_2         1.4580   -1.2340   -0.9450 ha        1 D1G      0.143000
     17 H_3         2.9290   -1.0530    1.0970 ha        1 D1G      0.161000
     18 H_4         2.1510    0.3820    3.0340 h4        1 D1G      0.045100
     19 H_5        -1.3580    1.4220    1.0590 h4        1 D1G      0.034100
     20 H_7        -2.9400    0.8590   -0.6540 ha        1 D1G      0.191000
     21 H_8        -3.6230    0.2600   -3.2050 ha        1 D1G      0.179000
     22 H101       -0.7130   -2.0530   -4.5500 hx        1 D1G      0.116200
     23 H102       -2.2550   -1.2620   -5.1790 hx        1 D1G      0.116200
     24 H111        1.1000   -0.0350   -4.0610 hx        1 D1G      0.105533
     25 H112        1.5670    0.5410   -5.7440 hx        1 D1G      0.105533
     26 H113        1.4050   -1.2520   -5.3990 hx        1 D1G      0.105533
     27 H121        0.0300    0.1390   -7.6010 hx        1 D1G      0.105533
     28 H122       -0.3510   -1.5920   -7.1340 hx        1 D1G      0.105533
     29 H123       -1.7010   -0.3560   -7.2550 hx        1 D1G      0.105533
     30 H_21       -0.7630    0.7950   -5.3870 hn        1 D1G      0.453800
@<TRIPOS>BOND
     1    1    2 ar  
     2    1    6 ar  
     3    1    7 1   
     4    2    3 ar  
     5    2   16 1   
     6    3    4 ar  
     7    3   17 1   
     8    4    5 ar  
     9    4   18 1   
    10    5    6 ar  
    11    6   19 1   
    12    7    8 2   
    13    7   11 1   
    14    8    9 1   
    15    8   20 1   
    16    9   10 2   
    17    9   21 1   
    18   10   11 1   
    19   10   12 1   
    20   12   13 1   
    21   12   22 1   
    22   12   23 1   
    23   13   14 1   
    24   13   15 1   
    25   13   30 1   
    26   14   24 1   
    27   14   25 1   
    28   14   26 1   
    29   15   27 1   
    30   15   28 1   
    31   15   29 1   
@<TRIPOS>SUBSTRUCTURE
     1 D1G         1 TEMP              0 ****  ****    0 ROOT
