@<TRIPOS>MOLECULE
D1G
   30    31     1     0     0
SMALL
bcc


@<TRIPOS>ATOM
      1 C_1        -0.0770    0.0170   -0.1010 ca        1 D1G     -0.302800
      2 C_2         1.1720   -0.6300   -0.0960 ca        1 D1G     -0.055000
      3 C_3         1.9780   -0.5320    1.0340 ca        1 D1G     -0.245300
      4 C_4         1.5100    0.2140    2.1350 ca        1 D1G      0.436200
      5 N_1         0.3170    0.8420    2.1500 nb        1 D1G     -0.649000
      6 C_5        -0.4560    0.7420    1.0560 ca        1 D1G      0.443200
      7 C_6        -0.9700   -0.0490   -1.2240 cc        1 D1G      0.405200
      8 C_7        -2.3110    0.2920   -1.3880 cd        1 D1G     -0.272300
      9 C_8        -2.6560   -0.0010   -2.7510 cd        1 D1G     -0.132300
     10 C_9        -1.5150   -0.5060   -3.3540 cc        1 D1G      0.085000
     11 O_1        -0.4550   -0.5450   -2.4290 os        1 D1G     -0.373800
     12 C10        -1.2340   -1.0590   -4.6810 c3        1 D1G      0.115500
     13 N_2        -0.4350   -0.0960   -5.5360 nx        1 D1G     -0.688400
     14 C11         1.0030   -0.1130   -5.1610 c3        1 D1G      0.080100
     15 C12        -0.6080   -0.4070   -6.9760 c3        1 D1G      0.080100
     16 H_2         1.4970   -1.2090   -0.9730 ha        1 D1G      0.143000
     17 H_3         2.9580   -1.0270    1.0770 ha        1 D1G      0.161000
     18 H_4         2.1180    0.3160    3.0540 h4        1 D1G      0.045100
     19 H_5        -1.4280    1.2680    1.1020 h4        1 D1G      0.034100
     20 H_7        -2.9820    0.6940   -0.6310 ha        1 D1G      0.191000
     21 H_8        -3.6380    0.1410   -3.2000 ha        1 D1G      0.179000
     22 H101       -0.6370   -2.0150   -4.6030 hx        1 D1G      0.116200
     23 H102       -2.2080   -1.2680   -5.2130 hx        1 D1G      0.116200
     24 H111        1.0950    0.0560   -4.0520 hx        1 D1G      0.105533
     25 H112        1.5420    0.6990   -5.7170 hx        1 D1G      0.105533
     26 H113        1.4480   -1.1090   -5.4240 hx        1 D1G      0.105533
     27 H121        0.0240    0.2920   -7.5880 hx        1 D1G      0.105533
     28 H122       -0.2900   -1.4660   -7.1730 hx        1 D1G      0.105533
     29 H123       -1.6870   -0.2810   -7.2610 hx        1 D1G      0.105533
     30 H_21       -0.7970    0.8520   -5.3580 hn        1 D1G      0.453800
@<TRIPOS>BOND
     1    1    2 ar  
     2    1    6 ar  
     3    1    7 1   
     4    2    3 ar  
     5    2   16 1   
     6    3    4 ar  
     7    3   17 1   
     8    4    5 ar  
     9    4   18 1   
    10    5    6 ar  
    11    6   19 1   
    12    7    8 2   
    13    7   11 1   
    14    8    9 1   
    15    8   20 1   
    16    9   10 2   
    17    9   21 1   
    18   10   11 1   
    19   10   12 1   
    20   12   13 1   
    21   12   22 1   
    22   12   23 1   
    23   13   14 1   
    24   13   15 1   
    25   13   30 1   
    26   14   24 1   
    27   14   25 1   
    28   14   26 1   
    29   15   27 1   
    30   15   28 1   
    31   15   29 1   
@<TRIPOS>SUBSTRUCTURE
     1 D1G         1 TEMP              0 ****  ****    0 ROOT
