@<TRIPOS>MOLECULE
D1G
   29    23     1     0     0
SMALL
bcc


@<TRIPOS>ATOM
      1 C_1         0.8920   -0.6040    2.5020 c1        1 D1G     -0.066000
      2 C_2         2.2400   -0.4930    2.5120 c1        1 D1G     -0.068500
      3 C_3         2.9110   -0.4600    3.6960 c1        1 D1G     -0.068500
      4 C_4         2.2180   -0.5390    4.8850 c1        1 D1G      0.314300
      5 N_1         0.8700   -0.6500    4.8760 n1        1 D1G     -0.463800
      6 C_5         0.1970   -0.6830    3.6900 c1        1 D1G      0.001500
      7 C_6         0.2110   -0.6050    1.3010 c1        1 D1G      0.010100
      8 C_7        -0.3130   -1.7130    0.6720 cg        1 D1G     -0.186000
      9 C_8        -0.9000   -1.2990   -0.5080 cg        1 D1G     -0.186000
     10 C_9        -0.7400    0.0630   -0.6080 c1        1 D1G      0.010100
     11 O_1        -0.0500    0.4940    0.5160 os        1 D1G     -0.137200
     12 C10        -1.3970    0.9720   -1.6700 c2        1 D1G      0.310100
     13 N_2        -0.9150    0.6070   -2.9780 nh        1 D1G     -0.273100
     14 C11        -2.0220    0.3720   -3.8530 c3        1 D1G     -0.022400
     15 C12        -0.0910    1.6860   -3.5050 c3        1 D1G     -0.022400
     16 H_2         2.7300   -0.4370    1.6740 ha        1 D1G      0.094500
     17 H_3         3.8720   -0.3800    3.7020 ha        1 D1G      0.094500
     18 H_4         2.7050   -0.5150    5.7400 ha        1 D1G      0.102500
     19 H_5        -0.7450   -0.7610    3.6830 ha        1 D1G      0.103500
     20 H_7        -0.2740   -2.6410    1.0050 DU        1 D1G      0.162000
     21 H_8        -1.3470   -1.8700   -1.1530 DU        1 D1G      0.162000
     22 H101       -2.3710    0.8610   -1.6370 h4        1 D1G     -0.038700
     23 H102       -1.1770    1.8720   -1.4950 h4        1 D1G     -0.038700
     24 H111       -2.6420    1.1350   -3.8110 h1        1 D1G      0.034700
     25 H112       -2.4860   -0.4370   -3.5790 h1        1 D1G      0.034700
     26 H113       -1.6890    0.2630   -4.7890 h1        1 D1G      0.034700
     27 H121       -0.0040    2.3780   -2.8360 h1        1 D1G      0.034700
     28 H122       -0.5040    2.0540   -4.2940 h1        1 D1G      0.034700
     29 H123        0.8200    1.3290   -3.7380 h1        1 D1G      0.034700
@<TRIPOS>BOND
     1    1    6 3   
     2    2    3 3   
     3    2   16 1   
     4    3   17 1   
     5    4    5 3   
     6    4   18 1   
     7    6   19 1   
     8    7    8 3   
     9    7   11 1   
    10    8    9 1   
    11    9   10 3   
    12   10   11 1   
    13   12   13 2   
    14   12   22 1   
    15   12   23 1   
    16   13   14 1   
    17   13   15 1   
    18   14   24 1   
    19   14   25 1   
    20   14   26 1   
    21   15   27 1   
    22   15   28 1   
    23   15   29 1   
@<TRIPOS>SUBSTRUCTURE
     1 D1G         1 TEMP              0 ****  ****    0 ROOT
