@<TRIPOS>MOLECULE
D1H
   46    49     1     0     0
SMALL
bcc


@<TRIPOS>ATOM
      1 O6          0.1680    0.8480   -0.2970 o         1 D1H     -0.627500
      2 C6          1.2950    0.3530   -0.1130 c         1 D1H      0.766100
      3 C5          1.9350    0.2220    1.1830 cc        1 D1H     -0.349200
      4 N7          1.4960    0.5640    2.4660 na        1 D1H     -0.148900
      5 CAA         0.2400    1.1470    2.8130 c3        1 D1H      0.009600
      6 C8          2.5290    0.2120    3.3330 cc        1 D1H      0.443400
      7 N9          3.6050   -0.3310    2.7010 nd        1 D1H     -0.685000
      8 C4          3.2470   -0.3320    1.3430 cd        1 D1H      0.485200
      9 N3          3.9680   -0.7720    0.2440 n         1 D1H     -0.418300
     10 CAC         5.2790   -1.3430    0.4090 c3        1 D1H      0.090300
     11 C2          3.3670   -0.6890   -1.0350 c         1 D1H      0.813500
     12 O2          3.9890   -1.1140   -2.0330 o         1 D1H     -0.632500
     13 N1          2.0730   -0.1230   -1.1920 n         1 D1H     -0.481400
     14 CAK         1.5460   -0.0390   -2.5420 c3        1 D1H      0.074000
     15 CAL         1.1970   -1.4240   -3.1470 c3        1 D1H      0.074000
     16 NBB         0.2830   -1.3410   -4.2720 n         1 D1H     -0.481400
     17 CAP        -1.0380   -1.8200   -4.1300 c         1 D1H      0.766100
     18 OAF        -1.4350   -2.3170   -3.0600 o         1 D1H     -0.627500
     19 CAV        -1.8480   -1.6900   -5.3280 cc        1 D1H     -0.349200
     20 NAX        -3.1800   -2.0340   -5.5810 na        1 D1H     -0.148900
     21 CAB        -4.1010   -2.6210   -4.6620 c3        1 D1H      0.009600
     22 CAJ        -3.4230   -1.6820   -6.9070 cc        1 D1H      0.443400
     23 NAN        -2.3430   -1.1350   -7.5290 nd        1 D1H     -0.685000
     24 CAT        -1.3400   -1.1330   -6.5460 cd        1 D1H      0.485200
     25 NAZ        -0.0290   -0.6890   -6.6290 n         1 D1H     -0.418300
     26 CAD         0.4750   -0.1160   -7.8490 c3        1 D1H      0.090300
     27 CAR         0.7860   -0.7720   -5.4730 c         1 D1H      0.813500
     28 OAH         1.9600   -0.3440   -5.5200 o         1 D1H     -0.632500
     29 HAA1        0.4080    2.1330    3.3240 h1        1 D1H      0.071033
     30 HAA2       -0.3170    0.4630    3.5080 h1        1 D1H      0.071033
     31 HAA3       -0.3690    1.3090    1.8810 h1        1 D1H      0.071033
     32 H8          2.4660    0.3660    4.4180 h5        1 D1H      0.070100
     33 HAC1        5.2080   -2.2810    1.0220 h1        1 D1H      0.063700
     34 HAC2        5.9400   -0.6080    0.9420 h1        1 D1H      0.063700
     35 HAC3        5.7170   -1.5840   -0.5970 h1        1 D1H      0.063700
     36 HAK1        2.3290    0.4390   -3.2020 h1        1 D1H      0.092200
     37 HAK2        0.6330    0.6210   -2.5160 h1        1 D1H      0.092200
     38 HAL1        0.7240   -2.0860   -2.3670 h1        1 D1H      0.092200
     39 HAL2        2.1590   -1.8990   -3.5010 h1        1 D1H      0.092200
     40 HAB1       -4.4590   -3.6080   -5.0620 h1        1 D1H      0.071033
     41 HAB2       -3.5910   -2.7830   -3.6710 h1        1 D1H      0.071033
     42 HAB3       -4.9830   -1.9400   -4.5200 h1        1 D1H      0.071033
     43 HAJ        -4.3960   -1.8360   -7.3890 h5        1 D1H      0.070100
     44 HAD1        1.5650    0.1280   -7.7320 h1        1 D1H      0.063700
     45 HAD2       -0.0960    0.8210   -8.0890 h1        1 D1H      0.063700
     46 HAD3        0.3410   -0.8500   -8.6880 h1        1 D1H      0.063700
@<TRIPOS>BOND
     1    1    2 2   
     2    2    3 1   
     3    2   13 1   
     4    3    4 1   
     5    3    8 2   
     6    4    5 1   
     7    4    6 1   
     8    5   29 1   
     9    5   30 1   
    10    5   31 1   
    11    6    7 2   
    12    6   32 1   
    13    7    8 1   
    14    8    9 1   
    15    9   10 1   
    16    9   11 1   
    17   10   33 1   
    18   10   34 1   
    19   10   35 1   
    20   11   12 2   
    21   11   13 1   
    22   13   14 1   
    23   14   15 1   
    24   14   36 1   
    25   14   37 1   
    26   15   16 1   
    27   15   38 1   
    28   15   39 1   
    29   16   17 1   
    30   16   27 1   
    31   17   18 2   
    32   17   19 1   
    33   19   20 1   
    34   19   24 2   
    35   20   21 1   
    36   20   22 1   
    37   21   40 1   
    38   21   41 1   
    39   21   42 1   
    40   22   23 2   
    41   22   43 1   
    42   23   24 1   
    43   24   25 1   
    44   25   26 1   
    45   25   27 1   
    46   26   44 1   
    47   26   45 1   
    48   26   46 1   
    49   27   28 2   
@<TRIPOS>SUBSTRUCTURE
     1 D1H         1 TEMP              0 ****  ****    0 ROOT
