@<TRIPOS>MOLECULE
D1H
   46    49     1     0     0
SMALL
bcc


@<TRIPOS>ATOM
      1 O6          1.8210    1.5870   -1.3210 o         1 D1H     -0.627500
      2 C6          2.4610    0.7040   -0.7220 c         1 D1H      0.766100
      3 C5          3.8670    0.7990   -0.3740 cc        1 D1H     -0.349200
      4 N7          4.7990    1.8230   -0.5770 na        1 D1H     -0.148900
      5 CAA         4.5610    3.0830   -1.2050 c3        1 D1H      0.009600
      6 C8          5.9990    1.3640   -0.0380 cc        1 D1H      0.443400
      7 N9          5.9090    0.1160    0.4980 nd        1 D1H     -0.685000
      8 C4          4.5700   -0.2550    0.2950 cd        1 D1H      0.485200
      9 N3          3.9210   -1.4290    0.6410 n         1 D1H     -0.418300
     10 CAC         4.6250   -2.4810    1.3270 c3        1 D1H      0.090300
     11 C2          2.5410   -1.5510    0.3460 c         1 D1H      0.813500
     12 O2          1.9320   -2.5890    0.6830 o         1 D1H     -0.632500
     13 N1          1.8520   -0.5100   -0.3330 n         1 D1H     -0.481400
     14 CAK         0.4490   -0.7320   -0.6320 c3        1 D1H      0.074000
     15 CAL        -0.4510   -0.7320    0.6300 c3        1 D1H      0.074000
     16 NBB        -1.8530   -0.5050    0.3310 n         1 D1H     -0.481400
     17 CAP        -2.4590    0.7100    0.7230 c         1 D1H      0.766100
     18 OAF        -1.8160    1.5890    1.3240 o         1 D1H     -0.627500
     19 CAV        -3.8650    0.8100    0.3750 cc        1 D1H     -0.349200
     20 NAX        -4.7940    1.8360    0.5810 na        1 D1H     -0.148900
     21 CAB        -4.5530    3.0940    1.2110 c3        1 D1H      0.009600
     22 CAJ        -5.9950    1.3810    0.0410 cc        1 D1H      0.443400
     23 NAN        -5.9090    0.1340   -0.4980 nd        1 D1H     -0.685000
     24 CAT        -4.5710   -0.2410   -0.2960 cd        1 D1H      0.485200
     25 NAZ        -3.9260   -1.4170   -0.6450 n         1 D1H     -0.418300
     26 CAD        -4.6330   -2.4650   -1.3330 c3        1 D1H      0.090300
     27 CAR        -2.5460   -1.5430   -0.3490 c         1 D1H      0.813500
     28 OAH        -1.9390   -2.5820   -0.6890 o         1 D1H     -0.632500
     29 HAA1        5.2310    3.1930   -2.1000 h1        1 D1H      0.071033
     30 HAA2        3.4860    3.1430   -1.5330 h1        1 D1H      0.071033
     31 HAA3        4.7770    3.9140   -0.4800 h1        1 D1H      0.071033
     32 H8          6.9190    1.9620   -0.0520 h5        1 D1H      0.070100
     33 HAC1        4.9720   -2.1120    2.3290 h1        1 D1H      0.063700
     34 HAC2        3.9460   -3.3640    1.4670 h1        1 D1H      0.063700
     35 HAC3        5.5190   -2.7870    0.7200 h1        1 D1H      0.063700
     36 HAK1        0.1190    0.0720   -1.3510 h1        1 D1H      0.092200
     37 HAK2        0.3440   -1.7390   -1.1310 h1        1 D1H      0.092200
     38 HAL1       -0.3490   -1.7410    1.1270 h1        1 D1H      0.092200
     39 HAL2       -0.1190    0.0690    1.3510 h1        1 D1H      0.092200
     40 HAB1       -5.2220    3.2040    2.1060 h1        1 D1H      0.071033
     41 HAB2       -3.4780    3.1500    1.5390 h1        1 D1H      0.071033
     42 HAB3       -4.7660    3.9270    0.4880 h1        1 D1H      0.071033
     43 HAJ        -6.9130    1.9810    0.0560 h5        1 D1H      0.070100
     44 HAD1       -3.9560   -3.3490   -1.4740 h1        1 D1H      0.063700
     45 HAD2       -5.5280   -2.7690   -0.7260 h1        1 D1H      0.063700
     46 HAD3       -4.9790   -2.0930   -2.3340 h1        1 D1H      0.063700
@<TRIPOS>BOND
     1    1    2 2   
     2    2    3 1   
     3    2   13 1   
     4    3    4 1   
     5    3    8 2   
     6    4    5 1   
     7    4    6 1   
     8    5   29 1   
     9    5   30 1   
    10    5   31 1   
    11    6    7 2   
    12    6   32 1   
    13    7    8 1   
    14    8    9 1   
    15    9   10 1   
    16    9   11 1   
    17   10   33 1   
    18   10   34 1   
    19   10   35 1   
    20   11   12 2   
    21   11   13 1   
    22   13   14 1   
    23   14   15 1   
    24   14   36 1   
    25   14   37 1   
    26   15   16 1   
    27   15   38 1   
    28   15   39 1   
    29   16   17 1   
    30   16   27 1   
    31   17   18 2   
    32   17   19 1   
    33   19   20 1   
    34   19   24 2   
    35   20   21 1   
    36   20   22 1   
    37   21   40 1   
    38   21   41 1   
    39   21   42 1   
    40   22   23 2   
    41   22   43 1   
    42   23   24 1   
    43   24   25 1   
    44   25   26 1   
    45   25   27 1   
    46   26   44 1   
    47   26   45 1   
    48   26   46 1   
    49   27   28 2   
@<TRIPOS>SUBSTRUCTURE
     1 D1H         1 TEMP              0 ****  ****    0 ROOT
