@<TRIPOS>MOLECULE
D1H
   46    38     1     0     0
SMALL
bcc


@<TRIPOS>ATOM
      1 O6         -1.0410    0.6160    2.6580 o         1 D1H     -0.347000
      2 C6          0.1830    0.6540    2.6730 c1        1 D1H      0.398000
      3 C5          0.8690    0.6800    3.8930 c1        1 D1H     -0.240000
      4 N7          0.4430    0.7010    5.1670 n1        1 D1H     -0.104000
      5 CAA        -0.6700    0.9090    5.9830 c2        1 D1H     -0.081000
      6 C8          1.5360    0.7240    5.9750 c1        1 D1H     -0.045000
      7 N9          2.6220    0.7170    5.1980 n2        1 D1H     -0.159000
      8 C4          2.2140    0.6900    3.9050 c1        1 D1H      0.077000
      9 N3          2.9130    0.6730    2.7140 n2        1 D1H     -0.234000
     10 CAC         4.3500    0.6350    2.7190 c3        1 D1H     -0.065000
     11 C2          2.2410    0.6470    1.5270 c1        1 D1H      0.409000
     12 O2          2.8590    0.6200    0.4850 o         1 D1H     -0.360000
     13 N1          0.8740    0.6380    1.5110 n2        1 D1H     -0.310000
     14 CAK         0.1630    0.7110    0.2460 c3        1 D1H     -0.043000
     15 CAL        -0.1540   -0.7040   -0.2470 c3        1 D1H     -0.041000
     16 NBB        -0.8670   -0.6270   -1.5050 n         1 D1H     -0.310000
     17 CAP        -0.1930   -0.7610   -2.6800 c2        1 D1H      0.403000
     18 OAF         1.0380   -0.8140   -2.6830 o         1 D1H     -0.349000
     19 CAV        -0.8930   -0.7790   -3.8860 c1        1 D1H     -0.239000
     20 NAX        -0.4780   -0.9000   -5.1830 n1        1 D1H     -0.103000
     21 CAB         0.6940   -0.9670   -6.0230 c2        1 D1H     -0.081000
     22 CAJ        -1.5670   -0.8590   -5.9770 c1        1 D1H     -0.045000
     23 NAN        -2.6650   -0.7130   -5.1810 n2        1 D1H     -0.159000
     24 CAT        -2.2440   -0.6640   -3.8880 c1        1 D1H      0.077000
     25 NAZ        -2.9240   -0.5300   -2.7000 n2        1 D1H     -0.233000
     26 CAD        -4.3240   -0.4770   -2.6990 c2        1 D1H     -0.081000
     27 CAR        -2.2340   -0.5110   -1.5080 c2        1 D1H      0.404000
     28 OAH        -2.8520   -0.5500   -0.4420 o         1 D1H     -0.359000
     29 HAA1       -0.8060    0.1320    6.5490 ha        1 D1H      0.108000
     30 HAA2       -0.5220    1.6900    6.5360 ha        1 D1H      0.108000
     31 HAA3       -1.4680    1.0500    5.4210 ha        1 D1H      0.108000
     32 H8          1.5280    0.7710    6.9780 DU        1 D1H      0.207000
     33 HAC1        4.6590   -0.1450    2.1980 h1        1 D1H      0.103000
     34 HAC2        4.7010    1.4600    2.3140 h1        1 D1H      0.103000
     35 HAC3        4.6720    0.5630    3.6340 h1        1 D1H      0.103000
     36 HAK1       -0.6770    1.2090    0.3700 h1        1 D1H      0.132000
     37 HAK2        0.7160    1.1670   -0.4110 h1        1 D1H      0.132000
     38 HAL1       -0.7150   -1.1660    0.4190 h1        1 D1H      0.130000
     39 HAL2        0.6570   -1.1890   -0.3700 h1        1 D1H      0.130000
     40 HAB1        0.7350   -0.1600   -6.5970 ha        1 D1H      0.108000
     41 HAB2        0.6460   -1.7750   -6.5930 ha        1 D1H      0.108000
     42 HAB3        1.5080   -1.0110   -5.4530 ha        1 D1H      0.108000
     43 HAJ        -1.5720   -0.9690   -6.9720 DU        1 D1H      0.207000
     44 HAD1       -4.6290    0.2620   -2.1040 ha        1 D1H      0.108000
     45 HAD2       -4.6410   -0.3180   -3.5990 ha        1 D1H      0.108000
     46 HAD3       -4.6840   -1.3310   -2.3720 ha        1 D1H      0.108000
@<TRIPOS>BOND
     1    1    2 1   
     2    2   13 1   
     3    3    8 1   
     4    4    6 1   
     5    5   29 1   
     6    5   30 1   
     7    5   31 1   
     8    6    7 1   
     9    7    8 1   
    10    9   10 1   
    11    9   11 1   
    12   10   33 1   
    13   10   34 1   
    14   10   35 1   
    15   11   12 1   
    16   13   14 1   
    17   14   15 1   
    18   14   36 1   
    19   14   37 1   
    20   15   16 1   
    21   15   38 1   
    22   15   39 1   
    23   16   17 1   
    24   16   27 1   
    25   17   18 1   
    26   17   19 1   
    27   20   22 1   
    28   21   40 1   
    29   21   41 1   
    30   21   42 1   
    31   22   23 1   
    32   23   24 1   
    33   24   25 1   
    34   25   27 1   
    35   26   44 1   
    36   26   45 1   
    37   26   46 1   
    38   27   28 1   
@<TRIPOS>SUBSTRUCTURE
     1 D1H         1 TEMP              0 ****  ****    0 ROOT
