@<TRIPOS>MOLECULE
D1H
   46    49     1     0     0
SMALL
bcc


@<TRIPOS>ATOM
      1 O6          0.1690    0.8460   -0.2950 o         1 D1H     -0.627500
      2 C6          1.2940    0.3460   -0.1100 c         1 D1H      0.766100
      3 C5          1.9310    0.2100    1.1880 cc        1 D1H     -0.349200
      4 N7          1.4900    0.5520    2.4700 na        1 D1H     -0.148900
      5 CAA         0.2360    1.1400    2.8150 c3        1 D1H      0.009600
      6 C8          2.5210    0.1950    3.3390 cc        1 D1H      0.443400
      7 N9          3.5950   -0.3510    2.7080 nd        1 D1H     -0.685000
      8 C4          3.2400   -0.3490    1.3500 cd        1 D1H      0.485200
      9 N3          3.9620   -0.7910    0.2520 n         1 D1H     -0.418300
     10 CAC         5.2710   -1.3670    0.4180 c3        1 D1H      0.090300
     11 C2          3.3640   -0.7030   -1.0290 c         1 D1H      0.813500
     12 O2          3.9860   -1.1290   -2.0260 o         1 D1H     -0.632500
     13 N1          2.0720   -0.1310   -1.1880 n         1 D1H     -0.481400
     14 CAK         1.5490   -0.0430   -2.5390 c3        1 D1H      0.074000
     15 CAL         1.1950   -1.4250   -3.1470 c3        1 D1H      0.074000
     16 NBB         0.2850   -1.3360   -4.2740 n         1 D1H     -0.481400
     17 CAP        -1.0390   -1.8100   -4.1360 c         1 D1H      0.766100
     18 OAF        -1.4410   -2.3070   -3.0670 o         1 D1H     -0.627500
     19 CAV        -1.8450   -1.6740   -5.3350 cc        1 D1H     -0.349200
     20 NAX        -3.1790   -2.0120   -5.5910 na        1 D1H     -0.148900
     21 CAB        -4.1040   -2.5960   -4.6760 c3        1 D1H      0.009600
     22 CAJ        -3.4170   -1.6570   -6.9180 cc        1 D1H      0.443400
     23 NAN        -2.3320   -1.1150   -7.5360 nd        1 D1H     -0.685000
     24 CAT        -1.3320   -1.1180   -6.5510 cd        1 D1H      0.485200
     25 NAZ        -0.0190   -0.6800   -6.6310 n         1 D1H     -0.418300
     26 CAD         0.4910   -0.1070   -7.8490 c3        1 D1H      0.090300
     27 CAR         0.7930   -0.7680   -5.4730 c         1 D1H      0.813500
     28 OAH         1.9680   -0.3450   -5.5160 o         1 D1H     -0.632500
     29 HAA1        0.4080    2.1250    3.3280 h1        1 D1H      0.071033
     30 HAA2       -0.3250    0.4580    3.5090 h1        1 D1H      0.071033
     31 HAA3       -0.3700    1.3060    1.8820 h1        1 D1H      0.071033
     32 H8          2.4560    0.3470    4.4240 h5        1 D1H      0.070100
     33 HAC1        5.1940   -2.3050    1.0300 h1        1 D1H      0.063700
     34 HAC2        5.9330   -0.6350    0.9530 h1        1 D1H      0.063700
     35 HAC3        5.7090   -1.6080   -0.5870 h1        1 D1H      0.063700
     36 HAK1        2.3350    0.4320   -3.1970 h1        1 D1H      0.092200
     37 HAK2        0.6380    0.6210   -2.5130 h1        1 D1H      0.092200
     38 HAL1        0.7170   -2.0870   -2.3690 h1        1 D1H      0.092200
     39 HAL2        2.1560   -1.9040   -3.4990 h1        1 D1H      0.092200
     40 HAB1       -4.4660   -3.5800   -5.0780 h1        1 D1H      0.071033
     41 HAB2       -3.5980   -2.7620   -3.6840 h1        1 D1H      0.071033
     42 HAB3       -4.9830   -1.9110   -4.5350 h1        1 D1H      0.071033
     43 HAJ        -4.3890   -1.8070   -7.4030 h5        1 D1H      0.070100
     44 HAD1        1.5810    0.1310   -7.7280 h1        1 D1H      0.063700
     45 HAD2       -0.0750    0.8330   -8.0890 h1        1 D1H      0.063700
     46 HAD3        0.3550   -0.8400   -8.6890 h1        1 D1H      0.063700
@<TRIPOS>BOND
     1    1    2 2   
     2    2    3 1   
     3    2   13 1   
     4    3    4 1   
     5    3    8 2   
     6    4    5 1   
     7    4    6 1   
     8    5   29 1   
     9    5   30 1   
    10    5   31 1   
    11    6    7 2   
    12    6   32 1   
    13    7    8 1   
    14    8    9 1   
    15    9   10 1   
    16    9   11 1   
    17   10   33 1   
    18   10   34 1   
    19   10   35 1   
    20   11   12 2   
    21   11   13 1   
    22   13   14 1   
    23   14   15 1   
    24   14   36 1   
    25   14   37 1   
    26   15   16 1   
    27   15   38 1   
    28   15   39 1   
    29   16   17 1   
    30   16   27 1   
    31   17   18 2   
    32   17   19 1   
    33   19   20 1   
    34   19   24 2   
    35   20   21 1   
    36   20   22 1   
    37   21   40 1   
    38   21   41 1   
    39   21   42 1   
    40   22   23 2   
    41   22   43 1   
    42   23   24 1   
    43   24   25 1   
    44   25   26 1   
    45   25   27 1   
    46   26   44 1   
    47   26   45 1   
    48   26   46 1   
    49   27   28 2   
@<TRIPOS>SUBSTRUCTURE
     1 D1H         1 TEMP              0 ****  ****    0 ROOT
