@<TRIPOS>MOLECULE
D1I
   50    52     1     0     0
SMALL
bcc


@<TRIPOS>ATOM
      1 N1         -0.0520    0.7450   -0.0380 n         1 D1I     -0.360000
      2 C2          1.0210    1.7020    0.1510 c         1 D1I      0.833900
      3 O2          1.2760    2.4980   -0.7750 o         1 D1I     -0.624500
      4 N3          1.7410    1.7770    1.3730 nc        1 D1I     -0.327400
      5 C4          1.3560    0.9270    2.3030 cd        1 D1I      0.373700
      6 C5          0.2810   -0.0710    2.1770 cd        1 D1I     -0.303300
      7 O5          1.9250    0.8320    3.5750 os        1 D1I     -0.367800
      8 C6         -0.3680   -0.1420    0.9780 cc        1 D1I      0.091600
      9 C7          0.2390   -0.7600    3.4530 cd        1 D1I     -0.225300
     10 C8          1.2080   -0.2090    4.2440 cc        1 D1I      0.301000
     11 C9          1.6750   -0.4460    5.6190 c3        1 D1I     -0.125700
     12 C1'        -0.6830    0.4800   -1.3250 c3        1 D1I      0.277500
     13 C10         0.8900   -1.5500    6.3000 c3        1 D1I     -0.078400
     14 C11         1.3920   -1.7710    7.7110 c3        1 D1I     -0.080400
     15 C12         0.6150   -2.8720    8.4010 c3        1 D1I     -0.079400
     16 C13         1.1100   -3.0980    9.8060 c3        1 D1I     -0.093100
     17 C2'        -0.5470    1.5590   -2.4310 c3        1 D1I      0.101100
     18 O2'        -1.1660    2.7630   -2.0340 oh        1 D1I     -0.609800
     19 C3'        -1.3330    1.0630   -3.6600 c3        1 D1I      0.101100
     20 O3'        -1.1680    1.9510   -4.7500 oh        1 D1I     -0.603800
     21 C4'        -0.7810   -0.2970   -4.1130 c3        1 D1I      0.121100
     22 O4'        -1.5940   -0.8490   -5.1340 oh        1 D1I     -0.595800
     23 C5'        -0.8110   -1.2830   -2.9360 c3        1 D1I      0.107100
     24 O5'        -0.1020   -0.7490   -1.8150 os        1 D1I     -0.448600
     25 C6'        -0.0880   -2.5850   -3.2980 c3        1 D1I      0.139400
     26 O6'        -0.1850   -3.5260   -2.2520 oh        1 D1I     -0.593800
     27 H6         -1.1580   -0.8890    0.7690 h4        1 D1I      0.172000
     28 H7         -0.4460   -1.5650    3.7120 ha        1 D1I      0.172000
     29 H19         2.7690   -0.7110    5.5920 hc        1 D1I      0.074700
     30 H29         1.5840    0.5100    6.2050 hc        1 D1I      0.074700
     31 H1'        -1.7880    0.3110   -1.1270 h2        1 D1I      0.065700
     32 H110       -0.1980   -1.2800    6.3230 hc        1 D1I      0.046700
     33 H210        0.9850   -2.5000    5.7110 hc        1 D1I      0.046700
     34 H111        2.4820   -2.0390    7.6860 hc        1 D1I      0.044200
     35 H211        1.2980   -0.8200    8.2980 hc        1 D1I      0.044200
     36 H112        0.7090   -3.8220    7.8110 hc        1 D1I      0.039700
     37 H212       -0.4740   -2.6030    8.4230 hc        1 D1I      0.039700
     38 H113        0.5240   -3.9130   10.2960 hc        1 D1I      0.035033
     39 H213        1.0010   -2.1690   10.4170 hc        1 D1I      0.035033
     40 H313        2.1870   -3.3910    9.8030 hc        1 D1I      0.035033
     41 H2'         0.5320    1.7130   -2.7060 h1        1 D1I      0.102700
     42 HO2'       -0.5020    3.2930   -1.5680 ho        1 D1I      0.443000
     43 H3'        -2.4280    0.9790   -3.4110 h1        1 D1I      0.061700
     44 HO3'       -1.4040    2.8320   -4.4280 ho        1 D1I      0.430000
     45 H4'         0.2720   -0.1670   -4.4910 h1        1 D1I      0.067700
     46 HO4'       -1.6480   -0.1790   -5.8300 ho        1 D1I      0.428000
     47 H5'        -1.8750   -1.5000   -2.6410 h1        1 D1I      0.068700
     48 H16'       -0.6060   -3.0530   -4.1770 h1        1 D1I      0.068200
     49 H26'        0.9860   -2.3720   -3.5420 h1        1 D1I      0.068200
     50 HO6'        0.2890   -3.1570   -1.4960 ho        1 D1I      0.408000
@<TRIPOS>BOND
     1    1    2 1   
     2    1    8 1   
     3    1   12 1   
     4    2    3 2   
     5    2    4 1   
     6    4    5 2   
     7    5    6 1   
     8    5    7 1   
     9    6    8 2   
    10    6    9 1   
    11    7   10 1   
    12    8   27 1   
    13    9   10 2   
    14    9   28 1   
    15   10   11 1   
    16   11   13 1   
    17   11   29 1   
    18   11   30 1   
    19   12   17 1   
    20   12   24 1   
    21   12   31 1   
    22   13   14 1   
    23   13   32 1   
    24   13   33 1   
    25   14   15 1   
    26   14   34 1   
    27   14   35 1   
    28   15   16 1   
    29   15   36 1   
    30   15   37 1   
    31   16   38 1   
    32   16   39 1   
    33   16   40 1   
    34   17   18 1   
    35   17   19 1   
    36   17   41 1   
    37   18   42 1   
    38   19   20 1   
    39   19   21 1   
    40   19   43 1   
    41   20   44 1   
    42   21   22 1   
    43   21   23 1   
    44   21   45 1   
    45   22   46 1   
    46   23   24 1   
    47   23   25 1   
    48   23   47 1   
    49   25   26 1   
    50   25   48 1   
    51   25   49 1   
    52   26   50 1   
@<TRIPOS>SUBSTRUCTURE
     1 D1I         1 TEMP              0 ****  ****    0 ROOT
