@<TRIPOS>MOLECULE
D1I
   50    52     1     0     0
SMALL
bcc


@<TRIPOS>ATOM
      1 N1         -0.0480    0.7270   -0.0380 n         1 D1I     -0.360000
      2 C2          1.0320    1.6770    0.1470 c         1 D1I      0.833900
      3 O2          1.2900    2.4700   -0.7800 o         1 D1I     -0.624500
      4 N3          1.7550    1.7480    1.3680 nc        1 D1I     -0.327400
      5 C4          1.3670    0.9010    2.2990 cd        1 D1I      0.373700
      6 C5          0.2850   -0.0890    2.1770 cd        1 D1I     -0.303300
      7 O5          1.9380    0.8030    3.5700 os        1 D1I     -0.367800
      8 C6         -0.3680   -0.1570    0.9790 cc        1 D1I      0.091600
      9 C7          0.2410   -0.7770    3.4540 cd        1 D1I     -0.225300
     10 C8          1.2170   -0.2320    4.2410 cc        1 D1I      0.301000
     11 C9          1.6850   -0.4720    5.6160 c3        1 D1I     -0.125700
     12 C1'        -0.6840    0.4660   -1.3230 c3        1 D1I      0.277500
     13 C10         0.8990   -1.5740    6.2970 c3        1 D1I     -0.078400
     14 C11         1.4010   -1.7960    7.7070 c3        1 D1I     -0.080400
     15 C12         0.6230   -2.8970    8.3980 c3        1 D1I     -0.079400
     16 C13         1.1170   -3.1220    9.8030 c3        1 D1I     -0.093100
     17 C2'        -0.5440    1.5420   -2.4300 c3        1 D1I      0.101100
     18 O2'        -1.1530    2.7520   -2.0330 oh        1 D1I     -0.609800
     19 C3'        -1.3370    1.0520   -3.6560 c3        1 D1I      0.101100
     20 O3'        -1.1670    1.9370   -4.7480 oh        1 D1I     -0.603800
     21 C4'        -0.7950   -0.3140   -4.1100 c3        1 D1I      0.121100
     22 O4'        -1.6150   -0.8600   -5.1280 oh        1 D1I     -0.595800
     23 C5'        -0.8300   -1.2980   -2.9320 c3        1 D1I      0.107100
     24 O5'        -0.1150   -0.7680   -1.8140 os        1 D1I     -0.448600
     25 C6'        -0.1170   -2.6060   -3.2940 c3        1 D1I      0.139400
     26 O6'        -0.2180   -3.5450   -2.2480 oh        1 D1I     -0.593800
     27 H6         -1.1630   -0.8980    0.7730 h4        1 D1I      0.172000
     28 H7         -0.4490   -1.5770    3.7150 ha        1 D1I      0.172000
     29 H19         2.7780   -0.7390    5.5860 hc        1 D1I      0.074700
     30 H29         1.5970    0.4850    6.2020 hc        1 D1I      0.074700
     31 H1'        -1.7900    0.3050   -1.1220 h2        1 D1I      0.065700
     32 H110        0.9920   -2.5240    5.7080 hc        1 D1I      0.047200
     33 H210       -0.1890   -1.3030    6.3210 hc        1 D1I      0.047200
     34 H111        1.3080   -0.8450    8.2950 hc        1 D1I      0.044200
     35 H211        2.4900   -2.0650    7.6820 hc        1 D1I      0.044200
     36 H112        0.7170   -3.8470    7.8080 hc        1 D1I      0.039700
     37 H212       -0.4660   -2.6270    8.4190 hc        1 D1I      0.039700
     38 H113        0.5320   -3.9370   10.2930 hc        1 D1I      0.035033
     39 H213        1.0090   -2.1930   10.4140 hc        1 D1I      0.035033
     40 H313        2.1950   -3.4150    9.8000 hc        1 D1I      0.035033
     41 H2'         0.5360    1.6880   -2.7080 h1        1 D1I      0.102700
     42 HO2'       -0.4840    3.2770   -1.5690 ho        1 D1I      0.443000
     43 H3'        -2.4320    0.9760   -3.4050 h1        1 D1I      0.061700
     44 HO3'       -1.3970    2.8200   -4.4270 ho        1 D1I      0.430000
     45 H4'         0.2570   -0.1920   -4.4910 h1        1 D1I      0.067700
     46 HO4'       -1.6660   -0.1900   -5.8240 ho        1 D1I      0.428000
     47 H5'        -1.8940   -1.5060   -2.6340 h1        1 D1I      0.068700
     48 H16'       -0.6410   -3.0710   -4.1720 h1        1 D1I      0.068200
     49 H26'        0.9580   -2.4010   -3.5420 h1        1 D1I      0.068200
     50 HO6'        0.2610   -3.1790   -1.4930 ho        1 D1I      0.408000
@<TRIPOS>BOND
     1    1    2 1   
     2    1    8 1   
     3    1   12 1   
     4    2    3 2   
     5    2    4 1   
     6    4    5 2   
     7    5    6 1   
     8    5    7 1   
     9    6    8 2   
    10    6    9 1   
    11    7   10 1   
    12    8   27 1   
    13    9   10 2   
    14    9   28 1   
    15   10   11 1   
    16   11   13 1   
    17   11   29 1   
    18   11   30 1   
    19   12   17 1   
    20   12   24 1   
    21   12   31 1   
    22   13   14 1   
    23   13   32 1   
    24   13   33 1   
    25   14   15 1   
    26   14   34 1   
    27   14   35 1   
    28   15   16 1   
    29   15   36 1   
    30   15   37 1   
    31   16   38 1   
    32   16   39 1   
    33   16   40 1   
    34   17   18 1   
    35   17   19 1   
    36   17   41 1   
    37   18   42 1   
    38   19   20 1   
    39   19   21 1   
    40   19   43 1   
    41   20   44 1   
    42   21   22 1   
    43   21   23 1   
    44   21   45 1   
    45   22   46 1   
    46   23   24 1   
    47   23   25 1   
    48   23   47 1   
    49   25   26 1   
    50   25   48 1   
    51   25   49 1   
    52   26   50 1   
@<TRIPOS>SUBSTRUCTURE
     1 D1I         1 TEMP              0 ****  ****    0 ROOT
