@<TRIPOS>MOLECULE
D1I
   50    52     1     0     0
SMALL
bcc


@<TRIPOS>ATOM
      1 N1         -0.8550   -0.4850   -0.1680 n         1 D1I     -0.362000
      2 C2         -0.4800   -0.4410    1.2370 c         1 D1I      0.830900
      3 O2         -1.3920   -0.3570    2.0780 o         1 D1I     -0.589500
      4 N3          0.8850   -0.5100    1.6300 nc        1 D1I     -0.330400
      5 C4          1.7450   -0.6170    0.6390 cd        1 D1I      0.372700
      6 C5          1.4250   -0.6650   -0.7970 cd        1 D1I     -0.314300
      7 O5          3.1310   -0.7020    0.8020 os        1 D1I     -0.368800
      8 C6          0.1060   -0.5830   -1.1500 cc        1 D1I      0.100600
      9 C7          2.7000   -0.7870   -1.4780 cd        1 D1I     -0.221300
     10 C8          3.6720   -0.8050   -0.5160 cc        1 D1I      0.294000
     11 C9          5.1390   -0.9210   -0.5610 c3        1 D1I     -0.120700
     12 C1'        -2.2470   -0.3270   -0.5650 c3        1 D1I      0.320500
     13 C10         5.8200    0.3970   -0.2410 c3        1 D1I     -0.079400
     14 C11         7.3250    0.2430   -0.2620 c3        1 D1I     -0.079400
     15 C12         8.0130    1.5560    0.0480 c3        1 D1I     -0.080400
     16 C13         9.5130    1.4100    0.0310 c3        1 D1I     -0.093100
     17 C2'        -3.1890   -1.4220    0.0120 c3        1 D1I      0.112100
     18 O2'        -2.8110   -2.6390   -0.6070 oh        1 D1I     -0.600800
     19 C3'        -4.6390   -1.0770   -0.3650 c3        1 D1I      0.074100
     20 O3'        -5.4570   -2.0460    0.2700 oh        1 D1I     -0.598800
     21 C4'        -4.9780    0.3360    0.1310 c3        1 D1I      0.081100
     22 O4'        -6.2780    0.6950   -0.3110 oh        1 D1I     -0.593800
     23 C5'        -3.9820    1.3250   -0.4890 c3        1 D1I      0.109100
     24 O5'        -2.6500    0.9760   -0.1100 os        1 D1I     -0.422600
     25 C6'        -4.1980    2.7430    0.0520 c3        1 D1I      0.140400
     26 O6'        -3.3610    3.6670   -0.6030 oh        1 D1I     -0.593800
     27 H6         -0.2290   -0.6030   -2.2040 h4        1 D1I      0.167000
     28 H7          2.8330   -0.8530   -2.5550 ha        1 D1I      0.168000
     29 H19         5.4680   -1.7010    0.1800 hc        1 D1I      0.067200
     30 H29         5.4380   -1.2700   -1.5860 hc        1 D1I      0.067200
     31 H1'        -2.3170   -0.3590   -1.6960 h2        1 D1I      0.063700
     32 H110        5.5080    1.1750   -0.9870 hc        1 D1I      0.052700
     33 H210        5.4860    0.7500    0.7700 hc        1 D1I      0.052700
     34 H111        7.6360   -0.5300    0.4900 hc        1 D1I      0.041200
     35 H211        7.6540   -0.1250   -1.2700 hc        1 D1I      0.041200
     36 H112        7.7010    2.3280   -0.7050 hc        1 D1I      0.041200
     37 H212        7.6810    1.9230    1.0550 hc        1 D1I      0.041200
     38 H113        9.8450    0.6630    0.7920 hc        1 D1I      0.033367
     39 H213        9.8650    1.0680   -0.9720 hc        1 D1I      0.033367
     40 H313       10.0000    2.3880    0.2610 hc        1 D1I      0.033367
     41 H2'        -3.0910   -1.4920    1.1310 h1        1 D1I      0.107700
     42 HO2'       -3.3710   -3.3240   -0.2170 ho        1 D1I      0.429000
     43 H3'        -4.7760   -1.1350   -1.4810 h1        1 D1I      0.060700
     44 HO3'       -6.3460   -1.9330   -0.0900 ho        1 D1I      0.412000
     45 H4'        -4.9080    0.3730    1.2530 h1        1 D1I      0.078700
     46 HO4'       -6.8940    0.3660    0.3540 ho        1 D1I      0.410000
     47 H5'        -4.0730    1.3180   -1.6100 h1        1 D1I      0.066700
     48 H16'       -5.2480    3.0640   -0.1850 h1        1 D1I      0.067200
     49 H26'       -4.0210    2.7600    1.1600 h1        1 D1I      0.067200
     50 HO6'       -2.4510    3.4280   -0.3850 ho        1 D1I      0.413000
@<TRIPOS>BOND
     1    1    2 1   
     2    1    8 1   
     3    1   12 1   
     4    2    3 2   
     5    2    4 1   
     6    4    5 2   
     7    5    6 1   
     8    5    7 1   
     9    6    8 2   
    10    6    9 1   
    11    7   10 1   
    12    8   27 1   
    13    9   10 2   
    14    9   28 1   
    15   10   11 1   
    16   11   13 1   
    17   11   29 1   
    18   11   30 1   
    19   12   17 1   
    20   12   24 1   
    21   12   31 1   
    22   13   14 1   
    23   13   32 1   
    24   13   33 1   
    25   14   15 1   
    26   14   34 1   
    27   14   35 1   
    28   15   16 1   
    29   15   36 1   
    30   15   37 1   
    31   16   38 1   
    32   16   39 1   
    33   16   40 1   
    34   17   18 1   
    35   17   19 1   
    36   17   41 1   
    37   18   42 1   
    38   19   20 1   
    39   19   21 1   
    40   19   43 1   
    41   20   44 1   
    42   21   22 1   
    43   21   23 1   
    44   21   45 1   
    45   22   46 1   
    46   23   24 1   
    47   23   25 1   
    48   23   47 1   
    49   25   26 1   
    50   25   48 1   
    51   25   49 1   
    52   26   50 1   
@<TRIPOS>SUBSTRUCTURE
     1 D1I         1 TEMP              0 ****  ****    0 ROOT
