@<TRIPOS>MOLECULE
D1I
   50    52     1     0     0
SMALL
bcc


@<TRIPOS>ATOM
      1 N1         -0.0970    0.2240    0.0000 n         1 D1I     -0.362000
      2 C2          1.3530    0.1420    0.0970 c         1 D1I      0.830900
      3 O2          2.0070    0.1890   -0.9590 o         1 D1I     -0.589500
      4 N3          1.9940    0.0300    1.3610 nc        1 D1I     -0.330400
      5 C4          1.1820    0.0110    2.3980 cd        1 D1I      0.372700
      6 C5         -0.2870    0.0890    2.3610 cd        1 D1I     -0.314300
      7 O5          1.6030   -0.0890    3.7280 os        1 D1I     -0.368800
      8 C6         -0.8810    0.1820    1.1320 cc        1 D1I      0.100600
      9 C7         -0.7160    0.0320    3.7450 cd        1 D1I     -0.221300
     10 C8          0.4100   -0.0720    4.5140 cc        1 D1I      0.294000
     11 C9          0.6410   -0.1540    5.9650 c3        1 D1I     -0.120700
     12 C1'        -0.7490    0.2510   -1.3010 c3        1 D1I      0.320500
     13 C10         1.0590   -1.5500    6.3920 c3        1 D1I     -0.079400
     14 C11         1.3210   -1.6000    7.8820 c3        1 D1I     -0.079400
     15 C12         1.7300   -2.9910    8.3180 c3        1 D1I     -0.080400
     16 C13         1.9960   -3.0480    9.8000 c3        1 D1I     -0.093100
     17 C2'        -0.3400    1.4680   -2.1790 c3        1 D1I      0.112100
     18 O2'        -0.8580    2.6160   -1.5320 oh        1 D1I     -0.600800
     19 C3'        -0.9870    1.3180   -3.5660 c3        1 D1I      0.074100
     20 O3'        -0.4990    2.3950   -4.3510 oh        1 D1I     -0.598800
     21 C4'        -0.5850   -0.0320   -4.1780 c3        1 D1I      0.081100
     22 O4'        -1.2680   -0.2160   -5.4080 oh        1 D1I     -0.593800
     23 C5'        -1.0240   -1.1520   -3.2260 c3        1 D1I      0.109100
     24 O5'        -0.3990   -0.9820   -1.9530 os        1 D1I     -0.422600
     25 C6'        -0.5560   -2.5220   -3.7280 c3        1 D1I      0.140400
     26 O6'        -1.0590   -3.5580   -2.9140 oh        1 D1I     -0.593800
     27 H6         -1.9790    0.2370    1.0060 h4        1 D1I      0.167000
     28 H7         -1.7480    0.0700    4.0840 ha        1 D1I      0.168000
     29 H19         1.4440    0.5800    6.2520 hc        1 D1I      0.067200
     30 H29        -0.3040    0.1430    6.4950 hc        1 D1I      0.067200
     31 H1'        -1.8720    0.2810   -1.1540 h2        1 D1I      0.063700
     32 H110        1.9840   -1.8470    5.8310 hc        1 D1I      0.052700
     33 H210        0.2550   -2.2840    6.1250 hc        1 D1I      0.052700
     34 H111        0.3990   -1.2880    8.4390 hc        1 D1I      0.041200
     35 H211        2.1310   -0.8700    8.1470 hc        1 D1I      0.041200
     36 H112        2.6510   -3.3020    7.7580 hc        1 D1I      0.041200
     37 H212        0.9200   -3.7200    8.0520 hc        1 D1I      0.041200
     38 H113        1.0820   -2.7640   10.3770 hc        1 D1I      0.033367
     39 H213        2.2950   -4.0810   10.1010 hc        1 D1I      0.033367
     40 H313        2.8180   -2.3470   10.0810 hc        1 D1I      0.033367
     41 H2'         0.7790    1.5340   -2.2830 h1        1 D1I      0.107700
     42 HO2'       -0.5690    3.3740   -2.0590 ho        1 D1I      0.429000
     43 H3'        -2.1070    1.3840   -3.4830 h1        1 D1I      0.060700
     44 HO3'       -1.0210    2.3990   -5.1640 ho        1 D1I      0.412000
     45 H4'         0.5300   -0.0670   -4.3240 h1        1 D1I      0.078700
     46 HO4'       -0.7240    0.1990   -6.0890 ho        1 D1I      0.410000
     47 H5'        -2.1420   -1.1430   -3.1040 h1        1 D1I      0.066700
     48 H16'       -0.9900   -2.7010   -4.7480 h1        1 D1I      0.067200
     49 H26'        0.5650   -2.5530   -3.7640 h1        1 D1I      0.067200
     50 HO6'       -0.6710   -3.4410   -2.0370 ho        1 D1I      0.413000
@<TRIPOS>BOND
     1    1    2 1   
     2    1    8 1   
     3    1   12 1   
     4    2    3 2   
     5    2    4 1   
     6    4    5 2   
     7    5    6 1   
     8    5    7 1   
     9    6    8 2   
    10    6    9 1   
    11    7   10 1   
    12    8   27 1   
    13    9   10 2   
    14    9   28 1   
    15   10   11 1   
    16   11   13 1   
    17   11   29 1   
    18   11   30 1   
    19   12   17 1   
    20   12   24 1   
    21   12   31 1   
    22   13   14 1   
    23   13   32 1   
    24   13   33 1   
    25   14   15 1   
    26   14   34 1   
    27   14   35 1   
    28   15   16 1   
    29   15   36 1   
    30   15   37 1   
    31   16   38 1   
    32   16   39 1   
    33   16   40 1   
    34   17   18 1   
    35   17   19 1   
    36   17   41 1   
    37   18   42 1   
    38   19   20 1   
    39   19   21 1   
    40   19   43 1   
    41   20   44 1   
    42   21   22 1   
    43   21   23 1   
    44   21   45 1   
    45   22   46 1   
    46   23   24 1   
    47   23   25 1   
    48   23   47 1   
    49   25   26 1   
    50   25   48 1   
    51   25   49 1   
    52   26   50 1   
@<TRIPOS>SUBSTRUCTURE
     1 D1I         1 TEMP              0 ****  ****    0 ROOT
