@<TRIPOS>MOLECULE
D1I
   50    50     1     0     0
SMALL
bcc


@<TRIPOS>ATOM
      1 N1         -0.3780   -0.0700   -1.6490 n         1 D1I     -0.288000
      2 C2          1.0920    0.4830   -1.4780 c2        1 D1I      0.348000
      3 O2          1.7730    0.7110   -2.4570 o         1 D1I     -0.361000
      4 N3          1.7340    0.3650   -0.1300 n2        1 D1I     -0.188000
      5 C4          0.9650   -0.1510    0.8810 c1        1 D1I      0.177000
      6 C5         -0.4310   -0.5170    0.7400 c1        1 D1I     -0.242000
      7 O5          1.3830   -0.4070    2.3660 os        1 D1I     -0.105000
      8 C6         -1.0330   -0.7060   -0.4590 c2        1 D1I      0.075000
      9 C7         -0.8420   -1.0390    1.9880 c1        1 D1I     -0.158000
     10 C8          0.1920   -1.0060    2.9160 c2        1 D1I      0.010000
     11 C9         -0.1190   -0.8560    4.3890 c3        1 D1I     -0.107000
     12 C1'        -0.8120   -0.2390   -2.7080 c3        1 D1I      0.117000
     13 C10         0.8130    0.1670    4.9990 c3        1 D1I     -0.158000
     14 C11         0.4570    0.3680    6.4560 c3        1 D1I     -0.158000
     15 C12         1.4330    1.3380    7.0850 c3        1 D1I     -0.159000
     16 C13         1.1570    1.4410    8.5690 c3        1 D1I     -0.211000
     17 C2'        -0.7020    1.0930   -3.6280 c3        1 D1I     -0.007000
     18 O2'        -1.4100    2.1080   -3.0240 oh        1 D1I     -0.337000
     19 C3'        -1.2330    0.8960   -5.0210 c3        1 D1I     -0.004000
     20 O3'        -0.3350    1.5810   -5.9830 oh        1 D1I     -0.330000
     21 C4'        -1.3030   -0.4650   -5.3520 c3        1 D1I      0.015000
     22 O4'        -2.7090   -0.9940   -4.7410 oh        1 D1I     -0.321000
     23 C5'        -0.3350   -1.4350   -4.9880 c3        1 D1I     -0.016000
     24 O5'         0.1720   -1.2060   -3.6350 os        1 D1I     -0.282000
     25 C6'         0.8440   -1.3700   -5.9860 c3        1 D1I     -0.048000
     26 O6'         1.4620   -2.6350   -6.0680 oh        1 D1I     -0.312000
     27 H6         -1.9740   -0.9610   -0.4980 h4        1 D1I      0.184000
     28 H7         -1.5070   -1.7520    2.0240 ha        1 D1I      0.172000
     29 H19         0.0040   -1.7170    4.8370 hc        1 D1I      0.109000
     30 H29        -1.0450   -0.5610    4.4990 hc        1 D1I      0.109000
     31 H1'        -1.7280   -0.5820   -2.6780 h2        1 D1I      0.141000
     32 H110        0.7230    1.0160    4.5220 hc        1 D1I      0.092500
     33 H210        1.7360   -0.1500    4.9300 hc        1 D1I      0.092500
     34 H111       -0.4500    0.7290    6.5230 hc        1 D1I      0.080500
     35 H211        0.5020   -0.4900    6.9240 hc        1 D1I      0.080500
     36 H112        1.3300    2.2180    6.6720 hc        1 D1I      0.080500
     37 H212        2.3470    1.0170    6.9450 hc        1 D1I      0.080500
     38 H113        1.7450    2.1170    8.9640 hc        1 D1I      0.073667
     39 H213        0.2210    1.6980    8.7090 hc        1 D1I      0.073667
     40 H313        1.3240    0.5730    8.9930 hc        1 D1I      0.073667
     41 H2'         0.2380    1.3560   -3.6860 h1        1 D1I      0.131000
     42 HO2'       -1.0270    2.8890   -3.2110 ho        1 D1I      0.247000
     43 H3'        -2.1270    1.2870   -5.0820 h1        1 D1I      0.112000
     44 HO3'       -0.8150    2.1150   -6.5070 ho        1 D1I      0.231000
     45 H4'        -1.3800   -0.5070   -6.3270 h1        1 D1I      0.103000
     46 HO4'       -3.3260   -0.9990   -5.3790 ho        1 D1I      0.222000
     47 H5'        -0.7410   -2.3230   -5.0300 h1        1 D1I      0.162000
     48 H16'        1.4970   -0.7070   -5.6780 h1        1 D1I      0.100000
     49 H26'        0.5100   -1.1120   -6.8700 h1        1 D1I      0.100000
     50 HO6'        2.1080   -2.6110   -6.6780 ho        1 D1I      0.199000
@<TRIPOS>BOND
     1    1    2 1   
     2    1    8 1   
     3    1   12 1   
     4    2    3 1   
     5    2    4 1   
     6    4    5 1   
     7    5    7 1   
     8    6    8 1   
     9    7   10 1   
    10    8   27 1   
    11    9   10 1   
    12    9   28 1   
    13   10   11 1   
    14   11   13 1   
    15   11   29 1   
    16   11   30 1   
    17   12   17 1   
    18   12   24 1   
    19   12   31 1   
    20   13   14 1   
    21   13   32 1   
    22   13   33 1   
    23   14   15 1   
    24   14   34 1   
    25   14   35 1   
    26   15   16 1   
    27   15   36 1   
    28   15   37 1   
    29   16   38 1   
    30   16   39 1   
    31   16   40 1   
    32   17   18 1   
    33   17   19 1   
    34   17   41 1   
    35   18   42 1   
    36   19   20 1   
    37   19   21 1   
    38   19   43 1   
    39   20   44 1   
    40   21   22 1   
    41   21   23 1   
    42   21   45 1   
    43   22   46 1   
    44   23   24 1   
    45   23   25 1   
    46   23   47 1   
    47   25   26 1   
    48   25   48 1   
    49   25   49 1   
    50   26   50 1   
@<TRIPOS>SUBSTRUCTURE
     1 D1I         1 TEMP              0 ****  ****    0 ROOT
