@<TRIPOS>MOLECULE
D1J
   44    45     1     0     0
SMALL
bcc


@<TRIPOS>ATOM
      1 N1          0.0770    0.4240   -0.3240 n         1 D1J     -0.357000
      2 C2          0.1770    1.8330   -0.5200 c         1 D1J      0.819500
      3 O2          1.2610    2.3810   -0.8080 o         1 D1J     -0.632500
      4 N3         -0.9910    2.5990   -0.4060 n         1 D1J     -0.588500
      5 C4         -2.2540    2.0620   -0.0930 c         1 D1J      0.724700
      6 O4         -3.2170    2.8380   -0.0130 o         1 D1J     -0.590500
      7 C5         -2.2950    0.5980    0.1150 cc        1 D1J     -0.094900
      8 C6         -1.1450   -0.1380    0.0100 cd        1 D1J      0.067600
      9 C7         -3.5220   -0.0010    0.4150 cg        1 D1J     -0.159300
     10 C8         -4.5820   -0.5000    0.6720 c1        1 D1J     -0.085100
     11 C9         -5.8480   -1.0840    0.9940 c3        1 D1J     -0.004300
     12 C1'         1.2770   -0.3940   -0.2720 c3        1 D1J      0.330500
     13 C10        -6.3460   -2.0230   -0.0940 c3        1 D1J     -0.077400
     14 C11        -7.6820   -2.6140    0.2760 c3        1 D1J     -0.095100
     15 C2'         2.1440   -0.3260   -1.5620 c3        1 D1J      0.112100
     16 O2'         1.3760   -0.9210   -2.5920 oh        1 D1J     -0.596800
     17 C3'         3.4280   -1.1410   -1.3350 c3        1 D1J      0.072100
     18 O3'         4.2230   -0.9610   -2.4960 oh        1 D1J     -0.598800
     19 C4'         4.1590   -0.6190   -0.0890 c3        1 D1J      0.082100
     20 O4'         5.2800   -1.4430    0.1860 oh        1 D1J     -0.592800
     21 C5'         3.2090   -0.7090    1.1130 c3        1 D1J      0.110100
     22 O5'         2.0350    0.0660    0.8620 os        1 D1J     -0.432600
     23 C6'         3.8400   -0.0950    2.3670 c3        1 D1J      0.140400
     24 O6'         3.0260   -0.3020    3.4980 oh        1 D1J     -0.591800
     25 HN3        -0.9010    3.5820   -0.5580 hn        1 D1J      0.354500
     26 H6         -1.1510   -1.2340    0.1670 h4        1 D1J      0.173000
     27 H19        -5.7630   -1.6480    1.9650 hc        1 D1J      0.064200
     28 H29        -6.6010   -0.2610    1.1510 hc        1 D1J      0.064200
     29 H1'         0.9720   -1.4720   -0.1020 h2        1 D1J      0.071700
     30 H110       -6.4330   -1.4620   -1.0610 hc        1 D1J      0.047200
     31 H210       -5.5980   -2.8440   -0.2510 hc        1 D1J      0.047200
     32 H111       -7.6090   -3.1950    1.2270 hc        1 D1J      0.035700
     33 H211       -8.4450   -1.8100    0.4140 hc        1 D1J      0.035700
     34 H311       -8.0350   -3.3010   -0.5310 hc        1 D1J      0.035700
     35 H2'         2.4060    0.7380   -1.8180 h1        1 D1J      0.106700
     36 HO2'        1.9070   -0.8490   -3.3980 ho        1 D1J      0.429000
     37 H3'         3.1790   -2.2310   -1.2060 h1        1 D1J      0.062700
     38 HO3'        4.9310   -1.6160   -2.4490 ho        1 D1J      0.412000
     39 H4'         4.4740    0.4490   -0.2520 h1        1 D1J      0.075700
     40 HO4'        6.0020   -1.1170   -0.3650 ho        1 D1J      0.411000
     41 H5'         2.9240   -1.7790    1.3060 h1        1 D1J      0.068700
     42 H16'        4.8030   -0.6300    2.5860 h1        1 D1J      0.067200
     43 H26'        4.0260    1.0000    2.2050 h1        1 D1J      0.067200
     44 HO6'        2.1980    0.1720    3.3420 ho        1 D1J      0.412000
@<TRIPOS>BOND
     1    1    2 1   
     2    1    8 1   
     3    1   12 1   
     4    2    3 2   
     5    2    4 1   
     6    4    5 1   
     7    4   25 1   
     8    5    6 2   
     9    5    7 1   
    10    7    8 2   
    11    7    9 1   
    12    8   26 1   
    13    9   10 3   
    14   10   11 1   
    15   11   13 1   
    16   11   27 1   
    17   11   28 1   
    18   12   15 1   
    19   12   22 1   
    20   12   29 1   
    21   13   14 1   
    22   13   30 1   
    23   13   31 1   
    24   14   32 1   
    25   14   33 1   
    26   14   34 1   
    27   15   16 1   
    28   15   17 1   
    29   15   35 1   
    30   16   36 1   
    31   17   18 1   
    32   17   19 1   
    33   17   37 1   
    34   18   38 1   
    35   19   20 1   
    36   19   21 1   
    37   19   39 1   
    38   20   40 1   
    39   21   22 1   
    40   21   23 1   
    41   21   41 1   
    42   23   24 1   
    43   23   42 1   
    44   23   43 1   
    45   24   44 1   
@<TRIPOS>SUBSTRUCTURE
     1 D1J         1 TEMP              0 ****  ****    0 ROOT
