@<TRIPOS>MOLECULE
D1J
   44    45     1     0     0
SMALL
bcc


@<TRIPOS>ATOM
      1 N1         -0.1820    0.2630   -0.1380 n         1 D1J     -0.357000
      2 C2          1.2290    0.4060    0.0090 c         1 D1J      0.819500
      3 O2          1.9700    0.6570   -0.9640 o         1 D1J     -0.632500
      4 N3          1.7730    0.2830    1.2950 n         1 D1J     -0.588500
      5 C4          1.0120    0.0080    2.4460 c         1 D1J      0.724700
      6 O4          1.6030   -0.0850    3.5320 o         1 D1J     -0.590500
      7 C5         -0.4430   -0.1470    2.2310 cc        1 D1J     -0.094900
      8 C6         -0.9620   -0.0320    0.9680 cd        1 D1J      0.067600
      9 C7         -1.2600   -0.4060    3.3360 cg        1 D1J     -0.159300
     10 C8         -1.9460   -0.6290    4.2930 c1        1 D1J     -0.085100
     11 C9         -2.7560   -0.9100    5.4390 c3        1 D1J     -0.004300
     12 C1'        -0.7780    0.2220   -1.4640 c3        1 D1J      0.330500
     13 C10        -3.7180    0.2220    5.7620 c3        1 D1J     -0.077400
     14 C11        -4.5480   -0.1060    6.9760 c3        1 D1J     -0.095100
     15 C2'        -0.5090    1.4950   -2.3160 c3        1 D1J      0.112100
     16 O2'        -1.1900    2.5570   -1.6740 oh        1 D1J     -0.596800
     17 C3'        -1.0940    1.2780   -3.7220 c3        1 D1J      0.072100
     18 O3'        -0.7330    2.4200   -4.4820 oh        1 D1J     -0.598800
     19 C4'        -0.5000    0.0030   -4.3380 c3        1 D1J      0.082100
     20 O4'        -1.1240   -0.2590   -5.5850 oh        1 D1J     -0.592800
     21 C5'        -0.8010   -1.1800   -3.4080 c3        1 D1J      0.110100
     22 O5'        -0.2360   -0.9390   -2.1190 os        1 D1J     -0.432600
     23 C6'        -0.1340   -2.4650   -3.9110 c3        1 D1J      0.140400
     24 O6'        -0.5240   -3.5750   -3.1360 oh        1 D1J     -0.591800
     25 HN3         2.7620    0.3980    1.3770 hn        1 D1J      0.354500
     26 H6         -2.0470   -0.1500    0.7820 h4        1 D1J      0.173000
     27 H19        -3.3400   -1.8580    5.2610 hc        1 D1J      0.064200
     28 H29        -2.0840   -1.0950    6.3250 hc        1 D1J      0.064200
     29 H1'        -1.8980    0.0960   -1.3510 h2        1 D1J      0.071700
     30 H110       -4.3880    0.4070    4.8820 hc        1 D1J      0.047200
     31 H210       -3.1370    1.1650    5.9410 hc        1 D1J      0.047200
     32 H111       -5.1490   -1.0320    6.8060 hc        1 D1J      0.035700
     33 H211       -3.8960   -0.2700    7.8680 hc        1 D1J      0.035700
     34 H311       -5.2490    0.7340    7.2010 hc        1 D1J      0.035700
     35 H2'         0.5930    1.7090   -2.3890 h1        1 D1J      0.106700
     36 HO2'       -0.9960    3.3520   -2.1900 ho        1 D1J      0.429000
     37 H3'        -2.2150    1.1920   -3.6670 h1        1 D1J      0.062700
     38 HO3'       -1.2550    2.3860   -5.2930 ho        1 D1J      0.412000
     39 H4'         0.6120    0.1220   -4.4620 h1        1 D1J      0.075700
     40 HO4'       -0.6550    0.2690   -6.2420 ho        1 D1J      0.411000
     41 H5'        -1.9120   -1.3290   -3.3150 h1        1 D1J      0.068700
     42 H16'       -0.5000   -2.6790   -4.9510 h1        1 D1J      0.067200
     43 H26'        0.9810   -2.3450   -3.9030 h1        1 D1J      0.067200
     44 HO6'       -0.1970   -3.4240   -2.2400 ho        1 D1J      0.412000
@<TRIPOS>BOND
     1    1    2 1   
     2    1    8 1   
     3    1   12 1   
     4    2    3 2   
     5    2    4 1   
     6    4    5 1   
     7    4   25 1   
     8    5    6 2   
     9    5    7 1   
    10    7    8 2   
    11    7    9 1   
    12    8   26 1   
    13    9   10 3   
    14   10   11 1   
    15   11   13 1   
    16   11   27 1   
    17   11   28 1   
    18   12   15 1   
    19   12   22 1   
    20   12   29 1   
    21   13   14 1   
    22   13   30 1   
    23   13   31 1   
    24   14   32 1   
    25   14   33 1   
    26   14   34 1   
    27   15   16 1   
    28   15   17 1   
    29   15   35 1   
    30   16   36 1   
    31   17   18 1   
    32   17   19 1   
    33   17   37 1   
    34   18   38 1   
    35   19   20 1   
    36   19   21 1   
    37   19   39 1   
    38   20   40 1   
    39   21   22 1   
    40   21   23 1   
    41   21   41 1   
    42   23   24 1   
    43   23   42 1   
    44   23   43 1   
    45   24   44 1   
@<TRIPOS>SUBSTRUCTURE
     1 D1J         1 TEMP              0 ****  ****    0 ROOT
