@<TRIPOS>MOLECULE
D1J
   44    45     1     0     0
SMALL
bcc


@<TRIPOS>ATOM
      1 N1          0.1030    0.2560   -0.0710 n         1 D1J     -0.357000
      2 C2          1.5280    0.1950   -0.0910 c         1 D1J      0.819500
      3 O2          2.1770    0.3220   -1.1490 o         1 D1J     -0.632500
      4 N3          2.1970    0.0120    1.1270 ns        1 D1J     -0.588500
      5 C4          1.5460   -0.1320    2.3660 c         1 D1J      0.724700
      6 O4          2.2410   -0.2940    3.3790 o         1 D1J     -0.590500
      7 C5          0.0680   -0.0770    2.3250 cc        1 D1J     -0.094900
      8 C6         -0.5750    0.0930    1.1270 cd        1 D1J      0.066600
      9 C7         -0.6410   -0.2000    3.5240 cg        1 D1J     -0.159300
     10 C8         -1.2350   -0.3060    4.5590 c1        1 D1J     -0.085100
     11 C9         -1.9540   -0.4280    5.7910 c3        1 D1J     -0.003300
     12 C1'        -0.6450    0.2820   -1.3170 c3        1 D1J      0.330500
     13 C10        -1.1010   -1.0330    6.8950 c3        1 D1J     -0.077400
     14 C11        -1.8820   -1.1390    8.1800 c3        1 D1J     -0.095100
     15 C2'        -0.3000    1.4900   -2.2350 c3        1 D1J      0.112100
     16 O2'        -0.7420    2.6500   -1.5530 oh        1 D1J     -0.596800
     17 C3'        -1.0720    1.3390   -3.5560 c3        1 D1J      0.072100
     18 O3'        -0.6440    2.4050   -4.3890 oh        1 D1J     -0.598800
     19 C4'        -0.7430   -0.0170   -4.1960 c3        1 D1J      0.082100
     20 O4'        -1.5410   -0.2050   -5.3530 oh        1 D1J     -0.592800
     21 C5'        -1.0970   -1.1300   -3.2000 c3        1 D1J      0.110100
     22 O5'        -0.3550   -0.9550   -1.9920 os        1 D1J     -0.432600
     23 C6'        -0.6840   -2.5060   -3.7360 c3        1 D1J      0.140400
     24 O6'        -1.1340   -3.5360   -2.8860 oh        1 D1J     -0.591800
     25 HN3         3.1940   -0.0160    1.0920 hn        1 D1J      0.354500
     26 H6         -1.6800    0.1320    1.0700 h4        1 D1J      0.173000
     27 H19        -2.8670   -1.0680    5.6290 hc        1 D1J      0.059700
     28 H29        -2.3150    0.5900    6.1130 hc        1 D1J      0.059700
     29 H1'        -1.7510    0.3220   -1.0730 h2        1 D1J      0.071700
     30 H110       -0.1900   -0.3980    7.0540 hc        1 D1J      0.052700
     31 H210       -0.7470   -2.0490    6.5790 hc        1 D1J      0.052700
     32 H111       -1.2440   -1.5860    8.9810 hc        1 D1J      0.034367
     33 H211       -2.2220   -0.1320    8.5210 hc        1 D1J      0.034367
     34 H311       -2.7820   -1.7860    8.0440 hc        1 D1J      0.034367
     35 H2'         0.8050    1.5400   -2.4400 h1        1 D1J      0.106700
     36 HO2'       -0.4980    3.4000   -2.1130 ho        1 D1J      0.429000
     37 H3'        -2.1790    1.4180   -3.3710 h1        1 D1J      0.062700
     38 HO3'       -1.2580    2.4350   -5.1330 ho        1 D1J      0.412000
     39 H4'         0.3520   -0.0630   -4.4500 h1        1 D1J      0.075700
     40 HO4'       -1.0830    0.2400   -6.0770 ho        1 D1J      0.411000
     41 H5'        -2.1990   -1.1150   -2.9750 h1        1 D1J      0.068700
     42 H16'        0.4290   -2.5500   -3.8590 h1        1 D1J      0.067200
     43 H26'       -1.1980   -2.6790   -4.7190 h1        1 D1J      0.067200
     44 HO6'       -0.6850   -3.4200   -2.0380 ho        1 D1J      0.412000
@<TRIPOS>BOND
     1    1    2 1   
     2    1    8 1   
     3    1   12 1   
     4    2    3 2   
     5    2    4 1   
     6    4    5 1   
     7    4   25 1   
     8    5    6 2   
     9    5    7 1   
    10    7    8 2   
    11    7    9 1   
    12    8   26 1   
    13    9   10 3   
    14   10   11 1   
    15   11   13 1   
    16   11   27 1   
    17   11   28 1   
    18   12   15 1   
    19   12   22 1   
    20   12   29 1   
    21   13   14 1   
    22   13   30 1   
    23   13   31 1   
    24   14   32 1   
    25   14   33 1   
    26   14   34 1   
    27   15   16 1   
    28   15   17 1   
    29   15   35 1   
    30   16   36 1   
    31   17   18 1   
    32   17   19 1   
    33   17   37 1   
    34   18   38 1   
    35   19   20 1   
    36   19   21 1   
    37   19   39 1   
    38   20   40 1   
    39   21   22 1   
    40   21   23 1   
    41   21   41 1   
    42   23   24 1   
    43   23   42 1   
    44   23   43 1   
    45   24   44 1   
@<TRIPOS>SUBSTRUCTURE
     1 D1J         1 TEMP              0 ****  ****    0 ROOT
