@<TRIPOS>MOLECULE
D1J
   44    45     1     0     0
SMALL
bcc


@<TRIPOS>ATOM
      1 N1         -0.0390    0.3620   -0.0750 n         1 D1J     -0.357000
      2 C2          1.3860    0.3830   -0.0170 c         1 D1J      0.819500
      3 O2          2.0840    0.5120   -1.0430 o         1 D1J     -0.632500
      4 N3          1.9950    0.2800    1.2410 n         1 D1J     -0.588500
      5 C4          1.2850    0.1380    2.4480 c         1 D1J      0.724700
      6 O4          1.9320    0.0500    3.5020 o         1 D1J     -0.590500
      7 C5         -0.1890    0.1060    2.3250 cc        1 D1J     -0.094900
      8 C6         -0.7720    0.1990    1.0890 cd        1 D1J      0.067600
      9 C7         -0.9550   -0.0190    3.4880 cg        1 D1J     -0.159300
     10 C8         -1.5980   -0.1270    4.4940 c1        1 D1J     -0.085100
     11 C9         -2.3550   -0.2700    5.7000 c3        1 D1J     -0.005300
     12 C1'        -0.7170    0.3050   -1.3600 c3        1 D1J      0.330500
     13 C10        -3.3130    0.8890    5.9240 c3        1 D1J     -0.077400
     14 C11        -4.0880    0.7070    7.2030 c3        1 D1J     -0.095100
     15 C2'        -0.3900    1.5010   -2.2990 c3        1 D1J      0.112100
     16 O2'        -0.9340    2.6540   -1.6830 oh        1 D1J     -0.596800
     17 C3'        -1.0770    1.2640   -3.6540 c3        1 D1J      0.072100
     18 O3'        -0.6650    2.3260   -4.5000 oh        1 D1J     -0.598800
     19 C4'        -0.6380   -0.0910   -4.2280 c3        1 D1J      0.082100
     20 O4'        -1.3580   -0.3610   -5.4190 oh        1 D1J     -0.592800
     21 C5'        -0.9850   -1.1900   -3.2140 c3        1 D1J      0.110100
     22 O5'        -0.3220   -0.9340   -1.9750 os        1 D1J     -0.432600
     23 C6'        -0.4670   -2.5560   -3.6780 c3        1 D1J      0.140400
     24 O6'        -0.9050   -3.5830   -2.8180 oh        1 D1J     -0.591800
     25 HN3         2.9930    0.3080    1.2600 hn        1 D1J      0.354500
     26 H6         -1.8730    0.1710    0.9730 h4        1 D1J      0.173000
     27 H19        -1.6450   -0.3420    6.5720 hc        1 D1J      0.065200
     28 H29        -2.9360   -1.2340    5.6630 hc        1 D1J      0.065200
     29 H1'        -1.8350    0.2890   -1.1770 h2        1 D1J      0.071700
     30 H110       -4.0220    0.9620    5.0580 hc        1 D1J      0.047200
     31 H210       -2.7360    1.8500    5.9630 hc        1 D1J      0.047200
     32 H111       -3.3980    0.6560    8.0800 hc        1 D1J      0.035700
     33 H211       -4.7880    1.5640    7.3550 hc        1 D1J      0.035700
     34 H311       -4.6870   -0.2360    7.1730 hc        1 D1J      0.035700
     35 H2'         0.7200    1.6090   -2.4470 h1        1 D1J      0.106700
     36 HO2'       -0.7020    3.3990   -2.2550 ho        1 D1J      0.429000
     37 H3'        -2.1960    1.2840   -3.5320 h1        1 D1J      0.062700
     38 HO3'       -1.2360    2.2960   -5.2770 ho        1 D1J      0.412000
     39 H4'         0.4700   -0.0810   -4.4200 h1        1 D1J      0.075700
     40 HO4'       -0.8860    0.0860   -6.1330 ho        1 D1J      0.411000
     41 H5'        -2.0960   -1.2320   -3.0490 h1        1 D1J      0.068700
     42 H16'       -0.9140   -2.7900   -4.6810 h1        1 D1J      0.067200
     43 H26'        0.6530   -2.5400   -3.7400 h1        1 D1J      0.067200
     44 HO6'       -0.5110   -3.4140   -1.9520 ho        1 D1J      0.412000
@<TRIPOS>BOND
     1    1    2 1   
     2    1    8 1   
     3    1   12 1   
     4    2    3 2   
     5    2    4 1   
     6    4    5 1   
     7    4   25 1   
     8    5    6 2   
     9    5    7 1   
    10    7    8 2   
    11    7    9 1   
    12    8   26 1   
    13    9   10 3   
    14   10   11 1   
    15   11   13 1   
    16   11   27 1   
    17   11   28 1   
    18   12   15 1   
    19   12   22 1   
    20   12   29 1   
    21   13   14 1   
    22   13   30 1   
    23   13   31 1   
    24   14   32 1   
    25   14   33 1   
    26   14   34 1   
    27   15   16 1   
    28   15   17 1   
    29   15   35 1   
    30   16   36 1   
    31   17   18 1   
    32   17   19 1   
    33   17   37 1   
    34   18   38 1   
    35   19   20 1   
    36   19   21 1   
    37   19   39 1   
    38   20   40 1   
    39   21   22 1   
    40   21   23 1   
    41   21   41 1   
    42   23   24 1   
    43   23   42 1   
    44   23   43 1   
    45   24   44 1   
@<TRIPOS>SUBSTRUCTURE
     1 D1J         1 TEMP              0 ****  ****    0 ROOT
