@<TRIPOS>MOLECULE
D1K
   44    46     1     0     0
SMALL
bcc


@<TRIPOS>ATOM
      1 N1         -0.0250    0.7420   -0.0620 n         1 D1K     -0.360000
      2 C2          1.1480    1.5700    0.1410 c         1 D1K      0.833900
      3 O2          1.5120    2.3220   -0.7840 o         1 D1K     -0.624500
      4 N3          1.8470    1.5720    1.3780 nc        1 D1K     -0.327400
      5 C4          1.3480    0.7810    2.3050 cd        1 D1K      0.373700
      6 C5          0.1680   -0.0860    2.1650 cd        1 D1K     -0.303300
      7 O5          1.8770    0.6330    3.5890 os        1 D1K     -0.367800
      8 C6         -0.4630   -0.0920    0.9520 cc        1 D1K      0.091600
      9 C7          0.0200   -0.7540    3.4440 cd        1 D1K     -0.225300
     10 C8          1.0320   -0.3120    4.2500 cc        1 D1K      0.301000
     11 C9          1.4410   -0.5900    5.6370 c3        1 D1K     -0.125700
     12 C1'        -0.6570    0.5400   -1.3610 c3        1 D1K      0.277500
     13 C10         0.5190   -1.5860    6.3110 c3        1 D1K     -0.078400
     14 C11         0.9590   -1.8530    7.7270 c3        1 D1K     -0.095100
     15 C2'        -0.3760    1.5860   -2.4700 c3        1 D1K      0.101100
     16 O2'        -0.8580    2.8580   -2.0950 oh        1 D1K     -0.609800
     17 C3'        -1.1900    1.1740   -3.7120 c3        1 D1K      0.101100
     18 O3'        -0.9010    2.0270   -4.8050 oh        1 D1K     -0.603800
     19 C4'        -0.7910   -0.2460   -4.1450 c3        1 D1K      0.121100
     20 O4'        -1.6430   -0.7080   -5.1780 oh        1 D1K     -0.595800
     21 C5'        -0.9590   -1.2100   -2.9620 c3        1 D1K      0.107100
     22 O5'        -0.2150   -0.7520   -1.8300 os        1 D1K     -0.448600
     23 C6'        -0.3850   -2.5910   -3.2990 c3        1 D1K      0.139400
     24 O6'        -0.6110   -3.5040   -2.2500 oh        1 D1K     -0.593800
     25 H6         -1.3290   -0.7440    0.7330 h4        1 D1K      0.172000
     26 H7         -0.7590   -1.4710    3.6940 ha        1 D1K      0.172000
     27 H9          2.4960   -0.9820    5.6340 hc        1 D1K      0.074700
     28 H9A         1.4520    0.3760    6.2140 hc        1 D1K      0.074700
     29 H1'        -1.7790    0.5030   -1.1840 h2        1 D1K      0.065700
     30 H10        -0.5300   -1.1890    6.3070 hc        1 D1K      0.046200
     31 H10A        0.5130   -2.5450    5.7280 hc        1 D1K      0.046200
     32 H11         0.2710   -2.5890    8.2100 hc        1 D1K      0.039033
     33 H11A        0.9480   -0.9120    8.3280 hc        1 D1K      0.039033
     34 H11B        1.9940   -2.2720    7.7480 hc        1 D1K      0.039033
     35 H2'         0.7190    1.6110   -2.7240 h1        1 D1K      0.102700
     36 HO2'       -0.1460    3.3120   -1.6190 ho        1 D1K      0.443000
     37 H3'        -2.2920    1.2200   -3.4850 h1        1 D1K      0.061700
     38 HO3'       -1.0400    2.9320   -4.4940 ho        1 D1K      0.430000
     39 H4'         0.2760   -0.2420   -4.5020 h1        1 D1K      0.067700
     40 HO4'       -1.6050   -0.0430   -5.8790 ho        1 D1K      0.428000
     41 H5'        -2.0460   -1.2990   -2.6870 h1        1 D1K      0.068700
     42 H6'        -0.9370   -3.0030   -4.1860 h1        1 D1K      0.068200
     43 H6'A        0.7110   -2.5060   -3.5240 h1        1 D1K      0.068200
     44 HO6'       -0.1120   -3.1860   -1.4860 ho        1 D1K      0.408000
@<TRIPOS>BOND
     1    1    2 1   
     2    1    8 1   
     3    1   12 1   
     4    2    3 2   
     5    2    4 1   
     6    4    5 2   
     7    5    6 1   
     8    5    7 1   
     9    6    8 2   
    10    6    9 1   
    11    7   10 1   
    12    8   25 1   
    13    9   10 2   
    14    9   26 1   
    15   10   11 1   
    16   11   13 1   
    17   11   27 1   
    18   11   28 1   
    19   12   15 1   
    20   12   22 1   
    21   12   29 1   
    22   13   14 1   
    23   13   30 1   
    24   13   31 1   
    25   14   32 1   
    26   14   33 1   
    27   14   34 1   
    28   15   16 1   
    29   15   17 1   
    30   15   35 1   
    31   16   36 1   
    32   17   18 1   
    33   17   19 1   
    34   17   37 1   
    35   18   38 1   
    36   19   20 1   
    37   19   21 1   
    38   19   39 1   
    39   20   40 1   
    40   21   22 1   
    41   21   23 1   
    42   21   41 1   
    43   23   24 1   
    44   23   42 1   
    45   23   43 1   
    46   24   44 1   
@<TRIPOS>SUBSTRUCTURE
     1 D1K         1 TEMP              0 ****  ****    0 ROOT
