@<TRIPOS>MOLECULE
D1K
   44    45     1     0     0
SMALL
bcc


@<TRIPOS>ATOM
      1 N1          0.0140    0.1470   -0.6010 n         1 D1K     -0.255000
      2 C2          1.5390   -0.1530   -0.6290 c2        1 D1K      0.349000
      3 O2          2.1960    0.0700   -1.6590 o         1 D1K     -0.314000
      4 N3          2.2410   -0.3470    0.6850 n2        1 D1K     -0.191000
      5 C4          1.4760   -0.1660    1.8420 c1        1 D1K      0.178000
      6 C5          0.1090    0.2550    1.8440 c1        1 D1K     -0.249000
      7 O5          1.9370   -0.3270    3.3390 os        1 D1K     -0.110000
      8 C6         -0.6830    0.1970    0.7560 c2        1 D1K      0.098000
      9 C7         -0.3100    0.2800    3.2050 c2        1 D1K     -0.156000
     10 C8          0.7170   -0.0750    4.0570 c2        1 D1K      0.005000
     11 C9          0.7700    0.5050    5.4710 c3        1 D1K     -0.106000
     12 C1'        -0.7330    0.0460   -1.7560 c3        1 D1K      0.172000
     13 C10         1.3410   -0.5590    6.4450 c3        1 D1K     -0.158000
     14 C11         1.3180   -0.0140    7.8800 c3        1 D1K     -0.212000
     15 C2'        -0.7070    1.3750   -2.4740 c3        1 D1K      0.001000
     16 O2'        -1.4140    2.3430   -1.6800 oh        1 D1K     -0.328000
     17 C3'        -1.3390    1.3020   -3.8180 c3        1 D1K     -0.037000
     18 O3'        -1.1050    2.5580   -4.5160 oh        1 D1K     -0.326000
     19 C4'        -0.7870    0.1840   -4.6440 c3        1 D1K     -0.030000
     20 O4'        -1.5810    0.0610   -5.8530 oh        1 D1K     -0.321000
     21 C5'        -0.8110   -1.1360   -3.9160 c3        1 D1K     -0.002000
     22 O5'        -0.1890   -1.0580   -2.5850 os        1 D1K     -0.279000
     23 C6'        -0.0650   -2.1630   -4.7410 c3        1 D1K     -0.010000
     24 O6'        -0.3560   -3.4540   -4.2600 oh        1 D1K     -0.321000
     25 H6         -1.5760   -0.0990    0.8390 h4        1 D1K      0.167000
     26 H7         -1.2410    0.0610    3.4360 ha        1 D1K      0.168000
     27 H9         -0.1400    0.7570    5.7560 hc        1 D1K      0.106500
     28 H9A         1.3320    1.2760    5.4770 hc        1 D1K      0.106500
     29 H1'        -1.6540   -0.1650   -1.5180 h2        1 D1K      0.103000
     30 H10         0.8120   -1.3450    6.3980 hc        1 D1K      0.092000
     31 H10A        2.2480   -0.7670    6.1950 hc        1 D1K      0.092000
     32 H11         1.8870    0.7750    7.9380 hc        1 D1K      0.076333
     33 H11A        1.6440   -0.6910    8.4870 hc        1 D1K      0.076333
     34 H11B        0.4220    0.2210    8.1180 hc        1 D1K      0.076333
     35 H2'         0.2440    1.6720   -2.5760 h1        1 D1K      0.147000
     36 HO2'       -1.0510    3.2220   -1.8430 ho        1 D1K      0.228000
     37 H3'        -2.3240    1.1710   -3.7080 h1        1 D1K      0.100000
     38 HO3'       -1.8840    2.8400   -4.9090 ho        1 D1K      0.211000
     39 H4'         0.1400    0.3950   -4.8910 h1        1 D1K      0.118000
     40 HO4'       -1.1250    0.3990   -6.5480 ho        1 D1K      0.209000
     41 H5'        -1.7350   -1.4230   -3.8160 h1        1 D1K      0.106000
     42 H6'         0.8910   -2.0010   -4.6710 h1        1 D1K      0.106500
     43 H6'A       -0.3370   -2.0940   -5.6620 h1        1 D1K      0.106500
     44 HO6'       -0.1320   -4.0730   -4.8920 ho        1 D1K      0.212000
@<TRIPOS>BOND
     1    1    2 1   
     2    1    8 1   
     3    1   12 1   
     4    2    3 1   
     5    2    4 1   
     6    4    5 1   
     7    5    7 1   
     8    6    8 1   
     9    6    9 1   
    10    7   10 1   
    11    8   25 1   
    12    9   10 1   
    13    9   26 1   
    14   10   11 1   
    15   11   13 1   
    16   11   27 1   
    17   11   28 1   
    18   12   15 1   
    19   12   22 1   
    20   12   29 1   
    21   13   14 1   
    22   13   30 1   
    23   13   31 1   
    24   14   32 1   
    25   14   33 1   
    26   14   34 1   
    27   15   16 1   
    28   15   17 1   
    29   15   35 1   
    30   16   36 1   
    31   17   18 1   
    32   17   19 1   
    33   17   37 1   
    34   18   38 1   
    35   19   20 1   
    36   19   21 1   
    37   19   39 1   
    38   20   40 1   
    39   21   22 1   
    40   21   23 1   
    41   21   41 1   
    42   23   24 1   
    43   23   42 1   
    44   23   43 1   
    45   24   44 1   
@<TRIPOS>SUBSTRUCTURE
     1 D1K         1 TEMP              0 ****  ****    0 ROOT
