@<TRIPOS>MOLECULE
D1K
   44    46     1     0     0
SMALL
bcc


@<TRIPOS>ATOM
      1 N1         -0.1000   -0.3770   -0.1520 n         1 D1K     -0.362000
      2 C2          0.2620   -0.2900    1.2550 c         1 D1K      0.830900
      3 O2         -0.6580   -0.2880    2.0910 o         1 D1K     -0.589500
      4 N3          1.6250   -0.2260    1.6540 nc        1 D1K     -0.330400
      5 C4          2.4970   -0.2570    0.6680 cd        1 D1K      0.372700
      6 C5          2.1900   -0.3430   -0.7690 cd        1 D1K     -0.314300
      7 O5          3.8840   -0.2080    0.8380 os        1 D1K     -0.368800
      8 C6          0.8710   -0.3880   -1.1290 cc        1 D1K      0.100600
      9 C7          3.4740   -0.3470   -1.4430 cd        1 D1K     -0.221300
     10 C8          4.4380   -0.2670   -0.4770 cc        1 D1K      0.294000
     11 C9          5.9100   -0.2430   -0.5150 c3        1 D1K     -0.121700
     12 C1'        -1.4990   -0.3550   -0.5560 c3        1 D1K      0.320500
     13 C10         6.4630    1.1320   -0.1850 c3        1 D1K     -0.079400
     14 C11         7.9700    1.1250   -0.1960 c3        1 D1K     -0.094100
     15 C2'        -2.3360   -1.5310    0.0240 c3        1 D1K      0.112100
     16 O2'        -1.8400   -2.7090   -0.5860 oh        1 D1K     -0.600800
     17 C3'        -3.8090   -1.3270   -0.3620 c3        1 D1K      0.074100
     18 O3'        -4.5350   -2.3670    0.2750 oh        1 D1K     -0.598800
     19 C4'        -4.2840    0.0500    0.1240 c3        1 D1K      0.081100
     20 O4'        -5.6090    0.2810   -0.3270 oh        1 D1K     -0.593800
     21 C5'        -3.3830    1.1250   -0.4970 c3        1 D1K      0.109100
     22 O5'        -2.0260    0.9070   -0.1110 os        1 D1K     -0.422600
     23 C6'        -3.7360    2.5190    0.0340 c3        1 D1K      0.140400
     24 O6'        -2.9870    3.5160   -0.6230 oh        1 D1K     -0.593800
     25 H6          0.5440   -0.4460   -2.1840 h4        1 D1K      0.167000
     26 H7          3.6180   -0.4060   -2.5190 ha        1 D1K      0.168000
     27 H9          6.3080   -0.9920    0.2240 hc        1 D1K      0.067200
     28 H9A         6.2460   -0.5560   -1.5400 hc        1 D1K      0.067200
     29 H1'        -1.5590   -0.3990   -1.6870 h2        1 D1K      0.063700
     30 H10         6.0810    1.8790   -0.9290 hc        1 D1K      0.052700
     31 H10A        6.0890    1.4450    0.8260 hc        1 D1K      0.052700
     32 H11         8.3680    0.4080    0.5620 hc        1 D1K      0.037033
     33 H11A        8.3570    0.8250   -1.2000 hc        1 D1K      0.037033
     34 H11B        8.3600    2.1440    0.0430 hc        1 D1K      0.037033
     35 H2'        -2.2360   -1.5850    1.1440 h1        1 D1K      0.107700
     36 HO2'       -2.3350   -3.4420   -0.1950 ho        1 D1K      0.429000
     37 H3'        -3.9340   -1.4050   -1.4780 h1        1 D1K      0.060700
     38 HO3'       -5.4280   -2.3400   -0.0900 ho        1 D1K      0.412000
     39 H4'        -4.2230    0.0990    1.2460 h1        1 D1K      0.078700
     40 HO4'       -6.1960   -0.1010    0.3380 ho        1 D1K      0.410000
     41 H5'        -3.4670    1.1040   -1.6190 h1        1 D1K      0.066700
     42 H6'        -4.8110    2.7370   -0.2090 h1        1 D1K      0.067200
     43 H6'A       -3.5670    2.5600    1.1420 h1        1 D1K      0.067200
     44 HO6'       -2.0590    3.3650   -0.3990 ho        1 D1K      0.413000
@<TRIPOS>BOND
     1    1    2 1   
     2    1    8 1   
     3    1   12 1   
     4    2    3 2   
     5    2    4 1   
     6    4    5 2   
     7    5    6 1   
     8    5    7 1   
     9    6    8 2   
    10    6    9 1   
    11    7   10 1   
    12    8   25 1   
    13    9   10 2   
    14    9   26 1   
    15   10   11 1   
    16   11   13 1   
    17   11   27 1   
    18   11   28 1   
    19   12   15 1   
    20   12   22 1   
    21   12   29 1   
    22   13   14 1   
    23   13   30 1   
    24   13   31 1   
    25   14   32 1   
    26   14   33 1   
    27   14   34 1   
    28   15   16 1   
    29   15   17 1   
    30   15   35 1   
    31   16   36 1   
    32   17   18 1   
    33   17   19 1   
    34   17   37 1   
    35   18   38 1   
    36   19   20 1   
    37   19   21 1   
    38   19   39 1   
    39   20   40 1   
    40   21   22 1   
    41   21   23 1   
    42   21   41 1   
    43   23   24 1   
    44   23   42 1   
    45   23   43 1   
    46   24   44 1   
@<TRIPOS>SUBSTRUCTURE
     1 D1K         1 TEMP              0 ****  ****    0 ROOT
