@<TRIPOS>MOLECULE
D1K
   44    46     1     0     0
SMALL
bcc


@<TRIPOS>ATOM
      1 N1         -0.0130    0.7400   -0.0680 n         1 D1K     -0.360000
      2 C2          1.1680    1.5570    0.1380 c         1 D1K      0.833900
      3 O2          1.5450    2.3000   -0.7890 o         1 D1K     -0.624500
      4 N3          1.8600    1.5580    1.3790 nc        1 D1K     -0.327400
      5 C4          1.3480    0.7780    2.3080 cd        1 D1K      0.373700
      6 C5          0.1590   -0.0780    2.1650 cd        1 D1K     -0.303300
      7 O5          1.8680    0.6310    3.5950 os        1 D1K     -0.367800
      8 C6         -0.4640   -0.0850    0.9490 cc        1 D1K      0.091600
      9 C7         -0.0020   -0.7380    3.4470 cd        1 D1K     -0.225300
     10 C8          1.0090   -0.3010    4.2570 cc        1 D1K      0.301000
     11 C9          1.4070   -0.5750    5.6470 c3        1 D1K     -0.125700
     12 C1'        -0.6390    0.5380   -1.3680 c3        1 D1K      0.277500
     13 C10         0.4740   -1.5630    6.3190 c3        1 D1K     -0.078400
     14 C11         0.9030   -1.8260    7.7400 c3        1 D1K     -0.095100
     15 C2'        -0.3410    1.5740   -2.4820 c3        1 D1K      0.101100
     16 O2'        -0.8110    2.8530   -2.1160 oh        1 D1K     -0.609800
     17 C3'        -1.1520    1.1640   -3.7260 c3        1 D1K      0.101100
     18 O3'        -0.8480    2.0070   -4.8220 oh        1 D1K     -0.603800
     19 C4'        -0.7650   -0.2620   -4.1490 c3        1 D1K      0.121100
     20 O4'        -1.6150   -0.7220   -5.1840 oh        1 D1K     -0.595800
     21 C5'        -0.9490   -1.2190   -2.9620 c3        1 D1K      0.107100
     22 O5'        -0.2070   -0.7620   -1.8290 os        1 D1K     -0.448600
     23 C6'        -0.3880   -2.6070   -3.2880 c3        1 D1K      0.139400
     24 O6'        -0.6290   -3.5120   -2.2350 oh        1 D1K     -0.593800
     25 H6         -1.3360   -0.7290    0.7280 h4        1 D1K      0.172000
     26 H7         -0.7900   -1.4450    3.6960 ha        1 D1K      0.172000
     27 H9          2.4590   -0.9750    5.6530 hc        1 D1K      0.074700
     28 H9A         1.4210    0.3930    6.2200 hc        1 D1K      0.074700
     29 H1'        -1.7620    0.5120   -1.1980 h2        1 D1K      0.065700
     30 H10         0.4650   -2.5240    5.7410 hc        1 D1K      0.046200
     31 H10A       -0.5720   -1.1580    6.3080 hc        1 D1K      0.046200
     32 H11         0.2070   -2.5540    8.2220 hc        1 D1K      0.039033
     33 H11A        0.8950   -0.8820    8.3370 hc        1 D1K      0.039033
     34 H11B        1.9350   -2.2520    7.7690 hc        1 D1K      0.039033
     35 H2'         0.7560    1.5870   -2.7300 h1        1 D1K      0.102700
     36 HO2'       -0.0980    3.3020   -1.6390 ho        1 D1K      0.443000
     37 H3'        -2.2550    1.2220   -3.5050 h1        1 D1K      0.061700
     38 HO3'       -0.9790    2.9160   -4.5170 ho        1 D1K      0.430000
     39 H4'         0.3040   -0.2720   -4.5000 h1        1 D1K      0.067700
     40 HO4'       -1.5670   -0.0610   -5.8890 ho        1 D1K      0.428000
     41 H5'        -2.0390   -1.2950   -2.6920 h1        1 D1K      0.068700
     42 H6'        -0.9390   -3.0190   -4.1760 h1        1 D1K      0.068200
     43 H6'A        0.7100   -2.5350   -3.5070 h1        1 D1K      0.068200
     44 HO6'       -0.1310   -3.1950   -1.4710 ho        1 D1K      0.408000
@<TRIPOS>BOND
     1    1    2 1   
     2    1    8 1   
     3    1   12 1   
     4    2    3 2   
     5    2    4 1   
     6    4    5 2   
     7    5    6 1   
     8    5    7 1   
     9    6    8 2   
    10    6    9 1   
    11    7   10 1   
    12    8   25 1   
    13    9   10 2   
    14    9   26 1   
    15   10   11 1   
    16   11   13 1   
    17   11   27 1   
    18   11   28 1   
    19   12   15 1   
    20   12   22 1   
    21   12   29 1   
    22   13   14 1   
    23   13   30 1   
    24   13   31 1   
    25   14   32 1   
    26   14   33 1   
    27   14   34 1   
    28   15   16 1   
    29   15   17 1   
    30   15   35 1   
    31   16   36 1   
    32   17   18 1   
    33   17   19 1   
    34   17   37 1   
    35   18   38 1   
    36   19   20 1   
    37   19   21 1   
    38   19   39 1   
    39   20   40 1   
    40   21   22 1   
    41   21   23 1   
    42   21   41 1   
    43   23   24 1   
    44   23   42 1   
    45   23   43 1   
    46   24   44 1   
@<TRIPOS>SUBSTRUCTURE
     1 D1K         1 TEMP              0 ****  ****    0 ROOT
