@<TRIPOS>MOLECULE
D1L
   32    33     1     0     0
SMALL
bcc


@<TRIPOS>ATOM
      1 O1A         2.9580   -0.4310   -1.2680 o         1 D1L     -0.819800
      2 C1          2.3830    0.2790   -0.4050 c         1 D1L      0.902600
      3 O1B         2.1310    1.5130   -0.5230 o         1 D1L     -0.819800
      4 C2          1.8820   -0.3950    0.9080 c3        1 D1L      0.007100
      5 C2A         1.1740   -1.6980    0.6020 c3        1 D1L     -0.082100
      6 O2          2.9720   -0.7720    1.7860 os        1 D1L     -0.321900
      7 C3          3.5410    0.2150    2.5390 ca        1 D1L      0.177100
      8 C4          4.3600   -0.2460    3.5940 ca        1 D1L     -0.192000
      9 C5          4.9810    0.6660    4.4370 ca        1 D1L     -0.099500
     10 C6          3.3710    1.5950    2.3210 ca        1 D1L     -0.192000
     11 C7          3.9940    2.5050    3.1670 ca        1 D1L     -0.099500
     12 C8          4.7860    2.0360    4.2230 ca        1 D1L     -0.016900
     13 O8          5.5160    2.9490    4.9990 os        1 D1L     -0.229200
     14 C9          4.8730    3.4470    6.1130 ca        1 D1L      0.153100
     15 C10         3.5350    3.1540    6.4270 ca        1 D1L     -0.179000
     16 C11         2.9460    3.6970    7.5620 ca        1 D1L     -0.090000
     17 C12         3.6910    4.5400    8.3930 ca        1 D1L     -0.023600
     18 Cl12        2.9710    5.2060    9.7860 cl        1 D1L     -0.113400
     19 C13         5.0200    4.8430    8.0950 ca        1 D1L     -0.099000
     20 C14         5.6190    4.2980    6.9560 ca        1 D1L     -0.018600
     21 Cl14        7.2400    4.6920    6.6310 cl        1 D1L     -0.079400
     22 H2          1.2050    0.3100    1.4610 h1        1 D1L      0.031700
     23 H2A1        0.2450   -1.4720    0.0260 hc        1 D1L      0.035700
     24 H2A2        0.9080   -2.2430    1.5380 hc        1 D1L      0.035700
     25 H2A3        1.8390   -2.3420   -0.0240 hc        1 D1L      0.035700
     26 H4          4.5030   -1.3260    3.7290 ha        1 D1L      0.178500
     27 H5          5.6250    0.3240    5.2580 ha        1 D1L      0.135500
     28 H6          2.7770    1.9480    1.4530 ha        1 D1L      0.178500
     29 H7          3.8810    3.5860    3.0020 ha        1 D1L      0.135500
     30 H10         2.9580    2.4920    5.7620 ha        1 D1L      0.169000
     31 H11         1.8970    3.4640    7.8000 ha        1 D1L      0.146000
     32 H13         5.5990    5.5090    8.7540 ha        1 D1L      0.152000
@<TRIPOS>BOND
     1    1    2 1   
     2    2    3 1   
     3    2    4 1   
     4    4    5 1   
     5    4    6 1   
     6    4   22 1   
     7    5   23 1   
     8    5   24 1   
     9    5   25 1   
    10    6    7 1   
    11    7    8 ar  
    12    7   10 ar  
    13    8    9 ar  
    14    8   26 1   
    15    9   12 ar  
    16    9   27 1   
    17   10   11 ar  
    18   10   28 1   
    19   11   12 ar  
    20   11   29 1   
    21   12   13 1   
    22   13   14 1   
    23   14   15 ar  
    24   14   20 ar  
    25   15   16 ar  
    26   15   30 1   
    27   16   17 ar  
    28   16   31 1   
    29   17   18 1   
    30   17   19 ar  
    31   19   20 ar  
    32   19   32 1   
    33   20   21 1   
@<TRIPOS>SUBSTRUCTURE
     1 D1L         1 TEMP              0 ****  ****    0 ROOT
