@<TRIPOS>MOLECULE
D1L
   32    29     1     0     0
SMALL
bcc


@<TRIPOS>ATOM
      1 O1A        -1.6810   -4.9500   -1.2510 o         1 D1L     -0.554500
      2 C1         -0.8350   -4.1520   -1.7340 c2        1 D1L      0.322000
      3 O1B         0.3360   -4.5470   -1.9750 o         1 D1L     -0.554500
      4 C2         -1.2210   -2.7170   -2.0100 c3        1 D1L     -0.054000
      5 C2A        -1.8720   -2.6230   -3.3730 c3        1 D1L     -0.200000
      6 O2         -2.1260   -2.2770   -1.0280 os        1 D1L     -0.205000
      7 C3         -1.6200   -1.2560   -0.2050 c2        1 D1L      0.132000
      8 C4         -0.8770   -1.5780    0.9200 c2        1 D1L     -0.196000
      9 C5         -0.4280   -0.5750    1.7650 c1        1 D1L     -0.095000
     10 C6         -1.9150    0.0690   -0.4840 c1        1 D1L     -0.188000
     11 C7         -1.4660    1.0720    0.3600 c1        1 D1L     -0.104000
     12 C8         -0.7230    0.7500    1.4850 c1        1 D1L     -0.062000
     13 O8         -0.3010    1.7640    2.3630 os        1 D1L     -0.139000
     14 C9          0.9390    2.2690    1.9330 c2        1 D1L      0.108000
     15 C10         2.1000    1.5500    2.1690 c2        1 D1L     -0.179000
     16 C11         3.3220    2.0480    1.7450 c1        1 D1L     -0.090000
     17 C12         3.3830    3.2660    1.0870 c1        1 D1L     -0.102000
     18 CL12        4.9130    3.8640    0.5000 cl        1 D1L     -0.035000
     19 C13         2.2220    3.9860    0.8510 c1        1 D1L     -0.099000
     20 C14         1.0000    3.4870    1.2750 c1        1 D1L     -0.097000
     21 CL14       -0.4520    4.4210    1.0320 cl        1 D1L     -0.001000
     22 H2         -0.4210   -2.1550   -1.9920 h1        1 D1L      0.071000
     23 H2A1       -2.7860   -2.2830   -3.2750 hc        1 D1L      0.075000
     24 H2A2       -1.8960   -3.5120   -3.7850 hc        1 D1L      0.075000
     25 H2A3       -1.3550   -2.0140   -3.9400 hc        1 D1L      0.075000
     26 H4         -0.6690   -2.5120    1.1170 ha        1 D1L      0.216000
     27 H5          0.0950   -0.8020    2.5570 ha        1 D1L      0.140000
     28 H6         -2.4380    0.2960   -1.2760 ha        1 D1L      0.141000
     29 H7         -1.6990    2.0030    0.1800 ha        1 D1L      0.131000
     30 H10         2.0600    0.7070    2.6590 ha        1 D1L      0.169000
     31 H11         4.1410    1.5470    1.9210 ha        1 D1L      0.146000
     32 H13         2.2680    4.8560    0.4100 ha        1 D1L      0.152000
@<TRIPOS>BOND
     1    1    2 1   
     2    2    3 1   
     3    2    4 1   
     4    4    5 1   
     5    4    6 1   
     6    4   22 1   
     7    5   23 1   
     8    5   24 1   
     9    5   25 1   
    10    6    7 1   
    11    7    8 1   
    12    7   10 1   
    13    8    9 1   
    14    8   26 1   
    15    9   27 1   
    16   10   28 1   
    17   11   12 1   
    18   11   29 1   
    19   12   13 1   
    20   13   14 1   
    21   14   15 1   
    22   14   20 1   
    23   15   16 1   
    24   15   30 1   
    25   16   31 1   
    26   17   18 1   
    27   17   19 1   
    28   19   32 1   
    29   20   21 1   
@<TRIPOS>SUBSTRUCTURE
     1 D1L         1 TEMP              0 ****  ****    0 ROOT
