@<TRIPOS>MOLECULE
D1L
   32    33     1     0     0
SMALL
bcc


@<TRIPOS>ATOM
      1 O1A        -0.9040    0.4600    6.2300 o         1 D1L     -0.819800
      2 C1         -0.1190    0.7690    5.2990 c         1 D1L      0.902600
      3 O1B         0.0720    1.9410    4.8620 o         1 D1L     -0.819800
      4 C2          0.7400   -0.3510    4.6400 c3        1 D1L      0.007100
      5 C2A         1.3530   -1.2460    5.6970 c3        1 D1L     -0.082100
      6 O2         -0.0520   -1.2470    3.8210 os        1 D1L     -0.321900
      7 C3         -0.4010   -0.8140    2.5740 ca        1 D1L      0.177100
      8 C4         -0.8830   -1.8240    1.7110 ca        1 D1L     -0.192000
      9 C5         -1.2540   -1.5060    0.4120 ca        1 D1L     -0.099500
     10 C6         -0.3180    0.5200    2.1300 ca        1 D1L     -0.192000
     11 C7         -0.6910    0.8340    0.8290 ca        1 D1L     -0.099500
     12 C8         -1.1460   -0.1790   -0.0230 ca        1 D1L     -0.016900
     13 O8         -1.6420    0.1540   -1.2930 os        1 D1L     -0.229200
     14 C9         -0.7170    0.1750   -2.3170 ca        1 D1L      0.153100
     15 C10         0.6590   -0.0240   -2.1180 ca        1 D1L     -0.179000
     16 C11         1.5370    0.0190   -3.1940 ca        1 D1L     -0.090000
     17 C12         1.0440    0.2620   -4.4800 ca        1 D1L     -0.023600
     18 CL12        2.1180    0.3150   -5.8020 cl        1 D1L     -0.113400
     19 C13        -0.3200    0.4640   -4.6950 ca        1 D1L     -0.099000
     20 C14        -1.2080    0.4210   -3.6180 ca        1 D1L     -0.018600
     21 CL14       -2.8610    0.6700   -3.9250 cl        1 D1L     -0.079400
     22 H2          1.5360    0.1120    3.9950 h1        1 D1L      0.031700
     23 H2A1        0.5480   -1.6200    6.3750 hc        1 D1L      0.035700
     24 H2A2        1.8790   -2.1140    5.2360 hc        1 D1L      0.035700
     25 H2A3        2.0780   -0.6450    6.2950 hc        1 D1L      0.035700
     26 H4         -0.9660   -2.8530    2.0860 ha        1 D1L      0.178500
     27 H5         -1.6360   -2.2790   -0.2690 ha        1 D1L      0.135500
     28 H6          0.0020    1.3170    2.8330 ha        1 D1L      0.178500
     29 H7         -0.6450    1.8730    0.4730 ha        1 D1L      0.135500
     30 H10         1.0360   -0.2110   -1.0990 ha        1 D1L      0.169000
     31 H11         2.6140   -0.1370   -3.0290 ha        1 D1L      0.146000
     32 H13        -0.6990    0.6570   -5.7110 ha        1 D1L      0.152000
@<TRIPOS>BOND
     1    1    2 1   
     2    2    3 1   
     3    2    4 1   
     4    4    5 1   
     5    4    6 1   
     6    4   22 1   
     7    5   23 1   
     8    5   24 1   
     9    5   25 1   
    10    6    7 1   
    11    7    8 ar  
    12    7   10 ar  
    13    8    9 ar  
    14    8   26 1   
    15    9   12 ar  
    16    9   27 1   
    17   10   11 ar  
    18   10   28 1   
    19   11   12 ar  
    20   11   29 1   
    21   12   13 1   
    22   13   14 1   
    23   14   15 ar  
    24   14   20 ar  
    25   15   16 ar  
    26   15   30 1   
    27   16   17 ar  
    28   16   31 1   
    29   17   18 1   
    30   17   19 ar  
    31   19   20 ar  
    32   19   32 1   
    33   20   21 1   
@<TRIPOS>SUBSTRUCTURE
     1 D1L         1 TEMP              0 ****  ****    0 ROOT
