@<TRIPOS>MOLECULE
D1L
   32    33     1     0     0
SMALL
bcc


@<TRIPOS>ATOM
      1 O1A         2.9370   -0.4290   -1.2660 o         1 D1L     -0.819800
      2 C1          2.3590    0.2690   -0.3950 c         1 D1L      0.902600
      3 O1B         2.0840    1.4980   -0.5070 o         1 D1L     -0.819800
      4 C2          1.8850   -0.4180    0.9220 c3        1 D1L      0.007100
      5 C2A         1.1960   -1.7320    0.6200 c3        1 D1L     -0.082100
      6 O2          2.9910   -0.7770    1.7870 os        1 D1L     -0.321900
      7 C3          3.5520    0.2180    2.5350 ca        1 D1L      0.177100
      8 C4          4.3900   -0.2310    3.5810 ca        1 D1L     -0.192000
      9 C5          5.0040    0.6900    4.4180 ca        1 D1L     -0.099500
     10 C6          3.3550    1.5960    2.3230 ca        1 D1L     -0.192000
     11 C7          3.9710    2.5140    3.1640 ca        1 D1L     -0.099500
     12 C8          4.7830    2.0570    4.2100 ca        1 D1L     -0.016900
     13 O8          5.5060    2.9800    4.9800 os        1 D1L     -0.229200
     14 C9          4.8650    3.4660    6.1020 ca        1 D1L      0.153100
     15 C10         3.5350    3.1520    6.4280 ca        1 D1L     -0.179000
     16 C11         2.9480    3.6840    7.5690 ca        1 D1L     -0.090000
     17 C12         3.6880    4.5360    8.3950 ca        1 D1L     -0.023600
     18 CL12        2.9710    5.1890    9.7960 cl        1 D1L     -0.113400
     19 C13         5.0090    4.8610    8.0850 ca        1 D1L     -0.099000
     20 C14         5.6060    4.3280    6.9390 ca        1 D1L     -0.018600
     21 CL14        7.2180    4.7480    6.6000 cl        1 D1L     -0.079400
     22 H2          1.2020    0.2750    1.4840 h1        1 D1L      0.031700
     23 H2A1        0.9510   -2.2830    1.5580 hc        1 D1L      0.035700
     24 H2A2        1.8650   -2.3630   -0.0140 hc        1 D1L      0.035700
     25 H2A3        0.2580   -1.5200    0.0560 hc        1 D1L      0.035700
     26 H4          4.5530   -1.3090    3.7110 ha        1 D1L      0.178500
     27 H5          5.6640    0.3580    5.2320 ha        1 D1L      0.135500
     28 H6          2.7450    1.9400    1.4620 ha        1 D1L      0.178500
     29 H7          3.8370    3.5930    3.0030 ha        1 D1L      0.135500
     30 H10         2.9620    2.4820    5.7670 ha        1 D1L      0.169000
     31 H11         1.9060    3.4340    7.8170 ha        1 D1L      0.146000
     32 H13         5.5840    5.5340    8.7390 ha        1 D1L      0.152000
@<TRIPOS>BOND
     1    1    2 1   
     2    2    3 1   
     3    2    4 1   
     4    4    5 1   
     5    4    6 1   
     6    4   22 1   
     7    5   23 1   
     8    5   24 1   
     9    5   25 1   
    10    6    7 1   
    11    7    8 ar  
    12    7   10 ar  
    13    8    9 ar  
    14    8   26 1   
    15    9   12 ar  
    16    9   27 1   
    17   10   11 ar  
    18   10   28 1   
    19   11   12 ar  
    20   11   29 1   
    21   12   13 1   
    22   13   14 1   
    23   14   15 ar  
    24   14   20 ar  
    25   15   16 ar  
    26   15   30 1   
    27   16   17 ar  
    28   16   31 1   
    29   17   18 1   
    30   17   19 ar  
    31   19   20 ar  
    32   19   32 1   
    33   20   21 1   
@<TRIPOS>SUBSTRUCTURE
     1 D1L         1 TEMP              0 ****  ****    0 ROOT
