@<TRIPOS>MOLECULE
D1M
   35    36     1     0     0
SMALL
bcc


@<TRIPOS>ATOM
      1 N1          0.9140   -0.1810    0.0020 n         1 D1M     -0.358000
      2 C2          1.2020    0.0190    1.3850 c         1 D1M      0.819500
      3 O2          0.3230   -0.1020    2.2630 o         1 D1M     -0.630500
      4 N3          2.5190    0.3330    1.7450 n         1 D1M     -0.587500
      5 C4          3.5710    0.4790    0.8220 c         1 D1M      0.725700
      6 O4          4.6980    0.7640    1.2540 o         1 D1M     -0.589500
      7 C5          3.2120    0.2750   -0.5980 cc        1 D1M     -0.107900
      8 C6          1.9190   -0.0240   -0.9390 cd        1 D1M      0.073600
      9 C7          4.2160    0.3920   -1.5670 cg        1 D1M     -0.152300
     10 C8          5.0820    0.4940   -2.3870 c1        1 D1M     -0.111500
     11 C1'        -0.4600   -0.3550   -0.4410 c3        1 D1M      0.329500
     12 C2'        -1.1790   -1.5760    0.1990 c3        1 D1M      0.112100
     13 O2'        -0.5190   -2.7300   -0.2890 oh        1 D1M     -0.596800
     14 C3'        -2.6450   -1.5810   -0.2630 c3        1 D1M      0.072100
     15 O3'        -3.2750   -2.6490    0.4270 oh        1 D1M     -0.598800
     16 C4'        -3.3040   -0.2400    0.0910 c3        1 D1M      0.082100
     17 O4'        -4.6200   -0.2010   -0.4380 oh        1 D1M     -0.592800
     18 C5'        -2.5030    0.8910   -0.5690 c3        1 D1M      0.110100
     19 O5'        -1.1520    0.8620   -0.1080 os        1 D1M     -0.432600
     20 C6'        -3.0430    2.2660   -0.1590 c3        1 D1M      0.140400
     21 O6'        -2.3990    3.2960   -0.8720 oh        1 D1M     -0.591800
     22 HN3         2.7020    0.4590    2.7190 hn        1 D1M      0.355500
     23 H6          1.6250   -0.1750   -1.9960 h4        1 D1M      0.173000
     24 H8          5.8540    0.5860   -3.1080 ha        1 D1M      0.171500
     25 H1'        -0.4620   -0.4870   -1.5660 h2        1 D1M      0.071700
     26 H2'        -1.1320   -1.5310    1.3230 h1        1 D1M      0.106700
     27 HO2'       -0.9520   -3.4860    0.1320 ho        1 D1M      0.429000
     28 H3'        -2.7020   -1.7560   -1.3740 h1        1 D1M      0.062700
     29 HO3'       -4.1320   -2.7820    0.0030 ho        1 D1M      0.413000
     30 H4'        -3.3140   -0.1030    1.2070 h1        1 D1M      0.076700
     31 HO4'       -5.1880   -0.6390    0.2080 ho        1 D1M      0.411000
     32 H5'        -2.5260    0.7830   -1.6880 h1        1 D1M      0.068700
     33 H6'        -4.1270    2.3290   -0.4480 h1        1 D1M      0.067200
     34 H6'A       -2.9210    2.4100    0.9470 h1        1 D1M      0.067200
     35 HO6'       -1.4670    3.2780   -0.6170 ho        1 D1M      0.412000
@<TRIPOS>BOND
     1    1    2 1   
     2    1    8 1   
     3    1   11 1   
     4    2    3 2   
     5    2    4 1   
     6    4    5 1   
     7    4   22 1   
     8    5    6 2   
     9    5    7 1   
    10    7    8 2   
    11    7    9 1   
    12    8   23 1   
    13    9   10 3   
    14   10   24 1   
    15   11   12 1   
    16   11   19 1   
    17   11   25 1   
    18   12   13 1   
    19   12   14 1   
    20   12   26 1   
    21   13   27 1   
    22   14   15 1   
    23   14   16 1   
    24   14   28 1   
    25   15   29 1   
    26   16   17 1   
    27   16   18 1   
    28   16   30 1   
    29   17   31 1   
    30   18   19 1   
    31   18   20 1   
    32   18   32 1   
    33   20   21 1   
    34   20   33 1   
    35   20   34 1   
    36   21   35 1   
@<TRIPOS>SUBSTRUCTURE
     1 D1M         1 TEMP              0 ****  ****    0 ROOT
