@<TRIPOS>MOLECULE
D1M
   35    36     1     0     0
SMALL
bcc


@<TRIPOS>ATOM
      1 N1         -0.0150    0.5650   -0.0870 n         1 D1M     -0.353000
      2 C2          1.3000    1.0660    0.1350 c         1 D1M      0.817500
      3 O2          1.8850    1.7870   -0.7050 o         1 D1M     -0.662500
      4 N3          1.9230    0.7970    1.3580 n         1 D1M     -0.584500
      5 C4          1.3360    0.0390    2.3900 c         1 D1M      0.723700
      6 O4          1.9860   -0.1440    3.4280 o         1 D1M     -0.580500
      7 C5         -0.0240   -0.4710    2.1090 cc        1 D1M     -0.094900
      8 C6         -0.6080   -0.2200    0.8980 cd        1 D1M      0.061600
      9 C7         -0.6800   -1.2080    3.1030 cg        1 D1M     -0.160300
     10 C8         -1.2310   -1.8370    3.9610 c1        1 D1M     -0.100500
     11 C1'        -0.6160    0.5080   -1.4130 c3        1 D1M      0.283500
     12 C2'        -0.0880    1.5060   -2.4770 c3        1 D1M      0.097100
     13 O2'        -0.3150    2.8390   -2.0750 oh        1 D1M     -0.604800
     14 C3'        -0.9180    1.2950   -3.7570 c3        1 D1M      0.103100
     15 O3'        -0.4220    2.1000   -4.8110 oh        1 D1M     -0.602800
     16 C4'        -0.7880   -0.1650   -4.2230 c3        1 D1M      0.121100
     17 O4'        -1.6770   -0.4240   -5.2950 oh        1 D1M     -0.593800
     18 C5'        -1.1820   -1.1100   -3.0780 c3        1 D1M      0.107100
     19 O5'        -0.4060   -0.8310   -1.9090 os        1 D1M     -0.451600
     20 C6'        -0.8700   -2.5660   -3.4420 c3        1 D1M      0.140400
     21 O6'        -1.3410   -3.4490   -2.4500 oh        1 D1M     -0.591800
     22 HN3         2.8400    1.1730    1.4890 hn        1 D1M      0.357500
     23 H6         -1.6100   -0.6220    0.6460 h4        1 D1M      0.178000
     24 H8         -1.7150   -2.3940    4.7230 ha        1 D1M      0.173500
     25 H1'        -1.7280    0.6820   -1.2710 h2        1 D1M      0.073700
     26 H2'         0.9990    1.3150   -2.6930 h1        1 D1M      0.099700
     27 HO2'        0.4490    3.1170   -1.5500 ho        1 D1M      0.439000
     28 H3'        -1.9970    1.5520   -3.5660 h1        1 D1M      0.062700
     29 HO3'       -0.4120    3.0100   -4.4830 ho        1 D1M      0.430000
     30 H4'         0.2720   -0.3600   -4.5480 h1        1 D1M      0.066700
     31 HO4'       -1.4800    0.2340   -5.9760 ho        1 D1M      0.429000
     32 H5'        -2.2750   -0.9960   -2.8410 h1        1 D1M      0.070700
     33 H6'         0.2330   -2.6940   -3.5990 h1        1 D1M      0.068700
     34 H6'A       -1.4340   -2.8310   -4.3770 h1        1 D1M      0.068700
     35 HO6'       -0.8410   -3.2630   -1.6450 ho        1 D1M      0.408000
@<TRIPOS>BOND
     1    1    2 1   
     2    1    8 1   
     3    1   11 1   
     4    2    3 2   
     5    2    4 1   
     6    4    5 1   
     7    4   22 1   
     8    5    6 2   
     9    5    7 1   
    10    7    8 2   
    11    7    9 1   
    12    8   23 1   
    13    9   10 3   
    14   10   24 1   
    15   11   12 1   
    16   11   19 1   
    17   11   25 1   
    18   12   13 1   
    19   12   14 1   
    20   12   26 1   
    21   13   27 1   
    22   14   15 1   
    23   14   16 1   
    24   14   28 1   
    25   15   29 1   
    26   16   17 1   
    27   16   18 1   
    28   16   30 1   
    29   17   31 1   
    30   18   19 1   
    31   18   20 1   
    32   18   32 1   
    33   20   21 1   
    34   20   33 1   
    35   20   34 1   
    36   21   35 1   
@<TRIPOS>SUBSTRUCTURE
     1 D1M         1 TEMP              0 ****  ****    0 ROOT
