@<TRIPOS>MOLECULE
D1M
   35    35     1     0     0
SMALL
bcc


@<TRIPOS>ATOM
      1 N1          0.9300    0.2020    0.9360 n         1 D1M     -0.358000
      2 C2          0.2040   -0.2620    2.1240 c         1 D1M      0.819500
      3 O2         -0.9170   -0.7030    2.0130 o         1 D1M     -0.630500
      4 N3          0.8180   -0.1610    3.4390 n         1 D1M     -0.587500
      5 C4          2.1500    0.3100    3.5670 c         1 D1M      0.725700
      6 O4          2.6660    0.3690    4.6530 o         1 D1M     -0.589500
      7 C5          2.8770    0.7770    2.3840 cc        1 D1M     -0.107900
      8 C6          2.2270    0.7410    1.0660 cd        1 D1M      0.073600
      9 C7          4.2470    1.4200    2.5380 cg        1 D1M     -0.152300
     10 C8          5.3200    1.9240    2.6590 c1        1 D1M     -0.169000
     11 C1'         0.3060    0.1960   -0.2980 c3        1 D1M      0.329500
     12 C2'         0.2610   -1.2310   -0.8190 c3        1 D1M      0.112100
     13 O2'         1.6080   -1.6660   -1.1030 oh        1 D1M     -0.596800
     14 C3'        -0.5510   -1.3540   -2.0470 c3        1 D1M      0.072100
     15 O3'        -0.6950   -2.7740   -2.3820 oh        1 D1M     -0.598800
     16 C4'        -1.9040   -0.7570   -1.8890 c3        1 D1M      0.082100
     17 O4'        -2.5590   -0.7540   -3.1610 oh        1 D1M     -0.592800
     18 C5'        -1.8490    0.6730   -1.3590 c3        1 D1M      0.110100
     19 O5'        -1.0450    0.7900   -0.1520 os        1 D1M     -0.432600
     20 C6'        -3.2480    1.1350   -1.0570 c3        1 D1M      0.140400
     21 O6'        -3.2510    2.5440   -0.8690 oh        1 D1M     -0.591800
     22 HN3         0.3600   -0.4530    4.1840 hn        1 D1M      0.355500
     23 H6          2.7090    1.0510    0.2740 h4        1 D1M      0.173000
     24 H8          6.1980    2.3350    2.7580 DU        1 D1M      0.229000
     25 H1'         0.8250    0.7410   -0.9180 h2        1 D1M      0.071700
     26 H2'        -0.1190   -1.8060   -0.1310 h1        1 D1M      0.106700
     27 HO2'        1.6670   -2.5390   -0.9820 ho        1 D1M      0.429000
     28 H3'        -0.0870   -0.8990   -2.7800 h1        1 D1M      0.062700
     29 HO3'       -0.5380   -2.8930   -3.2620 ho        1 D1M      0.413000
     30 H4'        -2.4220   -1.3060   -1.2670 h1        1 D1M      0.076700
     31 HO4'       -3.2310   -1.3480   -3.1530 ho        1 D1M      0.411000
     32 H5'        -1.4660    1.2530   -2.0510 h1        1 D1M      0.068700
     33 H6'        -3.8340    0.9050   -1.8010 h1        1 D1M      0.067200
     34 H6'A       -3.5680    0.6960   -0.2400 h1        1 D1M      0.067200
     35 HO6'       -4.0890    2.8430   -0.8760 ho        1 D1M      0.412000
@<TRIPOS>BOND
     1    1    2 1   
     2    1    8 1   
     3    1   11 1   
     4    2    3 2   
     5    2    4 1   
     6    4    5 1   
     7    4   22 1   
     8    5    6 2   
     9    5    7 1   
    10    7    8 2   
    11    7    9 1   
    12    8   23 1   
    13    9   10 3   
    14   11   12 1   
    15   11   19 1   
    16   11   25 1   
    17   12   13 1   
    18   12   14 1   
    19   12   26 1   
    20   13   27 1   
    21   14   15 1   
    22   14   16 1   
    23   14   28 1   
    24   15   29 1   
    25   16   17 1   
    26   16   18 1   
    27   16   30 1   
    28   17   31 1   
    29   18   19 1   
    30   18   20 1   
    31   18   32 1   
    32   20   21 1   
    33   20   33 1   
    34   20   34 1   
    35   21   35 1   
@<TRIPOS>SUBSTRUCTURE
     1 D1M         1 TEMP              0 ****  ****    0 ROOT
