@<TRIPOS>MOLECULE
D1M
   35    36     1     0     0
SMALL
bcc


@<TRIPOS>ATOM
      1 N1         -0.0060    0.5720   -0.0910 n         1 D1M     -0.353000
      2 C2          1.3130    1.0640    0.1230 c         1 D1M      0.817500
      3 O2          1.9000    1.7760   -0.7230 o         1 D1M     -0.662500
      4 N3          1.9390    0.7960    1.3450 ns        1 D1M     -0.584500
      5 C4          1.3500    0.0470    2.3820 c         1 D1M      0.723700
      6 O4          2.0020   -0.1350    3.4190 o         1 D1M     -0.580500
      7 C5         -0.0150   -0.4540    2.1100 cc        1 D1M     -0.094900
      8 C6         -0.6020   -0.2040    0.9000 cd        1 D1M      0.061600
      9 C7         -0.6730   -1.1810    3.1100 cg        1 D1M     -0.160300
     10 C8         -1.2250   -1.8010    3.9730 c1        1 D1M     -0.100500
     11 C1'        -0.6130    0.5130   -1.4150 c3        1 D1M      0.283500
     12 C2'        -0.0820    1.5020   -2.4860 c3        1 D1M      0.097100
     13 O2'        -0.2970    2.8380   -2.0900 oh        1 D1M     -0.604800
     14 C3'        -0.9180    1.2910   -3.7620 c3        1 D1M      0.103100
     15 O3'        -0.4200    2.0870   -4.8220 oh        1 D1M     -0.602800
     16 C4'        -0.8000   -0.1720   -4.2210 c3        1 D1M      0.121100
     17 O4'        -1.6950   -0.4300   -5.2880 oh        1 D1M     -0.593800
     18 C5'        -1.1960   -1.1090   -3.0700 c3        1 D1M      0.107100
     19 O5'        -0.4150   -0.8300   -1.9050 os        1 D1M     -0.451600
     20 C6'        -0.8970   -2.5690   -3.4280 c3        1 D1M      0.140400
     21 O6'        -1.3710   -3.4430   -2.4300 oh        1 D1M     -0.591800
     22 HN3         2.8590    1.1650    1.4700 hn        1 D1M      0.357500
     23 H6         -1.6070   -0.5990    0.6530 h4        1 D1M      0.178000
     24 H8         -1.7100   -2.3500    4.7390 ha        1 D1M      0.173500
     25 H1'        -1.7230    0.6960   -1.2700 h2        1 D1M      0.073700
     26 H2'         1.0030    1.3020   -2.7050 h1        1 D1M      0.099700
     27 HO2'        0.4710    3.1130   -1.5680 ho        1 D1M      0.439000
     28 H3'        -1.9940    1.5570   -3.5680 h1        1 D1M      0.062700
     29 HO3'       -0.4020    2.9990   -4.4980 ho        1 D1M      0.430000
     30 H4'         0.2570   -0.3770   -4.5490 h1        1 D1M      0.066700
     31 HO4'       -1.4960    0.2240   -5.9740 ho        1 D1M      0.429000
     32 H5'        -2.2880   -0.9850   -2.8290 h1        1 D1M      0.070700
     33 H6'        -1.4660   -2.8340   -4.3600 h1        1 D1M      0.068700
     34 H6'A        0.2040   -2.7060   -3.5890 h1        1 D1M      0.068700
     35 HO6'       -0.8670   -3.2580   -1.6280 ho        1 D1M      0.408000
@<TRIPOS>BOND
     1    1    2 1   
     2    1    8 1   
     3    1   11 1   
     4    2    3 2   
     5    2    4 1   
     6    4    5 1   
     7    4   22 1   
     8    5    6 2   
     9    5    7 1   
    10    7    8 2   
    11    7    9 1   
    12    8   23 1   
    13    9   10 3   
    14   10   24 1   
    15   11   12 1   
    16   11   19 1   
    17   11   25 1   
    18   12   13 1   
    19   12   14 1   
    20   12   26 1   
    21   13   27 1   
    22   14   15 1   
    23   14   16 1   
    24   14   28 1   
    25   15   29 1   
    26   16   17 1   
    27   16   18 1   
    28   16   30 1   
    29   17   31 1   
    30   18   19 1   
    31   18   20 1   
    32   18   32 1   
    33   20   21 1   
    34   20   33 1   
    35   20   34 1   
    36   21   35 1   
@<TRIPOS>SUBSTRUCTURE
     1 D1M         1 TEMP              0 ****  ****    0 ROOT
