@<TRIPOS>MOLECULE
D1N
   20    18     1     0     0
SMALL
bcc


@<TRIPOS>ATOM
      1 O2         -3.7120   -0.2890    0.4790 oh        1 D1N     -0.273000
      2 C2         -2.3050   -0.2890    0.4790 c2        1 D1N     -0.029000
      3 C3         -1.6930   -0.2890    1.8660 c1        1 D1N     -0.150000
      4 C4         -0.1950   -0.1430    2.0320 c1        1 D1N     -0.119000
      5 C5          0.6950    0.0460    0.8060 c1        1 D1N     -0.035000
      6 C10         0.0820    0.0830   -0.5700 c1        1 D1N     -0.031000
      7 C1         -1.4280   -0.0720   -0.7360 c2        1 D1N      0.074000
      8 O1         -2.0440    0.3300   -1.9360 oh        1 D1N     -0.248000
      9 C9          0.9720    0.2710   -1.7960 c2        1 D1N     -0.097000
     10 C8          2.4730    0.3850   -1.6320 c1        1 D1N     -0.133000
     11 C7          3.0860    0.3810   -0.2450 c1        1 D1N     -0.122000
     12 C6          2.2050    0.1930    0.9720 c2        1 D1N     -0.122000
     13 HO2        -4.0080   -1.1250    0.4550 ho        1 D1N      0.227000
     14 H3         -2.2650   -0.3780    2.6520 ha        1 D1N      0.134000
     15 H4          0.1990   -0.1430    2.9260 ha        1 D1N      0.137000
     16 HO1        -2.3340   -0.3860   -2.3730 ho        1 D1N      0.237000
     17 H9          0.5770    0.2740   -2.6890 ha        1 D1N      0.152000
     18 H8          3.0410    0.5060   -2.4160 ha        1 D1N      0.134000
     19 H7          4.0540    0.4540   -0.1400 ha        1 D1N      0.132000
     20 H6          2.6010    0.1900    1.8650 ha        1 D1N      0.132000
@<TRIPOS>BOND
     1    1    2 1   
     2    1   13 1   
     3    2    3 1   
     4    2    7 1   
     5    3   14 1   
     6    4    5 1   
     7    4   15 1   
     8    5   12 1   
     9    6    7 1   
    10    6    9 1   
    11    7    8 1   
    12    8   16 1   
    13    9   10 1   
    14    9   17 1   
    15   10   18 1   
    16   11   12 1   
    17   11   19 1   
    18   12   20 1   
@<TRIPOS>SUBSTRUCTURE
     1 D1N         1 TEMP              0 ****  ****    0 ROOT
