@<TRIPOS>MOLECULE
D1N
   20    21     1     0     0
SMALL
bcc


@<TRIPOS>ATOM
      1 O2          5.2660   -4.3820   -0.8060 oh        1 D1N     -0.519100
      2 C2          3.9380   -4.1820   -0.4760 ca        1 D1N      0.016100
      3 C3          3.0850   -5.2390   -0.0750 ca        1 D1N     -0.150000
      4 C4          1.7750   -4.9750    0.2390 ca        1 D1N     -0.119000
      5 C5          1.2600   -3.6530    0.1680 ca        1 D1N     -0.035000
      6 C10         2.1040   -2.5860   -0.2330 ca        1 D1N     -0.031000
      7 C1          3.4650   -2.8760   -0.5570 ca        1 D1N      0.119100
      8 O1          4.2510   -1.8160   -0.9410 oh        1 D1N     -0.494100
      9 C9          1.5810   -1.2660   -0.3020 ca        1 D1N     -0.097000
     10 C8          0.2680   -1.0230    0.0160 ca        1 D1N     -0.133000
     11 C7         -0.5790   -2.0850    0.4170 ca        1 D1N     -0.122000
     12 C6         -0.0960   -3.3680    0.4910 ca        1 D1N     -0.122000
     13 HO2         5.4530   -5.3260   -0.7050 ho        1 D1N      0.428000
     14 H3          3.4880   -6.2600   -0.0210 ha        1 D1N      0.134000
     15 H4          1.1020   -5.7870    0.5530 ha        1 D1N      0.137000
     16 HO1         5.1400   -2.1570   -1.1280 ho        1 D1N      0.438000
     17 H9          2.2560   -0.4540   -0.6160 ha        1 D1N      0.152000
     18 H8         -0.1410   -0.0040   -0.0360 ha        1 D1N      0.134000
     19 H7         -1.6270   -1.8660    0.6670 ha        1 D1N      0.132000
     20 H6         -0.7470   -4.1990    0.8020 ha        1 D1N      0.132000
@<TRIPOS>BOND
     1    1    2 1   
     2    1   13 1   
     3    2    3 ar  
     4    2    7 ar  
     5    3    4 ar  
     6    3   14 1   
     7    4    5 ar  
     8    4   15 1   
     9    5    6 ar  
    10    5   12 ar  
    11    6    7 ar  
    12    6    9 ar  
    13    7    8 1   
    14    8   16 1   
    15    9   10 ar  
    16    9   17 1   
    17   10   11 ar  
    18   10   18 1   
    19   11   12 ar  
    20   11   19 1   
    21   12   20 1   
@<TRIPOS>SUBSTRUCTURE
     1 D1N         1 TEMP              0 ****  ****    0 ROOT
