@<TRIPOS>MOLECULE
D1N
   20    21     1     0     0
SMALL
bcc


@<TRIPOS>ATOM
      1 O2         -0.0030    0.0160   -0.1960 oh        1 D1N     -0.519100
      2 C2          1.3760   -0.0010   -0.0880 ca        1 D1N      0.016100
      3 C3          2.0420   -0.0590    1.1600 ca        1 D1N     -0.150000
      4 C4          3.4140   -0.0730    1.2020 ca        1 D1N     -0.119000
      5 C5          4.1800   -0.0300    0.0050 ca        1 D1N     -0.035000
      6 C10         3.5250    0.0280   -1.2520 ca        1 D1N     -0.031000
      7 C1          2.0970    0.0420   -1.2780 ca        1 D1N      0.119100
      8 O1          1.4990    0.0980   -2.5140 oh        1 D1N     -0.494100
      9 C9          4.2980    0.0700   -2.4440 ca        1 D1N     -0.097000
     10 C8          5.6690    0.0550   -2.3810 ca        1 D1N     -0.133000
     11 C7          6.3270   -0.0030   -1.1290 ca        1 D1N     -0.122000
     12 C6          5.6020   -0.0450    0.0360 ca        1 D1N     -0.122000
     13 HO2        -0.3660   -0.0180    0.6990 ho        1 D1N      0.428000
     14 H3          1.4450   -0.0920    2.0830 ha        1 D1N      0.134000
     15 H4          3.9430   -0.1180    2.1650 ha        1 D1N      0.137000
     16 HO1         0.5380    0.1020   -2.3810 ho        1 D1N      0.438000
     17 H9          3.7660    0.1150   -3.4080 ha        1 D1N      0.152000
     18 H8          6.2710    0.0880   -3.3010 ha        1 D1N      0.134000
     19 H7          7.4270   -0.0140   -1.1040 ha        1 D1N      0.132000
     20 H6          6.1050   -0.0900    1.0130 ha        1 D1N      0.132000
@<TRIPOS>BOND
     1    1    2 1   
     2    1   13 1   
     3    2    3 ar  
     4    2    7 ar  
     5    3    4 ar  
     6    3   14 1   
     7    4    5 ar  
     8    4   15 1   
     9    5    6 ar  
    10    5   12 ar  
    11    6    7 ar  
    12    6    9 ar  
    13    7    8 1   
    14    8   16 1   
    15    9   10 ar  
    16    9   17 1   
    17   10   11 ar  
    18   10   18 1   
    19   11   12 ar  
    20   11   19 1   
    21   12   20 1   
@<TRIPOS>SUBSTRUCTURE
     1 D1N         1 TEMP              0 ****  ****    0 ROOT
