@<TRIPOS>MOLECULE
D1P
   22    22     1     0     0
SMALL
bcc


@<TRIPOS>ATOM
      1 OP3        -1.0450    1.0100    3.2460 o         1 D1P     -0.933500
      2 P          -0.9730   -0.0190    2.1590 p5        1 D1P      1.331900
      3 OP1        -0.6900   -1.4400    2.5570 o         1 D1P     -0.933500
      4 OP2        -1.9650    0.1230    1.0210 o         1 D1P     -0.933500
      5 O5'         0.4750    0.4110    1.2940 os        1 D1P     -0.563200
      6 C5'         0.7910   -0.4450    0.2730 c3        1 D1P      0.235400
      7 C4'         0.4450    0.1860   -1.0970 c3        1 D1P      0.062100
      8 O4'         1.4370   -0.2360   -2.0690 os        1 D1P     -0.464600
      9 C3'        -0.9400   -0.2250   -1.6410 c3        1 D1P      0.154100
     10 O3'        -1.8330    0.8670   -1.6390 oh        1 D1P     -0.679800
     11 C2'        -0.6960   -0.6550   -3.0970 c3        1 D1P     -0.147400
     12 C1'         0.8200   -0.5710   -3.2930 c3        1 D1P      0.330900
     13 O1'         1.1990    0.4570   -4.1910 oh        1 D1P     -0.660800
     14 H5'         0.2530   -1.4280    0.3850 h1        1 D1P     -0.000300
     15 H5''        1.9050   -0.6380    0.2710 h1        1 D1P     -0.000300
     16 H4'         0.5160    1.3040   -1.0250 h1        1 D1P      0.056700
     17 H3'        -1.3720   -1.0640   -1.0300 h1        1 D1P      0.094700
     18 HO'3       -2.1190    0.9630   -0.7000 ho        1 D1P      0.500000
     19 H2'        -1.2250    0.0260   -3.8060 hc        1 D1P      0.042200
     20 H2''       -1.0530   -1.6970   -3.2650 hc        1 D1P      0.042200
     21 H1'         1.2900   -1.5080   -3.6940 h2        1 D1P      0.053700
     22 HO1'        1.0540    1.2950   -3.7350 ho        1 D1P      0.411000
@<TRIPOS>BOND
     1    1    2 1   
     2    2    3 1   
     3    2    4 1   
     4    2    5 1   
     5    5    6 1   
     6    6    7 1   
     7    6   14 1   
     8    6   15 1   
     9    7    8 1   
    10    7    9 1   
    11    7   16 1   
    12    8   12 1   
    13    9   10 1   
    14    9   11 1   
    15    9   17 1   
    16   10   18 1   
    17   11   12 1   
    18   11   19 1   
    19   11   20 1   
    20   12   13 1   
    21   12   21 1   
    22   13   22 1   
@<TRIPOS>SUBSTRUCTURE
     1 D1P         1 TEMP              0 ****  ****    0 ROOT
