@<TRIPOS>MOLECULE
D1P
   22    22     1     0     0
SMALL
bcc


@<TRIPOS>ATOM
      1 OP3        -1.8050   -3.4400    0.9140 o         1 D1P     -0.933500
      2 P          -0.2950   -3.4400    0.9140 p5        1 D1P      1.331900
      3 OP1         0.2090   -3.4400    2.3370 o         1 D1P     -0.933500
      4 OP2         0.2090   -4.6730    0.2020 o         1 D1P     -0.933500
      5 O5'         0.2320   -2.1500    0.1690 os        1 D1P     -0.563200
      6 C5'        -0.2040   -0.8890    0.6200 c3        1 D1P      0.235400
      7 C4'         0.7760    0.1740    0.1720 c3        1 D1P      0.062100
      8 O4'         0.7150    0.3420   -1.4320 os        1 D1P     -0.464600
      9 C3'         0.4480    1.3160    0.6690 c3        1 D1P      0.154100
     10 O3'         1.6580    2.1460    0.8950 oh        1 D1P     -0.679800
     11 C2'        -0.4700    1.9800   -0.4120 c3        1 D1P     -0.147400
     12 C1'        -0.3060    1.1140   -1.6780 c3        1 D1P      0.330900
     13 O1'        -0.0410    1.9400   -2.8120 oh        1 D1P     -0.660800
     14 H5'        -0.2560   -0.8930    1.5950 h1        1 D1P     -0.000300
     15 H5''       -1.0850   -0.6970    0.2480 h1        1 D1P     -0.000300
     16 H4'         1.6810   -0.0640    0.4490 h1        1 D1P      0.056700
     17 H3'        -0.0430    1.1950    1.5040 h1        1 D1P      0.094700
     18 HO'3        1.6430    2.4710    1.7210 ho        1 D1P      0.500000
     19 H2'        -0.1770    2.8940   -0.5880 hc        1 D1P      0.042200
     20 H2''       -1.4000    1.9730   -0.1160 hc        1 D1P      0.042200
     21 H1'        -1.1080    0.5780   -1.8280 h2        1 D1P      0.053700
     22 HO1'       -0.3810    1.5610   -3.5390 ho        1 D1P      0.411000
@<TRIPOS>BOND
     1    1    2 1   
     2    2    3 1   
     3    2    4 1   
     4    2    5 1   
     5    5    6 1   
     6    6    7 1   
     7    6   14 1   
     8    6   15 1   
     9    7    8 1   
    10    7    9 1   
    11    7   16 1   
    12    8   12 1   
    13    9   10 1   
    14    9   11 1   
    15    9   17 1   
    16   10   18 1   
    17   11   12 1   
    18   11   19 1   
    19   11   20 1   
    20   12   13 1   
    21   12   21 1   
    22   13   22 1   
@<TRIPOS>SUBSTRUCTURE
     1 D1P         1 TEMP              0 ****  ****    0 ROOT
