@<TRIPOS>MOLECULE
D1Q
   64    67     1     0     0
SMALL
bcc


@<TRIPOS>ATOM
      1 C1         -3.2680   -0.3880    2.8330 ca        1 D1Q     -0.099000
      2 C2         -2.3180   -0.1910    3.8330 ca        1 D1Q     -0.117000
      3 C3         -1.3040   -1.1320    4.0390 ca        1 D1Q      0.048400
      4 C4         -1.2410   -2.2870    3.2450 ca        1 D1Q     -0.117000
      5 C5         -2.1830   -2.4970    2.2460 ca        1 D1Q     -0.099000
      6 C6         -3.1930   -1.5410    2.0300 ca        1 D1Q     -0.050400
      7 CL7        -0.1550   -0.8850    5.2510 cl        1 D1Q     -0.027400
      8 N8         -4.2230   -1.7600    1.0160 n4        1 D1Q     -0.564200
      9 C9         -3.7470   -2.5430   -0.1710 c         1 D1Q      0.548100
     10 C10        -2.5000   -2.1140   -0.9060 c3        1 D1Q     -0.144400
     11 C11        -2.8210   -1.6800   -2.3400 c3        1 D1Q     -0.043100
     12 C12        -3.8120   -0.5740   -2.2630 ca        1 D1Q     -0.128300
     13 C13        -3.4510    0.7500   -1.9170 ca        1 D1Q     -0.058400
     14 C14        -4.3480    1.5440   -1.1880 ca        1 D1Q     -0.089000
     15 C15        -5.5950    1.0040   -0.8520 ca        1 D1Q     -0.115600
     16 C16        -6.0750   -0.1160   -1.5390 ca        1 D1Q     -0.088000
     17 C17        -5.1720   -0.9140   -2.2370 ca        1 D1Q     -0.131000
     18 O18        -4.4290   -3.5190   -0.4640 o         1 D1Q     -0.435100
     19 N19        -2.1240    1.2760   -2.2400 n4        1 D1Q     -0.522200
     20 C20        -2.0020    1.5820   -3.7280 c         1 D1Q      0.522600
     21 C21        -2.5800    2.8260   -4.1760 cc        1 D1Q      0.148900
     22 O22        -1.4050    0.7280   -4.3740 o         1 D1Q     -0.464100
     23 C23        -6.1840    1.3440    0.5140 c         1 D1Q      0.928200
     24 O24        -5.7720    0.4810    1.3740 o         1 D1Q     -0.769300
     25 O25        -6.9040    2.3220    0.7330 o         1 D1Q     -0.769300
     26 N26        -3.0400    3.7810   -3.3040 nd        1 D1Q     -0.606000
     27 C27        -3.5380    4.8260   -4.0110 cd        1 D1Q      0.381600
     28 C28        -3.4520    4.6660   -5.4290 cc        1 D1Q     -0.197700
     29 S29        -2.7700    3.2330   -5.8130 ss        1 D1Q      0.253700
     30 C30        -3.9410    5.7130   -6.3680 c3        1 D1Q      0.236100
     31 N31        -4.8020    6.6990   -5.7310 n3        1 D1Q     -0.727600
     32 C32        -4.2760    7.1540   -4.4510 c3        1 D1Q      0.162800
     33 C33        -4.1660    6.0330   -3.4130 c3        1 D1Q     -0.118700
     34 C34        -5.1590    7.8240   -6.6140 c3        1 D1Q      0.185500
     35 C35        -5.2840    7.4450   -8.0900 c3        1 D1Q     -0.098600
     36 C36        -6.4850    8.4600   -6.1830 c3        1 D1Q     -0.098600
     37 H1         -4.0880    0.3520    2.6970 ha        1 D1Q      0.184000
     38 H2         -2.3840    0.7090    4.4690 ha        1 D1Q      0.176500
     39 H4         -0.4520   -3.0380    3.4200 ha        1 D1Q      0.176500
     40 H5         -2.1320   -3.4190    1.6440 ha        1 D1Q      0.184000
     41 HN8        -5.0000   -2.2750    1.4620 hn        1 D1Q      0.500300
     42 H10        -1.9740   -1.2900   -0.3570 hc        1 D1Q      0.094200
     43 H10A       -1.8160   -3.0080   -0.9350 hc        1 D1Q      0.094200
     44 H11        -3.2490   -2.5510   -2.9080 hc        1 D1Q      0.088700
     45 H11A       -1.8710   -1.3900   -2.8610 hc        1 D1Q      0.088700
     46 H14        -4.0920    2.5570   -0.8330 ha        1 D1Q      0.182000
     47 H16        -7.1360   -0.4050   -1.4440 ha        1 D1Q      0.183000
     48 H17        -5.5000   -1.8670   -2.6850 ha        1 D1Q      0.168000
     49 HN19       -1.4130    0.5780   -1.9920 hn        1 D1Q      0.460300
     50 H30        -3.0320    6.1880   -6.8520 h1        1 D1Q      0.066200
     51 H30A       -4.5490    5.2180   -7.1830 h1        1 D1Q      0.066200
     52 H32        -3.2610    7.6380   -4.5670 h1        1 D1Q      0.052700
     53 H32A       -4.9800    7.9320   -4.0390 h1        1 D1Q      0.052700
     54 H33        -5.1900    5.7550   -3.0380 hc        1 D1Q      0.087200
     55 H33A       -3.5690    6.4070   -2.5400 hc        1 D1Q      0.087200
     56 H34        -4.3540    8.6220   -6.5430 h1        1 D1Q      0.029700
     57 H35        -6.0360    6.6340   -8.2370 hc        1 D1Q      0.046867
     58 H35A       -4.3040    7.1190   -8.5140 hc        1 D1Q      0.046867
     59 H35B       -5.6230    8.3440   -8.6610 hc        1 D1Q      0.046867
     60 H36        -6.7220    9.3010   -6.8780 hc        1 D1Q      0.046867
     61 H36A       -7.3140    7.7150   -6.2240 hc        1 D1Q      0.046867
     62 H36B       -6.4260    8.8700   -5.1470 hc        1 D1Q      0.046867
     63 H82        -4.6480   -0.8100    0.7370 hn        1 D1Q      0.500300
     64 H192       -1.9630    2.1360   -1.6990 hn        1 D1Q      0.460300
@<TRIPOS>BOND
     1    1    2 ar  
     2    1    6 ar  
     3    1   37 1   
     4    2    3 ar  
     5    2   38 1   
     6    3    4 ar  
     7    3    7 1   
     8    4    5 ar  
     9    4   39 1   
    10    5    6 ar  
    11    5   40 1   
    12    6    8 1   
    13    8    9 1   
    14    8   41 1   
    15    8   63 1   
    16    9   10 1   
    17    9   18 2   
    18   10   11 1   
    19   10   42 1   
    20   10   43 1   
    21   11   12 1   
    22   11   44 1   
    23   11   45 1   
    24   12   13 ar  
    25   12   17 ar  
    26   13   14 ar  
    27   13   19 1   
    28   14   15 ar  
    29   14   46 1   
    30   15   16 ar  
    31   15   23 1   
    32   16   17 ar  
    33   16   47 1   
    34   17   48 1   
    35   19   20 1   
    36   19   49 1   
    37   19   64 1   
    38   20   21 1   
    39   20   22 2   
    40   21   26 2   
    41   21   29 1   
    42   23   24 1   
    43   23   25 1   
    44   26   27 1   
    45   27   28 2   
    46   27   33 1   
    47   28   29 1   
    48   28   30 1   
    49   30   31 1   
    50   30   50 1   
    51   30   51 1   
    52   31   32 1   
    53   31   34 1   
    54   32   33 1   
    55   32   52 1   
    56   32   53 1   
    57   33   54 1   
    58   33   55 1   
    59   34   35 1   
    60   34   36 1   
    61   34   56 1   
    62   35   57 1   
    63   35   58 1   
    64   35   59 1   
    65   36   60 1   
    66   36   61 1   
    67   36   62 1   
@<TRIPOS>SUBSTRUCTURE
     1 D1Q         1 TEMP              0 ****  ****    0 ROOT
