@<TRIPOS>MOLECULE
D1Q
   62    65     1     0     0
SMALL
bcc


@<TRIPOS>ATOM
      1 C1          0.3090   -0.8320    0.3410 ca        1 D1Q     -0.172000
      2 C2          1.6630   -0.7110    0.6310 ca        1 D1Q     -0.096500
      3 C3          2.0960    0.1490    1.6420 ca        1 D1Q     -0.022600
      4 C4          1.1670    0.8970    2.3690 ca        1 D1Q     -0.096500
      5 C5         -0.1880    0.7850    2.0870 ca        1 D1Q     -0.172000
      6 C6         -0.6480   -0.0850    1.0640 ca        1 D1Q      0.090600
      7 Cl7         3.7570    0.2900    1.9900 cl        1 D1Q     -0.113400
      8 N8         -2.0240   -0.1610    0.8260 ns        1 D1Q     -0.481100
      9 C9         -2.6920   -0.9260   -0.1330 c         1 D1Q      0.667100
     10 C10        -4.2040   -0.7850   -0.1290 c3        1 D1Q     -0.151400
     11 C11        -4.8230   -1.4230   -1.3610 c3        1 D1Q     -0.019100
     12 C12        -6.3080   -1.3370   -1.3070 ca        1 D1Q     -0.155300
     13 C13        -7.0320   -0.2090   -1.7700 ca        1 D1Q      0.018600
     14 C14        -8.4390   -0.2010   -1.6760 ca        1 D1Q     -0.103000
     15 C15        -9.1200   -1.2790   -1.1140 ca        1 D1Q     -0.104600
     16 C16        -8.4020   -2.3920   -0.6670 ca        1 D1Q     -0.116000
     17 C17        -7.0170   -2.4160   -0.7650 ca        1 D1Q     -0.140000
     18 O18        -2.0900   -1.6780   -0.9170 o         1 D1Q     -0.586100
     19 N19        -6.3290    0.9180   -2.2630 ns        1 D1Q     -0.440100
     20 C20        -6.7400    1.7070   -3.3120 c         1 D1Q      0.586600
     21 C21        -5.8370    2.8450   -3.6920 cc        1 D1Q      0.318900
     22 O22        -7.8110    1.5660   -3.9330 o         1 D1Q     -0.578100
     23 C23       -10.6370   -1.2410   -0.9560 c         1 D1Q      0.909200
     24 O24       -11.2130   -2.3090   -0.6060 o         1 D1Q     -0.822800
     25 O25       -11.2260   -0.1460   -1.1680 o         1 D1Q     -0.822800
     26 N26        -4.5340    2.9350   -3.3890 nd        1 D1Q     -0.624000
     27 C27        -4.0280    4.1070   -3.9210 cd        1 D1Q      0.344600
     28 C28        -4.9620    4.8870   -4.6180 cc        1 D1Q     -0.248700
     29 S29        -6.4550    4.1550   -4.6070 ss        1 D1Q      0.059700
     30 C30        -4.6140    6.1760   -5.2610 c3        1 D1Q      0.255100
     31 N31        -3.2550    6.6480   -4.9990 n3        1 D1Q     -0.722600
     32 C32        -2.2740    5.5810   -4.8540 c3        1 D1Q      0.169800
     33 C33        -2.6220    4.5530   -3.7740 c3        1 D1Q     -0.103700
     34 C34        -2.8420    7.6520   -5.9950 c3        1 D1Q      0.184500
     35 C35        -3.8680    8.7800   -6.1400 c3        1 D1Q     -0.094600
     36 C36        -1.4890    8.2870   -5.6650 c3        1 D1Q     -0.094600
     37 H1         -0.0060   -1.5180   -0.4630 ha        1 D1Q      0.157000
     38 H2          2.3930   -1.3020    0.0560 ha        1 D1Q      0.143000
     39 H4          1.5030    1.5780    3.1660 ha        1 D1Q      0.143000
     40 H5         -0.9020    1.3850    2.6720 ha        1 D1Q      0.157000
     41 HN8        -2.5900    0.4200    1.4050 hn        1 D1Q      0.317500
     42 H10        -4.6030   -1.2920    0.7910 hc        1 D1Q      0.071700
     43 H10A       -4.4930    0.2970   -0.0730 hc        1 D1Q      0.071700
     44 H11        -4.5050   -2.5010   -1.4050 hc        1 D1Q      0.057700
     45 H11A       -4.4090   -0.9420   -2.2860 hc        1 D1Q      0.057700
     46 H14        -9.0330    0.6540   -2.0460 ha        1 D1Q      0.178000
     47 H16        -8.9640   -3.2400   -0.2420 ha        1 D1Q      0.157000
     48 H17        -6.4580   -3.2960   -0.4140 ha        1 D1Q      0.110000
     49 HN19       -5.3950    1.0210   -1.9370 hn        1 D1Q      0.321500
     50 H30        -4.8090    6.0740   -6.3730 h1        1 D1Q      0.043700
     51 H30A       -5.3040    6.9800   -4.8660 h1        1 D1Q      0.043700
     52 H32        -2.1120    5.0340   -5.8300 h1        1 D1Q      0.033700
     53 H32A       -1.2950    6.0540   -4.5590 h1        1 D1Q      0.033700
     54 H33        -1.9120    3.6890   -3.8630 hc        1 D1Q      0.066700
     55 H33A       -2.4890    5.0050   -2.7550 hc        1 D1Q      0.066700
     56 H34        -2.7410    7.1590   -7.0140 h1        1 D1Q      0.015700
     57 H35        -4.0780    9.2570   -5.1530 hc        1 D1Q      0.038700
     58 H35A       -4.8270    8.4020   -6.5680 hc        1 D1Q      0.038700
     59 H35B       -3.4620    9.5560   -6.8330 hc        1 D1Q      0.038700
     60 H36        -1.4600    8.6430   -4.6080 hc        1 D1Q      0.038700
     61 H36A       -0.6560    7.5610   -5.8250 hc        1 D1Q      0.038700
     62 H36B       -1.3190    9.1590   -6.3400 hc        1 D1Q      0.038700
@<TRIPOS>BOND
     1    1    2 ar  
     2    1    6 ar  
     3    1   37 1   
     4    2    3 ar  
     5    2   38 1   
     6    3    4 ar  
     7    3    7 1   
     8    4    5 ar  
     9    4   39 1   
    10    5    6 ar  
    11    5   40 1   
    12    6    8 1   
    13    8    9 1   
    14    8   41 1   
    15    9   10 1   
    16    9   18 2   
    17   10   11 1   
    18   10   42 1   
    19   10   43 1   
    20   11   12 1   
    21   11   44 1   
    22   11   45 1   
    23   12   13 ar  
    24   12   17 ar  
    25   13   14 ar  
    26   13   19 1   
    27   14   15 ar  
    28   14   46 1   
    29   15   16 ar  
    30   15   23 1   
    31   16   17 ar  
    32   16   47 1   
    33   17   48 1   
    34   19   20 1   
    35   19   49 1   
    36   20   21 1   
    37   20   22 2   
    38   21   26 2   
    39   21   29 1   
    40   23   24 1   
    41   23   25 1   
    42   26   27 1   
    43   27   28 2   
    44   27   33 1   
    45   28   29 1   
    46   28   30 1   
    47   30   31 1   
    48   30   50 1   
    49   30   51 1   
    50   31   32 1   
    51   31   34 1   
    52   32   33 1   
    53   32   52 1   
    54   32   53 1   
    55   33   54 1   
    56   33   55 1   
    57   34   35 1   
    58   34   36 1   
    59   34   56 1   
    60   35   57 1   
    61   35   58 1   
    62   35   59 1   
    63   36   60 1   
    64   36   61 1   
    65   36   62 1   
@<TRIPOS>SUBSTRUCTURE
     1 D1Q         1 TEMP              0 ****  ****    0 ROOT
