@<TRIPOS>MOLECULE
D1Q
   62    65     1     0     0
SMALL
bcc


@<TRIPOS>ATOM
      1 C1          0.3120   -0.8270    0.3510 ca        1 D1Q     -0.172000
      2 C2          1.6660   -0.7090    0.6440 ca        1 D1Q     -0.096500
      3 C3          2.0970    0.1440    1.6620 ca        1 D1Q     -0.022600
      4 C4          1.1670    0.8860    2.3930 ca        1 D1Q     -0.096500
      5 C5         -0.1880    0.7760    2.1090 ca        1 D1Q     -0.172000
      6 C6         -0.6460   -0.0860    1.0790 ca        1 D1Q      0.090600
      7 CL7         3.7570    0.2820    2.0140 cl        1 D1Q     -0.113400
      8 N8         -2.0220   -0.1600    0.8380 n         1 D1Q     -0.481100
      9 C9         -2.6880   -0.9190   -0.1280 c         1 D1Q      0.667100
     10 C10        -4.2000   -0.7780   -0.1250 c3        1 D1Q     -0.151400
     11 C11        -4.8180   -1.4190   -1.3550 c3        1 D1Q     -0.019100
     12 C12        -6.3040   -1.3330   -1.3020 ca        1 D1Q     -0.155300
     13 C13        -7.0290   -0.2070   -1.7670 ca        1 D1Q      0.018600
     14 C14        -8.4350   -0.1990   -1.6720 ca        1 D1Q     -0.103000
     15 C15        -9.1160   -1.2770   -1.1070 ca        1 D1Q     -0.104600
     16 C16        -8.3970   -2.3890   -0.6580 ca        1 D1Q     -0.116000
     17 C17        -7.0110   -2.4120   -0.7570 ca        1 D1Q     -0.140000
     18 O18        -2.0840   -1.6660   -0.9160 o         1 D1Q     -0.586100
     19 N19        -6.3270    0.9200   -2.2620 n         1 D1Q     -0.440100
     20 C20        -6.7390    1.7060   -3.3130 c         1 D1Q      0.586600
     21 C21        -5.8380    2.8440   -3.6960 cc        1 D1Q      0.318900
     22 O22        -7.8100    1.5620   -3.9340 o         1 D1Q     -0.578100
     23 C23       -10.6330   -1.2400   -0.9490 c         1 D1Q      0.909200
     24 O24       -11.2080   -2.3080   -0.5960 o         1 D1Q     -0.822800
     25 O25       -11.2230   -0.1460   -1.1630 o         1 D1Q     -0.822800
     26 N26        -4.5340    2.9370   -3.3920 nd        1 D1Q     -0.624000
     27 C27        -4.0300    4.1080   -3.9270 cd        1 D1Q      0.344600
     28 C28        -4.9650    4.8850   -4.6270 cc        1 D1Q     -0.248700
     29 S29        -6.4570    4.1510   -4.6140 ss        1 D1Q      0.059700
     30 C30        -4.6190    6.1720   -5.2730 c3        1 D1Q      0.255100
     31 N31        -3.2600    6.6470   -5.0130 n3        1 D1Q     -0.722600
     32 C32        -2.2780    5.5820   -4.8640 c3        1 D1Q      0.169800
     33 C33        -2.6250    4.5560   -3.7810 c3        1 D1Q     -0.103700
     34 C34        -2.8490    7.6480   -6.0130 c3        1 D1Q      0.184500
     35 C35        -3.8750    8.7750   -6.1600 c3        1 D1Q     -0.094600
     36 C36        -1.4950    8.2830   -5.6870 c3        1 D1Q     -0.094600
     37 H1         -0.0020   -1.5080   -0.4590 ha        1 D1Q      0.157000
     38 H2          2.3960   -1.2950    0.0650 ha        1 D1Q      0.143000
     39 H4          1.5010    1.5610    3.1970 ha        1 D1Q      0.143000
     40 H5         -0.9030    1.3710    2.6980 ha        1 D1Q      0.157000
     41 HN8        -2.5890    0.4170    1.4200 hn        1 D1Q      0.317500
     42 H10        -4.4880    0.3050   -0.0710 hc        1 D1Q      0.071700
     43 H10A       -4.6000   -1.2820    0.7960 hc        1 D1Q      0.071700
     44 H11        -4.4050   -0.9380   -2.2810 hc        1 D1Q      0.057700
     45 H11A       -4.4990   -2.4960   -1.3980 hc        1 D1Q      0.057700
     46 H14        -9.0310    0.6540   -2.0430 ha        1 D1Q      0.178000
     47 H16        -8.9570   -3.2360   -0.2310 ha        1 D1Q      0.157000
     48 H17        -6.4520   -3.2910   -0.4040 ha        1 D1Q      0.110000
     49 HN19       -5.3930    1.0240   -1.9360 hn        1 D1Q      0.321500
     50 H30        -4.8140    6.0670   -6.3850 h1        1 D1Q      0.043700
     51 H30A       -5.3090    6.9770   -4.8800 h1        1 D1Q      0.043700
     52 H32        -2.1140    5.0320   -5.8380 h1        1 D1Q      0.033700
     53 H32A       -1.3000    6.0570   -4.5700 h1        1 D1Q      0.033700
     54 H33        -2.4930    5.0130   -2.7630 hc        1 D1Q      0.066700
     55 H33A       -1.9140    3.6940   -3.8670 hc        1 D1Q      0.066700
     56 H34        -2.7500    7.1510   -7.0310 h1        1 D1Q      0.015700
     57 H35        -4.8350    8.3960   -6.5850 hc        1 D1Q      0.038700
     58 H35A       -4.0820    9.2560   -5.1740 hc        1 D1Q      0.038700
     59 H35B       -3.4700    9.5490   -6.8570 hc        1 D1Q      0.038700
     60 H36        -0.6630    7.5570   -5.8470 hc        1 D1Q      0.038700
     61 H36A       -1.3270    9.1540   -6.3660 hc        1 D1Q      0.038700
     62 H36B       -1.4640    8.6430   -4.6310 hc        1 D1Q      0.038700
@<TRIPOS>BOND
     1    1    2 ar  
     2    1    6 ar  
     3    1   37 1   
     4    2    3 ar  
     5    2   38 1   
     6    3    4 ar  
     7    3    7 1   
     8    4    5 ar  
     9    4   39 1   
    10    5    6 ar  
    11    5   40 1   
    12    6    8 1   
    13    8    9 1   
    14    8   41 1   
    15    9   10 1   
    16    9   18 2   
    17   10   11 1   
    18   10   42 1   
    19   10   43 1   
    20   11   12 1   
    21   11   44 1   
    22   11   45 1   
    23   12   13 ar  
    24   12   17 ar  
    25   13   14 ar  
    26   13   19 1   
    27   14   15 ar  
    28   14   46 1   
    29   15   16 ar  
    30   15   23 1   
    31   16   17 ar  
    32   16   47 1   
    33   17   48 1   
    34   19   20 1   
    35   19   49 1   
    36   20   21 1   
    37   20   22 2   
    38   21   26 2   
    39   21   29 1   
    40   23   24 1   
    41   23   25 1   
    42   26   27 1   
    43   27   28 2   
    44   27   33 1   
    45   28   29 1   
    46   28   30 1   
    47   30   31 1   
    48   30   50 1   
    49   30   51 1   
    50   31   32 1   
    51   31   34 1   
    52   32   33 1   
    53   32   52 1   
    54   32   53 1   
    55   33   54 1   
    56   33   55 1   
    57   34   35 1   
    58   34   36 1   
    59   34   56 1   
    60   35   57 1   
    61   35   58 1   
    62   35   59 1   
    63   36   60 1   
    64   36   61 1   
    65   36   62 1   
@<TRIPOS>SUBSTRUCTURE
     1 D1Q         1 TEMP              0 ****  ****    0 ROOT
