@<TRIPOS>MOLECULE
D1Q
   62    65     1     0     0
SMALL
bcc


@<TRIPOS>ATOM
      1 C1         -5.3050   -1.2790    0.7180 ca        1 D1Q     -0.172000
      2 C2         -6.6060   -0.7890    0.7520 ca        1 D1Q     -0.096500
      3 C3         -7.2500   -0.4110   -0.4270 ca        1 D1Q     -0.022600
      4 C4         -6.5890   -0.5220   -1.6530 ca        1 D1Q     -0.096500
      5 C5         -5.2900   -1.0100   -1.6980 ca        1 D1Q     -0.172000
      6 C6         -4.6180   -1.4000   -0.5110 ca        1 D1Q      0.090600
      7 CL7        -8.8440    0.1880   -0.3740 cl        1 D1Q     -0.113400
      8 N8         -3.3120   -1.8880   -0.6180 n         1 D1Q     -0.481100
      9 C9         -2.4610   -2.3040    0.4090 c         1 D1Q      0.667100
     10 C10        -1.0940   -2.7880   -0.0430 c3        1 D1Q     -0.151400
     11 C11        -0.1440   -2.9410    1.1320 c3        1 D1Q     -0.019100
     12 C12         1.1690   -3.4790    0.6800 ca        1 D1Q     -0.155300
     13 C13         2.2150   -2.6530    0.1950 ca        1 D1Q      0.018600
     14 C14         3.4260   -3.2410   -0.2230 ca        1 D1Q     -0.103000
     15 C15         3.5950   -4.6250   -0.1850 ca        1 D1Q     -0.104600
     16 C16         2.5640   -5.4330    0.3020 ca        1 D1Q     -0.116000
     17 C17         1.3700   -4.8640    0.7270 ca        1 D1Q     -0.140000
     18 O18        -2.8080   -2.2950    1.6020 o         1 D1Q     -0.586100
     19 N19         2.0060   -1.2570    0.0800 n         1 D1Q     -0.440100
     20 C20         2.9580   -0.2950    0.3230 c         1 D1Q      0.586600
     21 C21         2.5260    1.1350    0.1630 cc        1 D1Q      0.318900
     22 O22         4.1450   -0.5260    0.6250 o         1 D1Q     -0.578100
     23 C23         4.8830   -5.2630   -0.6960 c         1 D1Q      0.909200
     24 O24         5.0500   -6.4950   -0.4750 o         1 D1Q     -0.822800
     25 O25         5.6980   -4.5310   -1.3220 o         1 D1Q     -0.822800
     26 N26         1.2570    1.5690    0.1920 nd        1 D1Q     -0.624000
     27 C27         1.2490    2.9420    0.0330 cd        1 D1Q      0.344600
     28 C28         2.5150    3.5250   -0.1170 cc        1 D1Q     -0.248700
     29 S29         3.7010    2.3620   -0.0560 ss        1 D1Q      0.059700
     30 C30         2.7150    4.9820   -0.2990 c3        1 D1Q      0.255100
     31 N31         1.4850    5.7590   -0.4500 n3        1 D1Q     -0.722600
     32 C32         0.3560    5.2340    0.3070 c3        1 D1Q      0.169800
     33 C33         0.0210    3.7720   -0.0020 c3        1 D1Q     -0.103700
     34 C34         1.7230    7.1870   -0.1750 c3        1 D1Q      0.184500
     35 C35         2.9030    7.7420   -0.9790 c3        1 D1Q     -0.094600
     36 C36         0.4990    8.0550   -0.4760 c3        1 D1Q     -0.094600
     37 H1         -4.8190   -1.5690    1.6640 ha        1 D1Q      0.157000
     38 H2         -7.1240   -0.7020    1.7200 ha        1 D1Q      0.143000
     39 H4         -7.0930   -0.2250   -2.5850 ha        1 D1Q      0.143000
     40 H5         -4.7880   -1.0880   -2.6750 ha        1 D1Q      0.157000
     41 HN8        -2.9420   -1.9210   -1.5420 hn        1 D1Q      0.317500
     42 H10        -1.2230   -3.7830   -0.5480 hc        1 D1Q      0.071700
     43 H10A       -0.6600   -2.0780   -0.7960 hc        1 D1Q      0.071700
     44 H11        -0.0330   -1.9580    1.6610 hc        1 D1Q      0.057700
     45 H11A       -0.6070   -3.6430    1.8790 hc        1 D1Q      0.057700
     46 H14         4.2670   -2.6240   -0.5870 ha        1 D1Q      0.178000
     47 H16         2.7270   -6.5230    0.3380 ha        1 D1Q      0.157000
     48 H17         0.5640   -5.5060    1.1110 ha        1 D1Q      0.110000
     49 HN19        1.0580   -0.9680   -0.0050 hn        1 D1Q      0.321500
     50 H30         3.3380    5.3590    0.5700 h1        1 D1Q      0.043700
     51 H30A        3.3090    5.1550   -1.2450 h1        1 D1Q      0.043700
     52 H32         0.5220    5.3350    1.4200 h1        1 D1Q      0.033700
     53 H32A       -0.5510    5.8460    0.0370 h1        1 D1Q      0.033700
     54 H33        -0.4440    3.6910   -1.0220 hc        1 D1Q      0.066700
     55 H33A       -0.7320    3.4130    0.7490 hc        1 D1Q      0.066700
     56 H34         1.9720    7.3270    0.9250 h1        1 D1Q      0.015700
     57 H35         2.9770    8.8420   -0.8050 hc        1 D1Q      0.038700
     58 H35A        3.8650    7.2760   -0.6590 hc        1 D1Q      0.038700
     59 H35B        2.7600    7.5610   -2.0710 hc        1 D1Q      0.038700
     60 H36        -0.3070    7.8870    0.2780 hc        1 D1Q      0.038700
     61 H36A        0.7940    9.1310   -0.4300 hc        1 D1Q      0.038700
     62 H36B        0.0930    7.8400   -1.4930 hc        1 D1Q      0.038700
@<TRIPOS>BOND
     1    1    2 ar  
     2    1    6 ar  
     3    1   37 1   
     4    2    3 ar  
     5    2   38 1   
     6    3    4 ar  
     7    3    7 1   
     8    4    5 ar  
     9    4   39 1   
    10    5    6 ar  
    11    5   40 1   
    12    6    8 1   
    13    8    9 1   
    14    8   41 1   
    15    9   10 1   
    16    9   18 2   
    17   10   11 1   
    18   10   42 1   
    19   10   43 1   
    20   11   12 1   
    21   11   44 1   
    22   11   45 1   
    23   12   13 ar  
    24   12   17 ar  
    25   13   14 ar  
    26   13   19 1   
    27   14   15 ar  
    28   14   46 1   
    29   15   16 ar  
    30   15   23 1   
    31   16   17 ar  
    32   16   47 1   
    33   17   48 1   
    34   19   20 1   
    35   19   49 1   
    36   20   21 1   
    37   20   22 2   
    38   21   26 2   
    39   21   29 1   
    40   23   24 1   
    41   23   25 1   
    42   26   27 1   
    43   27   28 2   
    44   27   33 1   
    45   28   29 1   
    46   28   30 1   
    47   30   31 1   
    48   30   50 1   
    49   30   51 1   
    50   31   32 1   
    51   31   34 1   
    52   32   33 1   
    53   32   52 1   
    54   32   53 1   
    55   33   54 1   
    56   33   55 1   
    57   34   35 1   
    58   34   36 1   
    59   34   56 1   
    60   35   57 1   
    61   35   58 1   
    62   35   59 1   
    63   36   60 1   
    64   36   61 1   
    65   36   62 1   
@<TRIPOS>SUBSTRUCTURE
     1 D1Q         1 TEMP              0 ****  ****    0 ROOT
