@<TRIPOS>MOLECULE
D1R
   81    84     1     0     0
SMALL
bcc


@<TRIPOS>ATOM
      1 C39        -0.8780   -0.0950    3.6620 c3        1 D1R      0.078500
      2 C40        -1.5610   -1.0280    4.6830 c3        1 D1R      0.161800
      3 N4         -1.4830   -2.4320    4.3130 n3        1 D1R     -0.732600
      4 C33        -2.1530   -3.2930    5.2620 c3        1 D1R      0.156100
      5 C49        -0.1080   -2.8410    4.0610 c3        1 D1R      0.161800
      6 C48         0.6030   -1.9530    3.0250 c3        1 D1R      0.078500
      7 N3          0.4520   -0.5300    3.2860 n         1 D1R     -0.432800
      8 C8          1.2510    0.3120    2.4770 c         1 D1R      0.757100
      9 O2          2.0660   -0.1810    1.6500 o         1 D1R     -0.690100
     10 N1          1.1550    1.7090    2.6120 n         1 D1R     -0.526900
     11 C9          2.1710    2.5320    1.9970 c3        1 D1R      0.035700
     12 C10         1.8430    4.0330    2.0680 c3        1 D1R     -0.040100
     13 C11         0.5700    4.3740    1.3800 ca        1 D1R     -0.078300
     14 C12         0.4660    4.2600   -0.0120 ca        1 D1R     -0.124000
     15 C13        -0.7220    4.5980   -0.6580 ca        1 D1R     -0.127000
     16 C14        -1.8140    5.0560    0.0790 ca        1 D1R     -0.129000
     17 C15        -1.7150    5.1750    1.4650 ca        1 D1R     -0.127000
     18 C16        -0.5290    4.8350    2.1140 ca        1 D1R     -0.124000
     19 C17         3.5540    2.3370    2.6940 c         1 D1R      0.620100
     20 O3          3.7580    2.8740    3.7990 o         1 D1R     -0.609100
     21 N2          4.4850    1.6070    1.9840 n         1 D1R     -0.529900
     22 C18         5.7080    1.0390    2.5180 c3        1 D1R      0.108700
     23 C19         6.4160    1.8730    3.5910 c3        1 D1R     -0.081400
     24 C20         6.8670    3.2220    3.0640 c3        1 D1R     -0.030100
     25 C21         7.4450    4.0600    4.1510 ca        1 D1R     -0.080300
     26 C22         6.6070    4.5560    5.1600 ca        1 D1R     -0.127000
     27 C23         7.1300    5.3540    6.1750 ca        1 D1R     -0.131500
     28 C24         8.4910    5.6640    6.1920 ca        1 D1R     -0.134000
     29 C25         9.3270    5.1730    5.1900 ca        1 D1R     -0.131500
     30 C26         8.8070    4.3740    4.1730 ca        1 D1R     -0.127000
     31 C27         5.5250   -0.3930    3.0610 c3        1 D1R     -0.080400
     32 C28         5.1140   -1.3630    1.9780 c3        1 D1R     -0.326600
     33 S1          4.8880   -2.9530    2.5640 sy        1 D1R      1.389300
     34 O4          3.8290   -2.9670    3.4850 o         1 D1R     -0.659800
     35 O5          6.1130   -3.4830    2.9970 o         1 D1R     -0.659800
     36 CAB         4.4140   -3.6860    1.1330 ca        1 D1R     -0.388500
     37 CAA         5.2210   -4.6600    0.5320 ca        1 D1R     -0.019500
     38 CAC         4.8220   -5.2950   -0.6410 ca        1 D1R     -0.157000
     39 CAE         3.6030   -4.9610   -1.2320 ca        1 D1R     -0.066000
     40 CAF         2.7870   -3.9930   -0.6460 ca        1 D1R     -0.157000
     41 CAD         3.1920   -3.3610    0.5270 ca        1 D1R     -0.019500
     42 H391       -1.5370   -0.0120    2.7490 h1        1 D1R      0.056200
     43 H392       -0.8240    0.9200    4.1480 h1        1 D1R      0.056200
     44 H401       -1.1100   -0.8380    5.7010 h1        1 D1R      0.044950
     45 H402       -2.6480   -0.7380    4.7270 h1        1 D1R      0.044950
     46 H331       -3.2240   -2.9720    5.3470 h1        1 D1R      0.034700
     47 H332       -1.6910   -3.2720    6.2870 h1        1 D1R      0.034700
     48 H333       -2.1200   -4.3450    4.8770 h1        1 D1R      0.034700
     49 H491       -0.1270   -3.8880    3.6470 h1        1 D1R      0.044950
     50 H492        0.5060   -2.8530    5.0080 h1        1 D1R      0.044950
     51 H481        1.7060   -2.1970    3.0650 h1        1 D1R      0.056200
     52 H482        0.2200   -2.2010    1.9930 h1        1 D1R      0.056200
     53 HN1         0.7730    2.0750    3.4570 hn        1 D1R      0.312500
     54 H9          2.2290    2.2280    0.9090 h1        1 D1R      0.087700
     55 H101        2.6940    4.5780    1.5770 hc        1 D1R      0.072700
     56 H102        1.8170    4.3590    3.1430 hc        1 D1R      0.072700
     57 H12         1.3270    3.9020   -0.5960 ha        1 D1R      0.130000
     58 H13        -0.7960    4.5050   -1.7520 ha        1 D1R      0.132000
     59 H14        -2.7500    5.3230   -0.4320 ha        1 D1R      0.132000
     60 H15        -2.5740    5.5380    2.0480 ha        1 D1R      0.132000
     61 H16        -0.4550    4.9350    3.2070 ha        1 D1R      0.130000
     62 HN2         4.1010    1.0630    1.2360 hn        1 D1R      0.315500
     63 H18         6.4080    0.9720    1.6250 h1        1 D1R      0.050700
     64 H191        7.3130    1.2950    3.9380 hc        1 D1R      0.066200
     65 H192        5.7400    2.0180    4.4760 hc        1 D1R      0.066200
     66 H201        7.6180    3.0730    2.2440 hc        1 D1R      0.049700
     67 H202        5.9870    3.7660    2.6240 hc        1 D1R      0.049700
     68 H22         5.5330    4.3060    5.1380 ha        1 D1R      0.139500
     69 H23         6.4690    5.7390    6.9650 ha        1 D1R      0.128000
     70 H24         8.9020    6.2930    6.9940 ha        1 D1R      0.128000
     71 H25        10.3990    5.4160    5.2010 ha        1 D1R      0.128000
     72 H26         9.4710    3.9900    3.3840 ha        1 D1R      0.139500
     73 H271        6.5030   -0.7270    3.5020 hc        1 D1R      0.069200
     74 H272        4.7590   -0.3910    3.8820 hc        1 D1R      0.069200
     75 H281        4.1550   -1.0060    1.5060 h1        1 D1R      0.120700
     76 H282        5.8840   -1.3340    1.1630 h1        1 D1R      0.120700
     77 HAA         6.1840   -4.9270    1.0040 ha        1 D1R      0.162000
     78 HAC         5.4670   -6.0590   -1.1000 ha        1 D1R      0.142500
     79 HAE         3.2840   -5.4620   -2.1590 ha        1 D1R      0.137000
     80 HAF         1.8250   -3.7270   -1.1080 ha        1 D1R      0.142500
     81 HAD         2.5410   -2.5930    0.9890 ha        1 D1R      0.162000
@<TRIPOS>BOND
     1    1    2 1   
     2    1    7 1   
     3    1   42 1   
     4    1   43 1   
     5    2    3 1   
     6    2   44 1   
     7    2   45 1   
     8    3    4 1   
     9    3    5 1   
    10    4   46 1   
    11    4   47 1   
    12    4   48 1   
    13    5    6 1   
    14    5   49 1   
    15    5   50 1   
    16    6    7 1   
    17    6   51 1   
    18    6   52 1   
    19    7    8 1   
    20    8    9 2   
    21    8   10 1   
    22   10   11 1   
    23   10   53 1   
    24   11   12 1   
    25   11   19 1   
    26   11   54 1   
    27   12   13 1   
    28   12   55 1   
    29   12   56 1   
    30   13   14 ar  
    31   13   18 ar  
    32   14   15 ar  
    33   14   57 1   
    34   15   16 ar  
    35   15   58 1   
    36   16   17 ar  
    37   16   59 1   
    38   17   18 ar  
    39   17   60 1   
    40   18   61 1   
    41   19   20 2   
    42   19   21 1   
    43   21   22 1   
    44   21   62 1   
    45   22   23 1   
    46   22   31 1   
    47   22   63 1   
    48   23   24 1   
    49   23   64 1   
    50   23   65 1   
    51   24   25 1   
    52   24   66 1   
    53   24   67 1   
    54   25   26 ar  
    55   25   30 ar  
    56   26   27 ar  
    57   26   68 1   
    58   27   28 ar  
    59   27   69 1   
    60   28   29 ar  
    61   28   70 1   
    62   29   30 ar  
    63   29   71 1   
    64   30   72 1   
    65   31   32 1   
    66   31   73 1   
    67   31   74 1   
    68   32   33 1   
    69   32   75 1   
    70   32   76 1   
    71   33   34 2   
    72   33   35 2   
    73   33   36 1   
    74   36   37 ar  
    75   36   41 ar  
    76   37   38 ar  
    77   37   77 1   
    78   38   39 ar  
    79   38   78 1   
    80   39   40 ar  
    81   39   79 1   
    82   40   41 ar  
    83   40   80 1   
    84   41   81 1   
@<TRIPOS>SUBSTRUCTURE
     1 D1R         1 TEMP              0 ****  ****    0 ROOT
