@<TRIPOS>MOLECULE
D1R
   83    86     1     0     0
SMALL
bcc


@<TRIPOS>ATOM
      1 C39        -0.9010   -0.5180    1.5790 c3        1 D1R      0.070000
      2 C40        -0.1700   -0.2670    2.9200 c3        1 D1R      0.161300
      3 N4         -1.0930   -0.1360    4.0310 n3        1 D1R     -0.735600
      4 C33        -0.4600    0.2820    5.2630 c3        1 D1R      0.152100
      5 C49        -1.9070   -1.3310    4.1700 c3        1 D1R      0.161300
      6 C48        -2.7340   -1.6100    2.9010 c3        1 D1R      0.070000
      7 N3         -1.9480   -1.5250    1.6630 n         1 D1R     -0.376800
      8 C8         -2.4490   -2.1720    0.5790 c         1 D1R      0.651100
      9 O2         -3.3510   -3.0340    0.5730 o         1 D1R     -0.611100
     10 N1         -1.8490   -1.9100   -0.8110 n4        1 D1R     -0.670800
     11 C9         -2.8510   -2.1290   -1.9030 c3        1 D1R      0.071500
     12 C10        -2.6590   -1.1130   -3.0550 c3        1 D1R     -0.045100
     13 C11        -2.6770    0.2830   -2.5500 ca        1 D1R     -0.182300
     14 C12        -3.8930    0.9110   -2.2520 ca        1 D1R     -0.129500
     15 C13        -3.9090    2.2440   -1.8420 ca        1 D1R     -0.112000
     16 C14        -2.7150    2.9580   -1.7330 ca        1 D1R     -0.085000
     17 C15        -1.5010    2.3360   -2.0340 ca        1 D1R     -0.112000
     18 C16        -1.4800    1.0030   -2.4410 ca        1 D1R     -0.129500
     19 C17        -2.7800   -3.5440   -2.5070 c         1 D1R      0.526100
     20 O3         -2.3900   -3.7680   -3.6410 o         1 D1R     -0.360100
     21 N2         -3.2690   -4.6570   -1.6430 n4        1 D1R     -0.666800
     22 C18        -3.3300   -6.0370   -2.2620 c3        1 D1R      0.141500
     23 C19        -4.3170   -6.1050   -3.4300 c3        1 D1R     -0.118400
     24 C20        -5.7180   -5.6640   -3.0500 c3        1 D1R     -0.031100
     25 C21        -6.6960   -6.0280   -4.1130 ca        1 D1R     -0.125300
     26 C22        -6.6670   -5.3700   -5.3480 ca        1 D1R     -0.121000
     27 C23        -7.5900   -5.6990   -6.3390 ca        1 D1R     -0.114000
     28 C24        -8.5490   -6.6850   -6.1010 ca        1 D1R     -0.099000
     29 C25        -8.5820   -7.3410   -4.8700 ca        1 D1R     -0.114000
     30 C26        -7.6590   -7.0140   -3.8770 ca        1 D1R     -0.121000
     31 C27        -1.9650   -6.5750   -2.6980 c3        1 D1R     -0.081400
     32 C28        -0.9940   -6.8280   -1.5680 c3        1 D1R     -0.328600
     33 S1          0.1710   -5.5830   -1.3520 sy        1 D1R      1.417300
     34 O4         -0.6110   -4.4740   -0.8440 o         1 D1R     -0.713300
     35 O5          0.7870   -5.2630   -2.5610 o         1 D1R     -0.713300
     36 CAB         1.1570   -6.2180   -0.2310 ca        1 D1R     -0.468500
     37 CAA         2.4530   -6.6340   -0.5980 ca        1 D1R     -0.006500
     38 CAC         3.3270   -7.1730    0.3390 ca        1 D1R     -0.140500
     39 CAE         2.9250   -7.3110    1.6690 ca        1 D1R     -0.014000
     40 CAF         1.6450   -6.8990    2.0570 ca        1 D1R     -0.140500
     41 CAD         0.7770   -6.3610    1.1180 ca        1 D1R     -0.006500
     42 H391       -1.3600    0.4530    1.2300 h1        1 D1R      0.075950
     43 H392       -0.1100   -0.8460    0.8470 h1        1 D1R      0.075950
     44 H401        0.5790   -1.0970    3.0780 h1        1 D1R      0.068700
     45 H402        0.3970    0.7010    2.8080 h1        1 D1R      0.068700
     46 H331       -1.2580    0.4440    6.0360 h1        1 D1R      0.057367
     47 H332        0.0690    1.2550    5.0820 h1        1 D1R      0.057367
     48 H333        0.2800   -0.4680    5.6550 h1        1 D1R      0.057367
     49 H491       -1.2900   -2.2450    4.4140 h1        1 D1R      0.068700
     50 H492       -2.6420   -1.1700    5.0100 h1        1 D1R      0.068700
     51 H481       -3.1750   -2.6440    2.9790 h1        1 D1R      0.075950
     52 H482       -3.5730   -0.8580    2.8270 h1        1 D1R      0.075950
     53 HN1        -1.0320   -2.5400   -0.9290 hn        1 D1R      0.495300
     54 H9         -3.8870   -1.9690   -1.4640 hx        1 D1R      0.144700
     55 H101       -1.7040   -1.3330   -3.6050 hc        1 D1R      0.107700
     56 H102       -3.5040   -1.2770   -3.7800 hc        1 D1R      0.107700
     57 H12        -4.8410    0.3640   -2.3680 ha        1 D1R      0.138000
     58 H13        -4.8700    2.7400   -1.6240 ha        1 D1R      0.165000
     59 H14        -2.7310    4.0170   -1.4270 ha        1 D1R      0.169000
     60 H15        -0.5600    2.9070   -1.9740 ha        1 D1R      0.165000
     61 H16        -0.5240    0.5390   -2.7320 ha        1 D1R      0.138000
     62 HN2        -4.2150   -4.4120   -1.3110 hn        1 D1R      0.486300
     63 H18        -3.7260   -6.6900   -1.4200 hx        1 D1R      0.107700
     64 H191       -3.9410   -5.5050   -4.3010 hc        1 D1R      0.101200
     65 H192       -4.3540   -7.1800   -3.7650 hc        1 D1R      0.101200
     66 H201       -6.0170   -6.1410   -2.0780 hc        1 D1R      0.034700
     67 H202       -5.7480   -4.5490   -2.9050 hc        1 D1R      0.034700
     68 H22        -5.9150   -4.5910   -5.5400 ha        1 D1R      0.125500
     69 H23        -7.5640   -5.1800   -7.3090 ha        1 D1R      0.152000
     70 H24        -9.2790   -6.9440   -6.8840 ha        1 D1R      0.156000
     71 H25        -9.3400   -8.1180   -4.6790 ha        1 D1R      0.152000
     72 H26        -7.6950   -7.5340   -2.9080 ha        1 D1R      0.125500
     73 H271       -1.4980   -5.9060   -3.4750 hc        1 D1R      0.110700
     74 H272       -2.1780   -7.5540   -3.2190 hc        1 D1R      0.110700
     75 H281       -0.4700   -7.8030   -1.7930 h1        1 D1R      0.135700
     76 H282       -1.5520   -7.0380   -0.6170 h1        1 D1R      0.135700
     77 HAA         2.7800   -6.5220   -1.6500 ha        1 D1R      0.151500
     78 HAC         4.3360   -7.4930    0.0290 ha        1 D1R      0.171500
     79 HAE         3.6150   -7.7440    2.4150 ha        1 D1R      0.173000
     80 HAF         1.3280   -7.0070    3.1070 ha        1 D1R      0.171500
     81 HAD        -0.2290   -6.0340    1.4290 ha        1 D1R      0.151500
     82 H121       -1.5240   -0.9290   -0.8830 hn        1 D1R      0.495300
     83 H221       -2.6430   -4.6950   -0.8130 hn        1 D1R      0.486300
@<TRIPOS>BOND
     1    1    2 1   
     2    1    7 1   
     3    1   42 1   
     4    1   43 1   
     5    2    3 1   
     6    2   44 1   
     7    2   45 1   
     8    3    4 1   
     9    3    5 1   
    10    4   46 1   
    11    4   47 1   
    12    4   48 1   
    13    5    6 1   
    14    5   49 1   
    15    5   50 1   
    16    6    7 1   
    17    6   51 1   
    18    6   52 1   
    19    7    8 1   
    20    8    9 2   
    21    8   10 1   
    22   10   11 1   
    23   10   53 1   
    24   10   82 1   
    25   11   12 1   
    26   11   19 1   
    27   11   54 1   
    28   12   13 1   
    29   12   55 1   
    30   12   56 1   
    31   13   14 ar  
    32   13   18 ar  
    33   14   15 ar  
    34   14   57 1   
    35   15   16 ar  
    36   15   58 1   
    37   16   17 ar  
    38   16   59 1   
    39   17   18 ar  
    40   17   60 1   
    41   18   61 1   
    42   19   20 2   
    43   19   21 1   
    44   21   22 1   
    45   21   62 1   
    46   21   83 1   
    47   22   23 1   
    48   22   31 1   
    49   22   63 1   
    50   23   24 1   
    51   23   64 1   
    52   23   65 1   
    53   24   25 1   
    54   24   66 1   
    55   24   67 1   
    56   25   26 ar  
    57   25   30 ar  
    58   26   27 ar  
    59   26   68 1   
    60   27   28 ar  
    61   27   69 1   
    62   28   29 ar  
    63   28   70 1   
    64   29   30 ar  
    65   29   71 1   
    66   30   72 1   
    67   31   32 1   
    68   31   73 1   
    69   31   74 1   
    70   32   33 1   
    71   32   75 1   
    72   32   76 1   
    73   33   34 2   
    74   33   35 2   
    75   33   36 1   
    76   36   37 ar  
    77   36   41 ar  
    78   37   38 ar  
    79   37   77 1   
    80   38   39 ar  
    81   38   78 1   
    82   39   40 ar  
    83   39   79 1   
    84   40   41 ar  
    85   40   80 1   
    86   41   81 1   
@<TRIPOS>SUBSTRUCTURE
     1 D1R         1 TEMP              0 ****  ****    0 ROOT
