@<TRIPOS>MOLECULE
D1R
   83    86     1     0     0
SMALL
bcc


@<TRIPOS>ATOM
      1 C39        -0.9530   -0.5250    1.6150 c3        1 D1R      0.070000
      2 C40        -0.2360   -0.2770    2.9640 c3        1 D1R      0.161300
      3 N4         -1.1690   -0.1690    4.0690 n3        1 D1R     -0.735600
      4 C33        -0.5510    0.2460    5.3090 c3        1 D1R      0.152100
      5 C49        -1.9680   -1.3760    4.1900 c3        1 D1R      0.161300
      6 C48        -2.7820   -1.6530    2.9120 c3        1 D1R      0.070000
      7 N3         -1.9860   -1.5480    1.6810 n         1 D1R     -0.376800
      8 C8         -2.4690   -2.1920    0.5870 c         1 D1R      0.651100
      9 O2         -3.3590   -3.0670    0.5670 o         1 D1R     -0.611100
     10 N1         -1.8610   -1.9100   -0.7950 n4        1 D1R     -0.670800
     11 C9         -2.8500   -2.1350   -1.8980 c3        1 D1R      0.071500
     12 C10        -2.6640   -1.1070   -3.0390 c3        1 D1R     -0.045100
     13 C11        -2.7070    0.2840   -2.5230 ca        1 D1R     -0.182300
     14 C12        -3.9340    0.8930   -2.2320 ca        1 D1R     -0.129500
     15 C13        -3.9740    2.2210   -1.8120 ca        1 D1R     -0.112000
     16 C14        -2.7910    2.9520   -1.6860 ca        1 D1R     -0.085000
     17 C15        -1.5650    2.3500   -1.9810 ca        1 D1R     -0.112000
     18 C16        -1.5210    1.0210   -2.3990 ca        1 D1R     -0.129500
     19 C17        -2.7540   -3.5440   -2.5110 c         1 D1R      0.526100
     20 O3         -2.3490   -3.7530   -3.6430 o         1 D1R     -0.360100
     21 N2         -3.2360   -4.6700   -1.6620 n4        1 D1R     -0.666800
     22 C18        -3.2730   -6.0460   -2.2920 c3        1 D1R      0.141500
     23 C19        -4.2470   -6.1180   -3.4700 c3        1 D1R     -0.118400
     24 C20        -5.6570   -5.6990   -3.1010 c3        1 D1R     -0.031100
     25 C21        -6.6190   -6.0670   -4.1760 ca        1 D1R     -0.125300
     26 C22        -6.5860   -5.4000   -5.4070 ca        1 D1R     -0.121000
     27 C23        -7.4950   -5.7340   -6.4090 ca        1 D1R     -0.114000
     28 C24        -8.4430   -6.7340   -6.1880 ca        1 D1R     -0.099000
     29 C25        -8.4800   -7.3990   -4.9620 ca        1 D1R     -0.114000
     30 C26        -7.5720   -7.0680   -3.9570 ca        1 D1R     -0.121000
     31 C27        -1.8960   -6.5620   -2.7190 c3        1 D1R     -0.081400
     32 C28        -0.9330   -6.8100   -1.5800 c3        1 D1R     -0.328600
     33 S1          0.2130   -5.5510   -1.3440 sy        1 D1R      1.417300
     34 O4         -0.5880   -4.4570   -0.8370 o         1 D1R     -0.713300
     35 O5          0.8370   -5.2140   -2.5450 o         1 D1R     -0.713300
     36 CAB         1.1970   -6.1810   -0.2180 ca        1 D1R     -0.468500
     37 CAA         2.5020   -6.5760   -0.5760 ca        1 D1R     -0.006500
     38 CAC         3.3740   -7.1110    0.3660 ca        1 D1R     -0.140500
     39 CAE         2.9610   -7.2640    1.6910 ca        1 D1R     -0.014000
     40 CAF         1.6720   -6.8720    2.0690 ca        1 D1R     -0.140500
     41 CAD         0.8060   -6.3400    1.1250 ca        1 D1R     -0.006500
     42 H391       -0.1520   -0.8360    0.8860 h1        1 D1R      0.075950
     43 H392       -1.4230    0.4420    1.2710 h1        1 D1R      0.075950
     44 H401        0.3190    0.7000    2.8650 h1        1 D1R      0.068700
     45 H402        0.5230   -1.0990    3.1190 h1        1 D1R      0.068700
     46 H331       -1.3560    0.3900    6.0770 h1        1 D1R      0.057367
     47 H332        0.1960   -0.4970    5.7000 h1        1 D1R      0.057367
     48 H333       -0.0340    1.2280    5.1420 h1        1 D1R      0.057367
     49 H491       -1.3410   -2.2840    4.4310 h1        1 D1R      0.068700
     50 H492       -2.7120   -1.2320    5.0250 h1        1 D1R      0.068700
     51 H481       -3.6290   -0.9120    2.8380 h1        1 D1R      0.075950
     52 H482       -3.2100   -2.6940    2.9780 h1        1 D1R      0.075950
     53 HN1        -1.0350   -2.5270   -0.9110 hn        1 D1R      0.495300
     54 H9         -3.8920   -1.9930   -1.4660 hx        1 D1R      0.144700
     55 H101       -1.7000   -1.3080   -3.5830 hc        1 D1R      0.107700
     56 H102       -3.5000   -1.2780   -3.7730 hc        1 D1R      0.107700
     57 H12        -4.8730    0.3330   -2.3610 ha        1 D1R      0.138000
     58 H13        -4.9430    2.7010   -1.5980 ha        1 D1R      0.165000
     59 H14        -2.8250    4.0090   -1.3720 ha        1 D1R      0.169000
     60 H15        -0.6330    2.9350   -1.9080 ha        1 D1R      0.165000
     61 H16        -0.5560    0.5730   -2.6840 ha        1 D1R      0.138000
     62 HN2        -2.6170   -4.7070   -0.8260 hn        1 D1R      0.486300
     63 H18        -3.6680   -6.7110   -1.4590 hx        1 D1R      0.107700
     64 H191       -3.8700   -5.5060   -4.3320 hc        1 D1R      0.101200
     65 H192       -4.2650   -7.1910   -3.8140 hc        1 D1R      0.101200
     66 H201       -5.9600   -6.1880   -2.1350 hc        1 D1R      0.034700
     67 H202       -5.7040   -4.5860   -2.9470 hc        1 D1R      0.034700
     68 H22        -5.8430   -4.6100   -5.5850 ha        1 D1R      0.125500
     69 H23        -7.4650   -5.2070   -7.3750 ha        1 D1R      0.152000
     70 H24        -9.1620   -6.9970   -6.9800 ha        1 D1R      0.156000
     71 H25        -9.2300   -8.1870   -4.7850 ha        1 D1R      0.152000
     72 H26        -7.6110   -7.5950   -2.9920 ha        1 D1R      0.125500
     73 H271       -1.4310   -5.8810   -3.4860 hc        1 D1R      0.110700
     74 H272       -2.0900   -7.5400   -3.2480 hc        1 D1R      0.110700
     75 H281       -1.4970   -7.0340   -0.6360 h1        1 D1R      0.135700
     76 H282       -0.3930   -7.7770   -1.8080 h1        1 D1R      0.135700
     77 HAA         2.8380   -6.4520   -1.6230 ha        1 D1R      0.151500
     78 HAC         4.3910   -7.4150    0.0640 ha        1 D1R      0.171500
     79 HAE         3.6500   -7.6940    2.4400 ha        1 D1R      0.173000
     80 HAF         1.3460   -6.9930    3.1150 ha        1 D1R      0.171500
     81 HAD        -0.2070   -6.0280    1.4290 ha        1 D1R      0.151500
     82 H121       -1.5500   -0.9240   -0.8570 hn        1 D1R      0.495300
     83 H221       -4.1880   -4.4410   -1.3370 hn        1 D1R      0.486300
@<TRIPOS>BOND
     1    1    2 1   
     2    1    7 1   
     3    1   42 1   
     4    1   43 1   
     5    2    3 1   
     6    2   44 1   
     7    2   45 1   
     8    3    4 1   
     9    3    5 1   
    10    4   46 1   
    11    4   47 1   
    12    4   48 1   
    13    5    6 1   
    14    5   49 1   
    15    5   50 1   
    16    6    7 1   
    17    6   51 1   
    18    6   52 1   
    19    7    8 1   
    20    8    9 2   
    21    8   10 1   
    22   10   11 1   
    23   10   53 1   
    24   10   82 1   
    25   11   12 1   
    26   11   19 1   
    27   11   54 1   
    28   12   13 1   
    29   12   55 1   
    30   12   56 1   
    31   13   14 ar  
    32   13   18 ar  
    33   14   15 ar  
    34   14   57 1   
    35   15   16 ar  
    36   15   58 1   
    37   16   17 ar  
    38   16   59 1   
    39   17   18 ar  
    40   17   60 1   
    41   18   61 1   
    42   19   20 2   
    43   19   21 1   
    44   21   22 1   
    45   21   62 1   
    46   21   83 1   
    47   22   23 1   
    48   22   31 1   
    49   22   63 1   
    50   23   24 1   
    51   23   64 1   
    52   23   65 1   
    53   24   25 1   
    54   24   66 1   
    55   24   67 1   
    56   25   26 ar  
    57   25   30 ar  
    58   26   27 ar  
    59   26   68 1   
    60   27   28 ar  
    61   27   69 1   
    62   28   29 ar  
    63   28   70 1   
    64   29   30 ar  
    65   29   71 1   
    66   30   72 1   
    67   31   32 1   
    68   31   73 1   
    69   31   74 1   
    70   32   33 1   
    71   32   75 1   
    72   32   76 1   
    73   33   34 2   
    74   33   35 2   
    75   33   36 1   
    76   36   37 ar  
    77   36   41 ar  
    78   37   38 ar  
    79   37   77 1   
    80   38   39 ar  
    81   38   78 1   
    82   39   40 ar  
    83   39   79 1   
    84   40   41 ar  
    85   40   80 1   
    86   41   81 1   
@<TRIPOS>SUBSTRUCTURE
     1 D1R         1 TEMP              0 ****  ****    0 ROOT
