@<TRIPOS>MOLECULE
D1R
   81    77     1     0     0
SMALL
bcc


@<TRIPOS>ATOM
      1 C39         2.7480    3.8180    4.0940 c3        1 D1R     -0.051500
      2 C40         3.2520    5.2600    4.1660 c3        1 D1R     -0.101500
      3 N4          3.9800    5.6420    2.9850 n3        1 D1R     -0.258000
      4 C33         4.3070    7.0670    3.0510 c3        1 D1R     -0.119000
      5 C49         3.2510    5.3740    1.7820 c3        1 D1R     -0.101500
      6 C48         2.7440    3.9300    1.7210 c3        1 D1R     -0.051500
      7 N3          2.0380    3.5600    2.8950 n         1 D1R     -0.274000
      8 C8          0.7190    2.9720    2.8670 c2        1 D1R      0.376000
      9 O2          0.1530    2.6690    3.9280 o         1 D1R     -0.422000
     10 N1          0.1120    2.6500    1.6190 n         1 D1R     -0.367000
     11 C9         -0.9020    1.6940    1.5620 c3        1 D1R      0.025000
     12 C10        -2.2580    2.3940    1.4570 c3        1 D1R     -0.125000
     13 C11        -2.8740    2.5420    2.8780 c2        1 D1R     -0.073000
     14 C12        -3.3350    3.7970    3.3170 c2        1 D1R     -0.128000
     15 C13        -4.0170    3.9050    4.5250 c1        1 D1R     -0.130000
     16 C14        -4.2450    2.7590    5.3070 c1        1 D1R     -0.123000
     17 C15        -3.7900    1.5180    4.8740 c1        1 D1R     -0.123000
     18 C16        -3.1010    1.4080    3.6550 c1        1 D1R     -0.123000
     19 C17        -0.6860    0.7840    0.3200 c2        1 D1R      0.274000
     20 O3         -0.0320    1.1910   -0.6270 o         1 D1R     -0.393000
     21 N2         -1.2040   -0.5770    0.3150 n         1 D1R     -0.368000
     22 C18        -0.8750   -1.4490   -0.7400 c3        1 D1R      0.031000
     23 C19        -0.3170   -2.7720   -0.1620 c3        1 D1R     -0.169000
     24 C20         0.8680   -3.2630   -1.0370 c3        1 D1R     -0.122000
     25 C21         0.8400   -4.8200   -1.1260 c2        1 D1R     -0.074000
     26 C22        -0.2050   -5.4520   -1.7950 c2        1 D1R     -0.125000
     27 C23        -0.1380   -6.8200   -2.0620 c1        1 D1R     -0.128000
     28 C24         0.9870   -7.5650   -1.6530 c1        1 D1R     -0.123000
     29 C25         2.0340   -6.9360   -0.9830 c1        1 D1R     -0.123000
     30 C26         1.9690   -5.5670   -0.7160 c1        1 D1R     -0.127000
     31 C27        -2.1180   -1.7400   -1.5620 c3        1 D1R     -0.149000
     32 C28        -1.8560   -1.3510   -3.0690 c3        1 D1R     -0.862000
     33 S1         -2.2580   -2.7470   -4.1250 s4        1 D1R      2.064800
     34 O4         -3.5540   -2.5820   -4.7460 o         1 D1R     -0.546400
     35 O5         -2.4670   -3.9370   -3.3570 o         1 D1R     -0.546400
     36 CAB        -0.9570   -2.9840   -5.3690 c1        1 D1R     -0.829000
     37 CAA        -1.2930   -3.0830   -6.7200 c2        1 D1R     -0.014000
     38 CAC        -0.3120   -3.3690   -7.6630 c1        1 D1R     -0.155000
     39 CAE         1.0080   -3.5580   -7.2590 c1        1 D1R     -0.123000
     40 CAF         1.3450   -3.4590   -5.9130 c1        1 D1R     -0.123000
     41 CAD         0.3600   -3.1720   -4.9660 c1        1 D1R     -0.018000
     42 H391        2.1500    3.6500    4.8630 h1        1 D1R      0.109000
     43 H392        3.5210    3.2050    4.1490 h1        1 D1R      0.109000
     44 H401        2.4700    5.8700    4.2760 h1        1 D1R      0.083500
     45 H402        3.8400    5.3510    4.9440 h1        1 D1R      0.083500
     46 H331        4.7340    7.3550    2.1870 h1        1 D1R      0.074000
     47 H332        4.9230    7.2230    3.7830 h1        1 D1R      0.074000
     48 H333        3.4850    7.5860    3.2000 h1        1 D1R      0.074000
     49 H491        3.8370    5.5390    1.0120 h1        1 D1R      0.083500
     50 H492        2.4920    5.9760    1.7350 h1        1 D1R      0.083500
     51 H481        3.5150    3.3260    1.6050 h1        1 D1R      0.109000
     52 H482        2.1510    3.8360    0.9520 h1        1 D1R      0.109000
     53 HN1         0.3280    3.1220    0.8790 hn        1 D1R      0.234000
     54 H9         -0.8800    1.1470    2.3730 h1        1 D1R      0.138000
     55 H101       -2.1370    3.2970    1.0500 hc        1 D1R      0.113000
     56 H102       -2.8540    1.8640    0.9000 hc        1 D1R      0.113000
     57 H12        -3.1750    4.5970    2.7700 ha        1 D1R      0.129000
     58 H13        -4.3410    4.7840    4.8320 ha        1 D1R      0.131000
     59 H14        -4.7300    2.8350    6.1660 ha        1 D1R      0.134333
     60 H15        -3.9500    0.7160    5.4230 ha        1 D1R      0.134333
     61 H16        -2.7770    0.5250    3.3480 ha        1 D1R      0.135000
     62 HN2        -1.7780   -0.8370    0.9460 hn        1 D1R      0.256000
     63 H18        -0.1870   -1.0240   -1.3190 h1        1 D1R      0.118000
     64 H191       -0.0030   -2.6210    0.7630 hc        1 D1R      0.095500
     65 H192       -1.0150   -3.4430   -0.1590 hc        1 D1R      0.095500
     66 H201        0.7900   -2.8910   -1.9190 hc        1 D1R      0.090500
     67 H202        1.7240   -2.9710   -0.6290 hc        1 D1R      0.090500
     68 H22        -0.9880   -4.9340   -2.0800 ha        1 D1R      0.134000
     69 H23        -0.8750   -7.2640   -2.5340 ha        1 D1R      0.132000
     70 H24         1.0340   -8.5440   -1.8440 ha        1 D1R      0.134333
     71 H25         2.8210   -7.4570   -0.6970 ha        1 D1R      0.134333
     72 H26         2.7170   -5.1180   -0.2360 ha        1 D1R      0.131000
     73 H271       -2.8800   -1.2070   -1.2100 hc        1 D1R      0.103000
     74 H272       -2.3290   -2.6820   -1.5040 hc        1 D1R      0.103000
     75 H281       -0.9320   -1.1190   -3.1830 h1        1 D1R      0.163000
     76 H282       -2.4210   -0.5790   -3.3140 h1        1 D1R      0.163000
     77 HAA        -2.2180   -2.9510   -7.0040 ha        1 D1R      0.153000
     78 HAC        -0.5480   -3.4380   -8.6090 ha        1 D1R      0.142000
     79 HAE         1.6980   -3.7590   -7.9220 ha        1 D1R      0.134333
     80 HAF         2.2720   -3.5910   -5.6310 ha        1 D1R      0.134333
     81 HAD         0.5950   -3.1030   -4.0280 ha        1 D1R      0.156000
@<TRIPOS>BOND
     1    1    2 1   
     2    1    7 1   
     3    1   42 1   
     4    1   43 1   
     5    2    3 1   
     6    2   44 1   
     7    2   45 1   
     8    3    4 1   
     9    3    5 1   
    10    4   46 1   
    11    4   47 1   
    12    4   48 1   
    13    5    6 1   
    14    5   49 1   
    15    5   50 1   
    16    6    7 1   
    17    6   51 1   
    18    6   52 1   
    19    7    8 1   
    20    8    9 1   
    21    8   10 1   
    22   10   11 1   
    23   10   53 1   
    24   11   12 1   
    25   11   19 1   
    26   11   54 1   
    27   12   13 1   
    28   12   55 1   
    29   12   56 1   
    30   13   14 1   
    31   13   18 1   
    32   14   15 1   
    33   14   57 1   
    34   15   58 1   
    35   16   17 1   
    36   16   59 1   
    37   17   60 1   
    38   18   61 1   
    39   19   20 1   
    40   19   21 1   
    41   21   22 1   
    42   21   62 1   
    43   22   23 1   
    44   22   31 1   
    45   22   63 1   
    46   23   24 1   
    47   23   64 1   
    48   23   65 1   
    49   24   25 1   
    50   24   66 1   
    51   24   67 1   
    52   25   26 1   
    53   25   30 1   
    54   26   27 1   
    55   26   68 1   
    56   27   69 1   
    57   28   29 1   
    58   28   70 1   
    59   29   71 1   
    60   30   72 1   
    61   31   32 1   
    62   31   73 1   
    63   31   74 1   
    64   32   33 1   
    65   32   75 1   
    66   32   76 1   
    67   33   34 1   
    68   33   35 1   
    69   36   37 1   
    70   36   41 1   
    71   37   38 1   
    72   37   77 1   
    73   38   78 1   
    74   39   40 1   
    75   39   79 1   
    76   40   80 1   
    77   41   81 1   
@<TRIPOS>SUBSTRUCTURE
     1 D1R         1 TEMP              0 ****  ****    0 ROOT
