@<TRIPOS>MOLECULE
D1R
   83    86     1     0     0
SMALL
bcc


@<TRIPOS>ATOM
      1 C39        -0.9990   -0.5160    1.6300 c3        1 D1R      0.070000
      2 C40        -0.2960   -0.2650    2.9860 c3        1 D1R      0.161300
      3 N4         -1.2400   -0.1640    4.0830 n3        1 D1R     -0.735600
      4 C33        -0.6360    0.2540    5.3290 c3        1 D1R      0.152100
      5 C49        -2.0320   -1.3770    4.1950 c3        1 D1R      0.161300
      6 C48        -2.8320   -1.6590    2.9100 c3        1 D1R      0.070000
      7 N3         -2.0260   -1.5460    1.6860 n         1 D1R     -0.376800
      8 C8         -2.4940   -2.1920    0.5870 c         1 D1R      0.651100
      9 O2         -3.3790   -3.0730    0.5580 o         1 D1R     -0.611100
     10 N1         -1.8760   -1.9050   -0.7880 ny        1 D1R     -0.670800
     11 C9         -2.8530   -2.1350   -1.9010 c3        1 D1R      0.071500
     12 C10        -2.6630   -1.1060   -3.0400 c3        1 D1R     -0.045100
     13 C11        -2.7210    0.2850   -2.5230 ca        1 D1R     -0.182300
     14 C12        -3.9550    0.8840   -2.2430 ca        1 D1R     -0.129500
     15 C13        -4.0080    2.2130   -1.8220 ca        1 D1R     -0.112000
     16 C14        -2.8310    2.9510   -1.6850 ca        1 D1R     -0.085000
     17 C15        -1.5990    2.3580   -1.9690 ca        1 D1R     -0.112000
     18 C16        -1.5410    1.0300   -2.3870 ca        1 D1R     -0.129500
     19 C17        -2.7410   -3.5430   -2.5150 c         1 D1R      0.526100
     20 O3         -2.3240   -3.7490   -3.6430 o         1 D1R     -0.360100
     21 N2         -3.2240   -4.6740   -1.6710 ny        1 D1R     -0.666800
     22 C18        -3.2450   -6.0490   -2.3030 c3        1 D1R      0.141500
     23 C19        -4.2070   -6.1270   -3.4910 c3        1 D1R     -0.118400
     24 C20        -5.6240   -5.7170   -3.1350 c3        1 D1R     -0.031100
     25 C21        -6.5720   -6.0910   -4.2200 ca        1 D1R     -0.125300
     26 C22        -6.5320   -5.4220   -5.4490 ca        1 D1R     -0.121000
     27 C23        -7.4280   -5.7610   -6.4600 ca        1 D1R     -0.114000
     28 C24        -8.3720   -6.7690   -6.2500 ca        1 D1R     -0.099000
     29 C25        -8.4160   -7.4360   -5.0260 ca        1 D1R     -0.114000
     30 C26        -7.5200   -7.0990   -4.0120 ca        1 D1R     -0.121000
     31 C27        -1.8610   -6.5560   -2.7160 c3        1 D1R     -0.081400
     32 C28        -0.9070   -6.7980   -1.5690 c3        1 D1R     -0.328600
     33 S1          0.2280   -5.5320   -1.3210 sy        1 D1R      1.417300
     34 O4         -0.5860   -4.4430   -0.8200 o         1 D1R     -0.713300
     35 O5          0.8610   -5.1890   -2.5140 o         1 D1R     -0.713300
     36 CAB         1.2050   -6.1560   -0.1850 ca        1 D1R     -0.468500
     37 CAA         2.5160   -6.5420   -0.5300 ca        1 D1R     -0.006500
     38 CAC         3.3820   -7.0710    0.4200 ca        1 D1R     -0.140500
     39 CAE         2.9570   -7.2290    1.7410 ca        1 D1R     -0.014000
     40 CAF         1.6610   -6.8460    2.1060 ca        1 D1R     -0.140500
     41 CAD         0.8010   -6.3180    1.1540 ca        1 D1R     -0.006500
     42 H391       -1.4720    0.4480    1.2830 h1        1 D1R      0.075950
     43 H392       -0.1890   -0.8210    0.9090 h1        1 D1R      0.075950
     44 H401        0.4670   -1.0820    3.1480 h1        1 D1R      0.068700
     45 H402        0.2530    0.7160    2.8930 h1        1 D1R      0.068700
     46 H331       -1.4500    0.3920    6.0900 h1        1 D1R      0.057367
     47 H332        0.1120   -0.4850    5.7260 h1        1 D1R      0.057367
     48 H333       -0.1250    1.2390    5.1670 h1        1 D1R      0.057367
     49 H491       -1.4020   -2.2800    4.4410 h1        1 D1R      0.068700
     50 H492       -2.7850   -1.2390    5.0240 h1        1 D1R      0.068700
     51 H481       -3.6840   -0.9220    2.8290 h1        1 D1R      0.075950
     52 H482       -3.2540   -2.7020    2.9700 h1        1 D1R      0.075950
     53 HN1        -1.0440   -2.5160   -0.8980 hn        1 D1R      0.495300
     54 H9         -3.9000   -2.0010   -1.4790 hx        1 D1R      0.144700
     55 H101       -3.4910   -1.2810   -3.7820 hc        1 D1R      0.107700
     56 H102       -1.6930   -1.2990   -3.5750 hc        1 D1R      0.107700
     57 H12        -4.8890    0.3180   -2.3810 ha        1 D1R      0.138000
     58 H13        -4.9830    2.6860   -1.6170 ha        1 D1R      0.165000
     59 H14        -2.8760    4.0070   -1.3700 ha        1 D1R      0.169000
     60 H15        -0.6720    2.9490   -1.8860 ha        1 D1R      0.165000
     61 H16        -0.5710    0.5890   -2.6630 ha        1 D1R      0.138000
     62 HN2        -4.1810   -4.4520   -1.3550 hn        1 D1R      0.486300
     63 H18        -3.6440   -6.7180   -1.4740 hx        1 D1R      0.107700
     64 H191       -3.8260   -5.5110   -4.3490 hc        1 D1R      0.101200
     65 H192       -4.2150   -7.1990   -3.8350 hc        1 D1R      0.101200
     66 H201       -5.6800   -4.6050   -2.9800 hc        1 D1R      0.034700
     67 H202       -5.9320   -6.2100   -2.1730 hc        1 D1R      0.034700
     68 H22        -5.7930   -4.6270   -5.6190 ha        1 D1R      0.125000
     69 H23        -7.3940   -5.2330   -7.4260 ha        1 D1R      0.152000
     70 H24        -9.0810   -7.0350   -7.0500 ha        1 D1R      0.156000
     71 H25        -9.1620   -8.2290   -4.8570 ha        1 D1R      0.152000
     72 H26        -7.5650   -7.6280   -3.0480 ha        1 D1R      0.125000
     73 H271       -1.3930   -5.8710   -3.4780 hc        1 D1R      0.110700
     74 H272       -2.0430   -7.5340   -3.2490 hc        1 D1R      0.110700
     75 H281       -1.4790   -7.0270   -0.6310 h1        1 D1R      0.135700
     76 H282       -0.3590   -7.7610   -1.7920 h1        1 D1R      0.135700
     77 HAA         2.8610   -6.4140   -1.5740 ha        1 D1R      0.151500
     78 HAC         4.4040   -7.3680    0.1280 ha        1 D1R      0.171500
     79 HAE         3.6410   -7.6540    2.4960 ha        1 D1R      0.173000
     80 HAF         1.3260   -6.9700    3.1490 ha        1 D1R      0.171500
     81 HAD        -0.2170   -6.0140    1.4480 ha        1 D1R      0.151500
     82 H121       -1.5710   -0.9170   -0.8470 hn        1 D1R      0.495300
     83 H221       -2.6130   -4.7070   -0.8290 hn        1 D1R      0.486300
@<TRIPOS>BOND
     1    1    2 1   
     2    1    7 1   
     3    1   42 1   
     4    1   43 1   
     5    2    3 1   
     6    2   44 1   
     7    2   45 1   
     8    3    4 1   
     9    3    5 1   
    10    4   46 1   
    11    4   47 1   
    12    4   48 1   
    13    5    6 1   
    14    5   49 1   
    15    5   50 1   
    16    6    7 1   
    17    6   51 1   
    18    6   52 1   
    19    7    8 1   
    20    8    9 2   
    21    8   10 1   
    22   10   11 1   
    23   10   53 1   
    24   10   82 1   
    25   11   12 1   
    26   11   19 1   
    27   11   54 1   
    28   12   13 1   
    29   12   55 1   
    30   12   56 1   
    31   13   14 ar  
    32   13   18 ar  
    33   14   15 ar  
    34   14   57 1   
    35   15   16 ar  
    36   15   58 1   
    37   16   17 ar  
    38   16   59 1   
    39   17   18 ar  
    40   17   60 1   
    41   18   61 1   
    42   19   20 2   
    43   19   21 1   
    44   21   22 1   
    45   21   62 1   
    46   21   83 1   
    47   22   23 1   
    48   22   31 1   
    49   22   63 1   
    50   23   24 1   
    51   23   64 1   
    52   23   65 1   
    53   24   25 1   
    54   24   66 1   
    55   24   67 1   
    56   25   26 ar  
    57   25   30 ar  
    58   26   27 ar  
    59   26   68 1   
    60   27   28 ar  
    61   27   69 1   
    62   28   29 ar  
    63   28   70 1   
    64   29   30 ar  
    65   29   71 1   
    66   30   72 1   
    67   31   32 1   
    68   31   73 1   
    69   31   74 1   
    70   32   33 1   
    71   32   75 1   
    72   32   76 1   
    73   33   34 2   
    74   33   35 2   
    75   33   36 1   
    76   36   37 ar  
    77   36   41 ar  
    78   37   38 ar  
    79   37   77 1   
    80   38   39 ar  
    81   38   78 1   
    82   39   40 ar  
    83   39   79 1   
    84   40   41 ar  
    85   40   80 1   
    86   41   81 1   
@<TRIPOS>SUBSTRUCTURE
     1 D1R         1 TEMP              0 ****  ****    0 ROOT
