@<TRIPOS>MOLECULE
D1T
   33    32     1     0     0
SMALL
bcc


@<TRIPOS>ATOM
      1 C10        -4.9980   -0.0020   -3.0130 c3        1 D1T     -0.092100
      2 C9         -3.4850   -0.0020   -3.0130 c3        1 D1T     -0.080400
      3 C8         -2.9800   -0.0020   -1.5860 c3        1 D1T     -0.079400
      4 C7         -1.4680   -0.0030   -1.5860 c3        1 D1T     -0.079400
      5 C6         -0.9630   -0.0010   -0.1600 c3        1 D1T     -0.079400
      6 C5          0.5500   -0.0020   -0.1600 c3        1 D1T     -0.079400
      7 C4          1.0540    0.0010    1.2660 c3        1 D1T     -0.079400
      8 C3          2.5670    0.0000    1.2660 c3        1 D1T     -0.077400
      9 C2          3.0710    0.0040    2.6930 c3        1 D1T     -0.073400
     10 C1          4.5840    0.0030    2.6930 c3        1 D1T      0.011700
     11 S1          5.1750    0.0100    4.3640 sh        1 D1T     -0.381900
     12 H101       -5.3230    0.7950   -2.5520 hc        1 D1T      0.032700
     13 H102       -5.3230   -0.7990   -2.5530 hc        1 D1T      0.032700
     14 H103       -5.3230   -0.0020   -3.9330 hc        1 D1T      0.032700
     15 H91        -3.1590   -0.7990   -3.4730 hc        1 D1T      0.038700
     16 H92        -3.1590    0.7950   -3.4730 hc        1 D1T      0.038700
     17 H81        -3.3060   -0.7990   -1.1260 hc        1 D1T      0.039700
     18 H82        -3.3060    0.7950   -1.1260 hc        1 D1T      0.039700
     19 H71        -1.1420   -0.8000   -2.0460 hc        1 D1T      0.039700
     20 H72        -1.1420    0.7940   -2.0470 hc        1 D1T      0.039700
     21 H61        -1.2890   -0.7980    0.3010 hc        1 D1T      0.040700
     22 H62        -1.2880    0.7960    0.2990 hc        1 D1T      0.040700
     23 H51         0.8750    0.7940   -0.6220 hc        1 D1T      0.039700
     24 H52         0.8750   -0.8000   -0.6180 hc        1 D1T      0.039700
     25 H41         0.7280   -0.7950    1.7280 hc        1 D1T      0.041700
     26 H42         0.7290    0.7990    1.7250 hc        1 D1T      0.041700
     27 H31         2.8920   -0.7990    0.8090 hc        1 D1T      0.040700
     28 H32         2.8930    0.7950    0.8040 hc        1 D1T      0.040700
     29 H21         2.7470    0.8030    3.1500 hc        1 D1T      0.057700
     30 H22         2.7450   -0.7910    3.1560 hc        1 D1T      0.057700
     31 H11         4.9100    0.7970    2.2290 h1        1 D1T      0.058700
     32 H12         4.9090   -0.7970    2.2370 h1        1 D1T      0.058700
     33 HS1         6.3530    0.0090    4.3650 hs        1 D1T      0.199800
@<TRIPOS>BOND
     1    1    2 1   
     2    1   12 1   
     3    1   13 1   
     4    1   14 1   
     5    2    3 1   
     6    2   15 1   
     7    2   16 1   
     8    3    4 1   
     9    3   17 1   
    10    3   18 1   
    11    4    5 1   
    12    4   19 1   
    13    4   20 1   
    14    5    6 1   
    15    5   21 1   
    16    5   22 1   
    17    6    7 1   
    18    6   23 1   
    19    6   24 1   
    20    7    8 1   
    21    7   25 1   
    22    7   26 1   
    23    8    9 1   
    24    8   27 1   
    25    8   28 1   
    26    9   10 1   
    27    9   29 1   
    28    9   30 1   
    29   10   11 1   
    30   10   31 1   
    31   10   32 1   
    32   11   33 1   
@<TRIPOS>SUBSTRUCTURE
     1 D1T         1 TEMP              0 ****  ****    0 ROOT
