@<TRIPOS>MOLECULE
D1T
   33    32     1     0     0
SMALL
bcc


@<TRIPOS>ATOM
      1 C10         6.9180   -0.4690    0.0000 c3        1 D1T     -0.092100
      2 C9          5.6920    0.4070   -0.0000 c3        1 D1T     -0.080400
      3 C8          4.4210   -0.4160   -0.0000 c3        1 D1T     -0.079400
      4 C7          3.1920    0.4670   -0.0000 c3        1 D1T     -0.079400
      5 C6          1.9230   -0.3580    0.0000 c3        1 D1T     -0.079400
      6 C5          0.6940    0.5260    0.0000 c3        1 D1T     -0.079400
      7 C4         -0.5750   -0.2990    0.0000 c3        1 D1T     -0.079400
      8 C3         -1.8040    0.5850   -0.0000 c3        1 D1T     -0.077400
      9 C2         -3.0720   -0.2440    0.0000 c3        1 D1T     -0.073400
     10 C1         -4.2930    0.6390   -0.0000 c3        1 D1T      0.011700
     11 S1         -5.7100   -0.4260   -0.0000 sh        1 D1T     -0.381900
     12 H101        7.8430    0.1580    0.0000 hc        1 D1T      0.032700
     13 H102        6.9360   -1.1230    0.9050 hc        1 D1T      0.032700
     14 H103        6.9360   -1.1230   -0.9050 hc        1 D1T      0.032700
     15 H91         5.7050    1.0740    0.9020 hc        1 D1T      0.038700
     16 H92         5.7050    1.0740   -0.9020 hc        1 D1T      0.038700
     17 H81         4.4060   -1.0830   -0.9020 hc        1 D1T      0.039700
     18 H82         4.4060   -1.0830    0.9020 hc        1 D1T      0.039700
     19 H71         3.2080    1.1330    0.9030 hc        1 D1T      0.039700
     20 H72         3.2080    1.1330   -0.9030 hc        1 D1T      0.039700
     21 H61         1.9070   -1.0240   -0.9030 hc        1 D1T      0.040700
     22 H62         1.9070   -1.0240    0.9030 hc        1 D1T      0.040700
     23 H51         0.7100    1.1920    0.9030 hc        1 D1T      0.039700
     24 H52         0.7100    1.1920   -0.9030 hc        1 D1T      0.039700
     25 H41        -0.5910   -0.9650   -0.9030 hc        1 D1T      0.041700
     26 H42        -0.5910   -0.9650    0.9030 hc        1 D1T      0.041700
     27 H31        -1.7890    1.2510    0.9030 hc        1 D1T      0.040700
     28 H32        -1.7890    1.2510   -0.9030 hc        1 D1T      0.040700
     29 H21        -3.0860   -0.9100   -0.9040 hc        1 D1T      0.057700
     30 H22        -3.0860   -0.9100    0.9040 hc        1 D1T      0.057700
     31 H11        -4.3010    1.2960    0.9030 h1        1 D1T      0.058700
     32 H12        -4.3010    1.2960   -0.9030 h1        1 D1T      0.058700
     33 HS1        -6.6600    0.4910    0.0000 hs        1 D1T      0.199800
@<TRIPOS>BOND
     1    1    2 1   
     2    1   12 1   
     3    1   13 1   
     4    1   14 1   
     5    2    3 1   
     6    2   15 1   
     7    2   16 1   
     8    3    4 1   
     9    3   17 1   
    10    3   18 1   
    11    4    5 1   
    12    4   19 1   
    13    4   20 1   
    14    5    6 1   
    15    5   21 1   
    16    5   22 1   
    17    6    7 1   
    18    6   23 1   
    19    6   24 1   
    20    7    8 1   
    21    7   25 1   
    22    7   26 1   
    23    8    9 1   
    24    8   27 1   
    25    8   28 1   
    26    9   10 1   
    27    9   29 1   
    28    9   30 1   
    29   10   11 1   
    30   10   31 1   
    31   10   32 1   
    32   11   33 1   
@<TRIPOS>SUBSTRUCTURE
     1 D1T         1 TEMP              0 ****  ****    0 ROOT
