@<TRIPOS>MOLECULE
D1U
   53    54     1     0     0
SMALL
bcc


@<TRIPOS>ATOM
      1 CAA         0.1320    1.1970   -0.3340 c3        1 D1U     -0.044000
      2 CAB        14.3260   -3.5010    3.8180 c3        1 D1U     -0.081900
      3 CAC        13.6610   -4.6320    1.6760 c3        1 D1U     -0.081900
      4 NAD         4.3340    0.8900    7.3580 n         1 D1U     -0.668000
      5 OAE         3.4890    2.1750    5.6940 o         1 D1U     -0.631100
      6 OAF        11.2830   -3.6780    0.6540 o         1 D1U     -0.524100
      7 FAG        11.2040   -1.3340   -0.9510 f         1 D1U     -0.225633
      8 FAH         9.7100    0.1980   -1.2490 f         1 D1U     -0.225633
      9 FAI         9.1800   -1.8860   -1.5310 f         1 D1U     -0.225633
     10 CAJ         7.6760    0.1490    4.7390 ca        1 D1U     -0.201000
     11 CAK         6.6790    0.6470    5.5650 ca        1 D1U     -0.053000
     12 CAL         6.0250   -0.1410    2.9670 ca        1 D1U     -0.194000
     13 CAM         3.3750    0.3400    1.9730 c3        1 D1U      0.205800
     14 CAN         1.9460    0.7630    1.6610 c3        1 D1U     -0.037300
     15 CAO        12.2290   -2.8660    2.6890 ce        1 D1U     -0.291200
     16 CAP         9.5030   -2.2980    4.2910 c3        1 D1U     -0.045800
     17 NAQ         8.4380   -0.4610    1.2730 nc        1 D1U     -0.444800
     18 NAR         3.6870    0.4330    3.3820 nh        1 D1U     -0.744600
     19 SAS         1.7170    0.5010   -0.0730 ss        1 D1U     -0.273200
     20 CAT         4.3340    1.3270    6.0570 c         1 D1U      0.683700
     21 CAU        11.2170   -2.9150    1.6280 c         1 D1U      0.607900
     22 CAV         7.3390   -0.2600    3.4320 ca        1 D1U      0.072800
     23 CAW         5.0050    0.3810    3.8080 ca        1 D1U      0.239600
     24 CAX         5.3570    0.7640    5.1330 ca        1 D1U     -0.218600
     25 CAY         9.3470   -1.7180    2.9480 cc        1 D1U     -0.038600
     26 CAZ         9.4850   -1.1610    0.7570 cd        1 D1U      0.259600
     27 CBA        10.0980   -1.9810    1.7830 cd        1 D1U     -0.279900
     28 NBB         8.3550   -0.7860    2.5710 na        1 D1U      0.165300
     29 CBC        13.3400   -3.6300    2.7170 c2        1 D1U     -0.002400
     30 HAA         0.1030    2.2790   -0.0730 h1        1 D1U      0.066033
     31 HAAA       -0.6560    0.6700    0.2480 h1        1 D1U      0.066033
     32 HAAB       -0.0800    1.0800   -1.4230 h1        1 D1U      0.066033
     33 HAB        14.4450   -4.4850    4.3390 hc        1 D1U      0.057533
     34 HABA       15.3220   -3.2060    3.4000 hc        1 D1U      0.057533
     35 HABB       14.0180   -2.7360    4.5710 hc        1 D1U      0.057533
     36 HAC        13.7300   -4.1350    0.6730 hc        1 D1U      0.057533
     37 HACA       14.6240   -5.1540    1.8910 hc        1 D1U      0.057533
     38 HACB       12.8400   -5.3910    1.6050 hc        1 D1U      0.057533
     39 HNAD        4.9480    0.1790    7.6580 hn        1 D1U      0.315000
     40 HNAA        3.6560    1.2410    7.9890 hn        1 D1U      0.315000
     41 HAJ         6.9540    0.9790    6.5800 ha        1 D1U      0.140000
     42 HAK         8.7130    0.0940    5.1010 ha        1 D1U      0.148000
     43 HAL         5.7760   -0.4480    1.9380 ha        1 D1U      0.168000
     44 HAM         4.0820    0.9750    1.3610 h1        1 D1U      0.061200
     45 HAMA        3.5180   -0.7360    1.6590 h1        1 D1U      0.061200
     46 HAN         1.7810    1.8370    1.9180 h1        1 D1U      0.070700
     47 HANA        1.2120    0.1560    2.2440 h1        1 D1U      0.070700
     48 HAO         9.9780   -3.3090    4.2030 hc        1 D1U      0.065367
     49 HAOA       12.0410   -2.1270    3.4850 ha        1 D1U      0.132000
     50 HAP        10.1680   -1.6490    4.9170 hc        1 D1U      0.065367
     51 HAPA        8.5190   -2.4050    4.8130 hc        1 D1U      0.065367
     52 HNAR        3.0850    1.0360    3.9090 hn        1 D1U      0.445800
     53 CBD         9.8860   -1.0500   -0.7040 c3        1 D1U      0.633600
@<TRIPOS>BOND
     1    1   19 1   
     2    1   30 1   
     3    1   31 1   
     4    1   32 1   
     5    2   29 1   
     6    2   33 1   
     7    2   34 1   
     8    2   35 1   
     9    3   29 1   
    10    3   36 1   
    11    3   37 1   
    12    3   38 1   
    13    4   20 1   
    14    4   39 1   
    15    4   40 1   
    16    5   20 2   
    17    6   21 2   
    18    7   53 1   
    19    8   53 1   
    20    9   53 1   
    21   10   11 ar  
    22   10   22 ar  
    23   10   42 1   
    24   11   24 ar  
    25   11   41 1   
    26   12   22 ar  
    27   12   23 ar  
    28   12   43 1   
    29   13   14 1   
    30   13   18 1   
    31   13   44 1   
    32   13   45 1   
    33   14   19 1   
    34   14   46 1   
    35   14   47 1   
    36   15   21 1   
    37   15   29 2   
    38   15   49 1   
    39   16   25 1   
    40   16   48 1   
    41   16   50 1   
    42   16   51 1   
    43   17   26 2   
    44   17   28 1   
    45   18   23 1   
    46   18   52 1   
    47   20   24 1   
    48   21   27 1   
    49   22   28 1   
    50   23   24 ar  
    51   25   27 2   
    52   25   28 1   
    53   26   27 1   
    54   26   53 1   
@<TRIPOS>SUBSTRUCTURE
     1 D1U         1 TEMP              0 ****  ****    0 ROOT
