@<TRIPOS>MOLECULE
D1U
   53    55     1     0     0
SMALL
bcc


@<TRIPOS>ATOM
      1 CAA         6.7560   -3.4790   -1.5970 c3        1 D1U     -0.043000
      2 CAB        -4.1750    3.3520   -2.0200 c3        1 D1U     -0.093600
      3 CAC        -3.3180    1.1870   -2.8730 c3        1 D1U     -0.093600
      4 NAD         4.0670    4.1720    1.7110 n         1 D1U     -0.666000
      5 OAE         4.7800    3.1250   -0.1700 o         1 D1U     -0.632100
      6 OAF        -5.3680   -1.0240   -0.3130 o         1 D1U     -0.513100
      7 FAG        -4.1540   -2.5120    2.0690 f         1 D1U     -0.222967
      8 FAH        -2.1750   -3.3840    2.0390 f         1 D1U     -0.222967
      9 FAI        -3.3820   -3.4200    0.2430 f         1 D1U     -0.222967
     10 CAJ         0.2000    2.4540    0.8730 ca        1 D1U     -0.204000
     11 CAK         1.4100    3.1330    0.9000 ca        1 D1U     -0.050000
     12 CAL         1.4010    0.3880    0.3830 ca        1 D1U     -0.196000
     13 CAM         3.8600   -0.9320   -0.2860 c3        1 D1U      0.207800
     14 CAN         5.2620   -1.3910   -0.6640 c3        1 D1U     -0.037300
     15 CAO        -4.8770    1.2450   -0.9210 c3        1 D1U     -0.173400
     16 CAP        -2.5090    2.0950   -0.6840 c3        1 D1U     -0.021100
     17 NAQ        -1.1830   -0.8810    1.0880 nc        1 D1U     -0.449800
     18 NAR         3.8410    0.4080    0.2540 nh        1 D1U     -0.745600
     19 SAS         5.0860   -3.0170   -1.3390 ss        1 D1U     -0.274200
     20 CAT         3.8900    3.2630    0.6980 c         1 D1U      0.682700
     21 CAU        -4.5370   -0.1120   -0.3520 c         1 D1U      0.609700
     22 CAV         0.2000    1.0690    0.6110 ca        1 D1U      0.071800
     23 CAW         2.6410    1.0820    0.4080 ca        1 D1U      0.241600
     24 CAX         2.6220    2.4800    0.6780 ca        1 D1U     -0.219600
     25 CAY        -2.2330    0.8130   -0.0080 cc        1 D1U     -0.028600
     26 CAZ        -2.4680   -1.2660    0.8580 cd        1 D1U      0.279600
     27 CBA        -3.1810   -0.2220    0.1580 cd        1 D1U     -0.303900
     28 NBB        -1.0410    0.3570    0.5770 na        1 D1U      0.173300
     29 CBC        -3.7180    1.9540   -1.6210 c3        1 D1U     -0.040000
     30 HAA         7.3360   -3.4940   -0.6470 h1        1 D1U      0.066033
     31 HAAA        6.7270   -4.5100   -2.0210 h1        1 D1U      0.066033
     32 HAAB        7.2690   -2.8040   -2.3170 h1        1 D1U      0.066033
     33 HAB        -3.3410    3.9010   -2.5200 hc        1 D1U      0.043533
     34 HABA       -5.0340    3.2850   -2.7300 hc        1 D1U      0.043533
     35 HABB       -4.4980    3.9320   -1.1230 hc        1 D1U      0.043533
     36 HAC        -2.9710    0.1610   -2.6040 hc        1 D1U      0.043533
     37 HACA       -4.1900    1.0990   -3.5660 hc        1 D1U      0.043533
     38 HACB       -2.4930    1.7180   -3.4070 hc        1 D1U      0.043533
     39 HNAD        4.9100    4.6870    1.7590 hn        1 D1U      0.315500
     40 HNAA        3.4170    4.2420    2.4510 hn        1 D1U      0.315500
     41 HAJ        -0.7370    2.9970    1.0640 ha        1 D1U      0.147000
     42 HAK         1.4010    4.2190    1.0920 ha        1 D1U      0.141000
     43 HAL         1.3900   -0.6980    0.1930 ha        1 D1U      0.169000
     44 HAM         3.1970   -1.0070   -1.1990 h1        1 D1U      0.060200
     45 HAMA        3.4440   -1.6290    0.5000 h1        1 D1U      0.060200
     46 HAN         5.7200   -0.7070   -1.4190 h1        1 D1U      0.070700
     47 HANA        5.9310   -1.4090    0.2300 h1        1 D1U      0.070700
     48 HAO        -5.7280    1.1310   -1.6440 hc        1 D1U      0.077700
     49 HAOA       -5.2390    1.8790   -0.0670 hc        1 D1U      0.077700
     50 HAP        -2.7360    2.8750    0.0950 hc        1 D1U      0.071200
     51 HAPA       -1.6160    2.4460   -1.2680 hc        1 D1U      0.071200
     52 HNAR        4.6330    0.9750    0.0200 hn        1 D1U      0.447800
     53 CBD        -3.0280   -2.6110    1.2920 c3        1 D1U      0.633600
@<TRIPOS>BOND
     1    1   19 1   
     2    1   30 1   
     3    1   31 1   
     4    1   32 1   
     5    2   29 1   
     6    2   33 1   
     7    2   34 1   
     8    2   35 1   
     9    3   29 1   
    10    3   36 1   
    11    3   37 1   
    12    3   38 1   
    13    4   20 1   
    14    4   39 1   
    15    4   40 1   
    16    5   20 2   
    17    6   21 2   
    18    7   53 1   
    19    8   53 1   
    20    9   53 1   
    21   10   11 ar  
    22   10   22 ar  
    23   10   41 1   
    24   11   24 ar  
    25   11   42 1   
    26   12   22 ar  
    27   12   23 ar  
    28   12   43 1   
    29   13   14 1   
    30   13   18 1   
    31   13   44 1   
    32   13   45 1   
    33   14   19 1   
    34   14   46 1   
    35   14   47 1   
    36   15   21 1   
    37   15   29 1   
    38   15   48 1   
    39   15   49 1   
    40   16   25 1   
    41   16   29 1   
    42   16   50 1   
    43   16   51 1   
    44   17   26 2   
    45   17   28 1   
    46   18   23 1   
    47   18   52 1   
    48   20   24 1   
    49   21   27 1   
    50   22   28 1   
    51   23   24 ar  
    52   25   27 2   
    53   25   28 1   
    54   26   27 1   
    55   26   53 1   
@<TRIPOS>SUBSTRUCTURE
     1 D1U         1 TEMP              0 ****  ****    0 ROOT
