@<TRIPOS>MOLECULE
D1U
   54    55     1     0     0
SMALL
bcc


@<TRIPOS>ATOM
      1 CAA         1.2670   -0.2230   -0.5300 c3        1 D1U     -0.061000
      2 CAB        14.2350   -3.5770    3.4050 c3        1 D1U     -0.089900
      3 CAC        13.4490   -4.4660    1.1900 c3        1 D1U     -0.089900
      4 NAD         4.5500    1.3490    7.7100 n4        1 D1U     -0.757400
      5 OAE         2.9600    1.4120    6.0800 o         1 D1U     -0.504100
      6 OAF        10.9760   -3.4680    0.4480 o         1 D1U     -0.507100
      7 FAG        11.0460   -0.9520   -0.8780 f         1 D1U     -0.214967
      8 FAH         9.7940    0.8160   -0.8560 f         1 D1U     -0.214967
      9 FAI         8.9620   -1.0840   -1.5080 f         1 D1U     -0.214967
     10 CAJ         7.4230   -0.1980    4.9940 ca        1 D1U     -0.181000
     11 CAK         6.4350    0.2410    5.8250 ca        1 D1U     -0.052000
     12 CAL         5.9400    0.0950    3.0840 ca        1 D1U     -0.225000
     13 CAM         3.3980    0.8460    1.9880 c3        1 D1U      0.194800
     14 CAN         1.9860    1.3050    1.6510 c3        1 D1U     -0.063300
     15 CAO        12.0700   -2.8440    2.4800 ce        1 D1U     -0.313200
     16 CAP         9.3040   -2.5050    4.1850 c3        1 D1U     -0.051800
     17 NAQ         8.3280   -0.1910    1.4590 nc        1 D1U     -0.452800
     18 NAR         3.6770    0.8740    3.4110 nh        1 D1U     -0.718600
     19 SAS         1.7800    1.3910   -0.0910 ss        1 D1U     -0.217200
     20 CAT         4.1440    1.1180    6.2530 c         1 D1U      0.581700
     21 CAU        11.0070   -2.7850    1.4790 c         1 D1U      0.602900
     22 CAV         7.1810   -0.2720    3.5810 ca        1 D1U      0.156800
     23 CAW         4.8800    0.5500    3.9430 ca        1 D1U      0.331600
     24 CAX         5.1500    0.6370    5.3580 ca        1 D1U     -0.330600
     25 CAY         9.1750   -1.7160    2.9500 cc        1 D1U     -0.030600
     26 CAZ         9.3550   -0.8410    0.8650 cd        1 D1U      0.288600
     27 CBA         9.9230   -1.8300    1.7690 cd        1 D1U     -0.253900
     28 NBB         8.2150   -0.6930    2.7100 na        1 D1U      0.126300
     29 CBC        13.1870   -3.5930    2.3560 c2        1 D1U      0.026600
     30 HAA         2.0500   -0.9880   -0.3300 h1        1 D1U      0.074033
     31 HAAA        1.0740   -0.1850   -1.6300 h1        1 D1U      0.074033
     32 HAAB        0.3300   -0.5250   -0.0120 h1        1 D1U      0.074033
     33 HAB        14.4050   -4.6150    3.7880 hc        1 D1U      0.063700
     34 HABA       13.9610   -2.9200    4.2650 hc        1 D1U      0.063700
     35 HABB       15.1970   -3.2070    2.9680 hc        1 D1U      0.063700
     36 HAC        14.4430   -4.9700    1.2680 hc        1 D1U      0.063700
     37 HACA       13.4170   -3.8650    0.2430 hc        1 D1U      0.063700
     38 HACB       12.6490   -5.2460    1.1050 hc        1 D1U      0.063700
     39 HNAD        4.7980    0.4610    8.1500 hn        1 D1U      0.462133
     40 HNAA        5.3510    1.9820    7.7530 hn        1 D1U      0.462133
     41 HAJ         6.6710    0.2760    6.9010 ha        1 D1U      0.116000
     42 HAK         8.4110   -0.4710    5.3990 ha        1 D1U      0.170000
     43 HAL         5.7500    0.0490    1.9950 ha        1 D1U      0.191000
     44 HAM         3.5420   -0.2100    1.6110 h1        1 D1U      0.077700
     45 HAMA        4.1380    1.5140    1.4540 h1        1 D1U      0.077700
     46 HAN         1.2260    0.6310    2.1190 h1        1 D1U      0.087700
     47 HANA        1.8060    2.3450    2.0280 h1        1 D1U      0.087700
     48 HAO         9.9430   -1.9620    4.9290 hc        1 D1U      0.069700
     49 HAOA       11.9250   -2.2030    3.3650 ha        1 D1U      0.129000
     50 HAP         9.8080   -3.4780    3.9420 hc        1 D1U      0.069700
     51 HAPA        8.3100   -2.7240    4.6480 hc        1 D1U      0.069700
     52 HNAR        2.9310    1.1790    4.0010 hn        1 D1U      0.465800
     53 HAD3        3.7570    1.7660    8.2140 hn        1 D1U      0.462133
     54 CBD         9.7850   -0.5250   -0.5650 c3        1 D1U      0.632600
@<TRIPOS>BOND
     1    1   19 1   
     2    1   30 1   
     3    1   31 1   
     4    1   32 1   
     5    2   29 1   
     6    2   33 1   
     7    2   34 1   
     8    2   35 1   
     9    3   29 1   
    10    3   36 1   
    11    3   37 1   
    12    3   38 1   
    13    4   20 1   
    14    4   39 1   
    15    4   40 1   
    16    4   53 1   
    17    5   20 2   
    18    6   21 2   
    19    7   54 1   
    20    8   54 1   
    21    9   54 1   
    22   10   11 ar  
    23   10   22 ar  
    24   10   42 1   
    25   11   24 ar  
    26   11   41 1   
    27   12   22 ar  
    28   12   23 ar  
    29   12   43 1   
    30   13   14 1   
    31   13   18 1   
    32   13   44 1   
    33   13   45 1   
    34   14   19 1   
    35   14   46 1   
    36   14   47 1   
    37   15   21 1   
    38   15   29 2   
    39   15   49 1   
    40   16   25 1   
    41   16   48 1   
    42   16   50 1   
    43   16   51 1   
    44   17   26 2   
    45   17   28 1   
    46   18   23 1   
    47   18   52 1   
    48   20   24 1   
    49   21   27 1   
    50   22   28 1   
    51   23   24 ar  
    52   25   27 2   
    53   25   28 1   
    54   26   27 1   
    55   26   54 1   
@<TRIPOS>SUBSTRUCTURE
     1 D1U         1 TEMP              0 ****  ****    0 ROOT
