@<TRIPOS>MOLECULE
D1U
   54    54     1     0     0
SMALL
bcc


@<TRIPOS>ATOM
      1 CAA         1.5890    1.1660   -1.0150 c3        1 D1U     -0.360000
      2 CAB        12.8150   -3.9680    3.9560 c3        1 D1U     -0.297000
      3 CAC        14.1420   -3.4290    1.8720 c3        1 D1U     -0.297000
      4 NAD         4.8940    0.2130    8.3760 n9        1 D1U     -0.435000
      5 OAE         3.4410    1.8790    6.5880 o         1 D1U     -0.021000
      6 OAF        11.8550   -2.4430    0.3930 o         1 D1U     -0.338000
      7 FAG        10.2870   -0.8250   -1.2480 f         1 D1U     -0.145667
      8 FAH         8.2020   -1.2870   -1.5990 f         1 D1U     -0.145667
      9 FAI         9.5950   -2.8990   -1.2120 f         1 D1U     -0.145667
     10 CAJ         7.4060   -0.0370    4.7090 ca        1 D1U     -0.217000
     11 CAK         6.4850    0.5550    5.5090 ca        1 D1U      0.014000
     12 CAL         5.7410   -0.2320    2.9150 ca        1 D1U     -0.301000
     13 CAM         3.0510    0.2150    1.9510 c3        1 D1U     -0.035000
     14 CAN         1.5970    0.5770    1.6800 c3        1 D1U     -0.323000
     15 CAO        12.3700   -1.8550    2.6490 c3        1 D1U     -0.306000
     16 CAP         9.5460   -2.1610    4.2180 c2        1 D1U     -0.340000
     17 NAQ         7.8530   -1.1210    1.2090 n2        1 D1U     -0.065000
     18 NAR         3.4970    0.6040    3.2720 nu        1 D1U     -0.303000
     19 SAS         1.0880   -0.0630    0.1250 ss        1 D1U      0.142000
     20 CAT         4.2400    1.3450    5.9180 c1        1 D1U      0.425000
     21 CAU        11.3470   -2.0910    1.4710 c2        1 D1U      0.331000
     22 CAV         7.0530   -0.4840    3.3780 ca        1 D1U      0.262000
     23 CAW         4.7630    0.3780    3.7230 ca        1 D1U      0.256000
     24 CAX         5.1340    0.7710    5.0750 ca        1 D1U     -0.286000
     25 CAY         9.2610   -1.6880    2.9920 c2        1 D1U      0.120000
     26 CAZ         9.0210   -1.5200    0.7000 c2        1 D1U     -0.025000
     27 CBA        10.0050   -1.8210    1.7350 c2        1 D1U     -0.393000
     28 NBB         7.9640   -1.1450    2.5830 na        1 D1U     -0.131000
     29 CBC        13.1330   -3.0670    2.8500 c2        1 D1U      0.277000
     30 HAA         2.6950    1.2860   -1.0530 h1        1 D1U      0.113000
     31 HAAA        1.1290    2.1560   -0.7990 h1        1 D1U      0.113000
     32 HAAB        1.2310    0.8120   -2.0120 h1        1 D1U      0.113000
     33 HAB        11.8610   -4.5230    3.7110 hc        1 D1U      0.164167
     34 HABA       13.6180   -4.7280    4.1350 hc        1 D1U      0.164167
     35 HABB       12.6280   -3.4000    4.9060 hc        1 D1U      0.164167
     36 HAC        14.6600   -4.3940    2.0910 hc        1 D1U      0.164167
     37 HACA       13.6170   -3.4990    0.8540 hc        1 D1U      0.164167
     38 HACB       14.9040   -2.6140    1.7360 hc        1 D1U      0.164167
     39 HNAD        4.8280   -0.7840    8.3500 hn        1 D1U      0.147333
     40 HNAA        4.1120    0.5730    8.8870 hn        1 D1U      0.147333
     41 HAJ         6.7630    0.9030    6.5190 ha        1 D1U      0.161000
     42 HAK         8.4490   -0.1310    5.0550 ha        1 D1U      0.172000
     43 HAL         5.4670   -0.5310    1.8870 ha        1 D1U      0.191000
     44 HAM         3.7090    0.7240    1.1850 h1        1 D1U      0.116500
     45 HAMA        3.1820   -0.9020    1.8350 h1        1 D1U      0.116500
     46 HAN         1.4480    1.6830    1.7310 h1        1 D1U      0.123500
     47 HANA        0.9210    0.0980    2.4340 h1        1 D1U      0.123500
     48 HAO        11.8230   -1.5030    3.5600 hc        1 D1U      0.164500
     49 HAOA       13.0090   -1.0100    2.2600 hc        1 D1U      0.164500
     50 HAP        10.4870   -2.6850    4.4150 ha        1 D1U      0.123000
     51 HAPA        8.8580   -2.1190    5.0690 ha        1 D1U      0.123000
     52 HNAR        2.8230    1.0170    3.8740 hn        1 D1U      0.231000
     53 HAD3        5.7320    0.4650    8.8580 hn        1 D1U      0.147333
     54 CBD         9.2690   -1.6310   -0.8090 c3        1 D1U      0.501000
@<TRIPOS>BOND
     1    1   19 1   
     2    1   30 1   
     3    1   31 1   
     4    1   32 1   
     5    2   29 1   
     6    2   33 1   
     7    2   34 1   
     8    2   35 1   
     9    3   29 1   
    10    3   36 1   
    11    3   37 1   
    12    3   38 1   
    13    4   39 1   
    14    4   40 1   
    15    4   53 1   
    16    5   20 1   
    17    6   21 1   
    18    7   54 1   
    19    8   54 1   
    20    9   54 1   
    21   10   11 1   
    22   10   22 1   
    23   10   42 1   
    24   11   24 1   
    25   11   41 1   
    26   12   22 1   
    27   12   23 1   
    28   12   43 1   
    29   13   14 1   
    30   13   18 1   
    31   13   44 1   
    32   13   45 1   
    33   14   19 1   
    34   14   46 1   
    35   14   47 1   
    36   15   21 1   
    37   15   29 1   
    38   15   48 1   
    39   15   49 1   
    40   16   25 1   
    41   16   50 1   
    42   16   51 1   
    43   17   26 1   
    44   17   28 1   
    45   18   23 1   
    46   18   52 1   
    47   20   24 1   
    48   21   27 1   
    49   22   28 1   
    50   23   24 1   
    51   25   27 1   
    52   25   28 1   
    53   26   27 1   
    54   26   54 1   
@<TRIPOS>SUBSTRUCTURE
     1 D1U         1 TEMP              0 ****  ****    0 ROOT
