@<TRIPOS>MOLECULE
D1U
   53    51     1     0     0
SMALL
bcc


@<TRIPOS>ATOM
      1 CAA        -6.7080    5.7710    1.0550 c3        1 D1U     -0.350000
      2 CAB         4.3550   -2.6600   -1.0880 c3        1 D1U     -0.212000
      3 CAC         3.9720   -2.8520   -3.5380 c3        1 D1U     -0.212000
      4 NAD         0.2310    4.1550    3.0370 n         1 D1U     -0.436000
      5 OAE         0.7600    4.5330    0.8090 o         1 D1U     -0.366000
      6 OAF         2.0760   -5.6980   -0.2190 o         1 D1U     -0.274000
      7 FAG        -1.4940   -4.2490    2.1400 f         1 D1U     -0.152667
      8 FAH         0.6140   -4.6360    2.6000 f         1 D1U     -0.152667
      9 FAI        -0.3170   -5.6450    0.9390 f         1 D1U     -0.152667
     10 CAJ         1.0470    0.4200    0.8970 c1        1 D1U     -0.191000
     11 CAK         0.8940    1.7130    1.3940 c1        1 D1U     -0.055000
     12 CAL        -1.1270    0.5510   -0.1630 c1        1 D1U     -0.197000
     13 CAM        -3.2270    3.3160    1.0970 c3        1 D1U     -0.043000
     14 CAN        -4.4950    4.0050    0.4980 c3        1 D1U     -0.308000
     15 CAO         2.9150   -4.3680   -1.9410 c3        1 D1U     -0.202000
     16 CAP         2.3040   -1.9670   -2.0400 c3        1 D1U     -0.108000
     17 NAQ        -0.4590   -2.1470    0.5720 n2        1 D1U     -0.019000
     18 NAR        -2.4910    2.6220    0.0210 n3        1 D1U     -0.303000
     19 SAS        -5.3500    4.8610    1.7620 ss        1 D1U      0.098000
     20 CAT         0.3310    3.7710    1.5930 c2        1 D1U      0.351000
     21 CAU         2.1790   -4.5670   -0.7020 c2        1 D1U      0.301000
     22 CAV         0.0210   -0.1640    0.1100 c1        1 D1U      0.109000
     23 CAW        -1.2790    1.8490    0.3350 c2        1 D1U      0.159000
     24 CAX        -0.2570    2.4260    1.1180 c2        1 D1U     -0.186000
     25 CAY         1.2110   -2.1730   -0.9390 c2        1 D1U      0.006000
     26 CAZ         0.1600   -3.3670    0.6860 c1        1 D1U     -0.146000
     27 CBA         1.1910   -3.4120   -0.2310 c2        1 D1U     -0.220000
     28 NBB         0.2080   -1.4060   -0.4510 n2        1 D1U     -0.069000
     29 CBC         3.3200   -2.9750   -2.1310 c3        1 D1U     -0.040000
     30 CBD        -0.2680   -4.5170    1.6210 c2        1 D1U      0.514000
     31 HAA        -6.3710    6.4060    0.4080 h1        1 D1U      0.108333
     32 HAAA       -7.2970    5.1770    0.6320 h1        1 D1U      0.108333
     33 HAAB       -7.1970    6.2640    1.7860 h1        1 D1U      0.108333
     34 HAB         4.9760   -3.4600   -0.9670 hc        1 D1U      0.082667
     35 HABA        4.8720   -1.8860   -1.3660 hc        1 D1U      0.082667
     36 HABB        3.8760   -2.4500   -0.1790 hc        1 D1U      0.082667
     37 HAC         3.3530   -3.1450   -4.1980 hc        1 D1U      0.082667
     38 HACA        4.2070   -1.9210   -3.7060 hc        1 D1U      0.082667
     39 HACB        4.8220   -3.4360   -3.5810 hc        1 D1U      0.082667
     40 HNAD        0.4330    4.9550    3.2860 hn        1 D1U      0.228500
     41 HNAA       -0.0720    3.5530    3.6430 hn        1 D1U      0.228500
     42 HAJ         1.8680   -0.0910    1.0930 ha        1 D1U      0.151000
     43 HAK         1.5850    2.1050    1.9260 ha        1 D1U      0.145000
     44 HAL        -1.8420    0.1450   -0.7110 ha        1 D1U      0.159000
     45 HAM        -2.6370    4.0090    1.5130 h1        1 D1U      0.108500
     46 HAMA       -3.5010    2.6540    1.7920 h1        1 D1U      0.108500
     47 HAN        -5.0670    3.3440    0.1180 h1        1 D1U      0.118000
     48 HANA       -4.2340    4.6120   -0.1700 h1        1 D1U      0.118000
     49 HAO         3.7140   -4.9600   -1.9310 hc        1 D1U      0.117000
     50 HAOA        2.3740   -4.6600   -2.7130 hc        1 D1U      0.117000
     51 HAP         1.8440   -1.9560   -2.8950 hc        1 D1U      0.112000
     52 HAPA        2.7870   -1.0730   -1.8190 hc        1 D1U      0.112000
     53 HNAR       -2.8130    2.6240   -0.8030 hn        1 D1U      0.215000
@<TRIPOS>BOND
     1    1   19 1   
     2    1   31 1   
     3    1   32 1   
     4    1   33 1   
     5    2   29 1   
     6    2   34 1   
     7    2   35 1   
     8    2   36 1   
     9    3   29 1   
    10    3   37 1   
    11    3   38 1   
    12    3   39 1   
    13    4   20 1   
    14    4   40 1   
    15    4   41 1   
    16    5   20 1   
    17    6   21 1   
    18    7   30 1   
    19    8   30 1   
    20    9   30 1   
    21   10   22 1   
    22   10   42 1   
    23   11   24 1   
    24   11   43 1   
    25   12   23 1   
    26   12   44 1   
    27   13   14 1   
    28   13   18 1   
    29   13   45 1   
    30   13   46 1   
    31   14   19 1   
    32   14   47 1   
    33   14   48 1   
    34   15   21 1   
    35   15   29 1   
    36   15   49 1   
    37   15   50 1   
    38   16   25 1   
    39   16   29 1   
    40   16   51 1   
    41   16   52 1   
    42   17   26 1   
    43   17   28 1   
    44   18   23 1   
    45   18   53 1   
    46   20   24 1   
    47   21   27 1   
    48   23   24 1   
    49   25   27 1   
    50   25   28 1   
    51   26   27 1   
@<TRIPOS>SUBSTRUCTURE
     1 D1U         1 TEMP              0 ****  ****    0 ROOT
