@<TRIPOS>MOLECULE
D1V
   18    19     1     0     0
SMALL
bcc


@<TRIPOS>ATOM
      1 O4         -0.0830   -0.0800   -0.0250 o         1 D1V     -0.615500
      2 C3          1.1570   -0.0060    0.0190 c         1 D1V      0.713100
      3 C4          1.9690    0.0070    1.2490 ca        1 D1V     -0.190600
      4 C1          3.3840    0.0970    1.1430 ca        1 D1V      0.190400
      5 N1          4.0170    0.1710   -0.1020 nc        1 D1V     -0.647100
      6 C2          3.2620    0.1570   -1.1880 cd        1 D1V      0.521800
      7 S1          3.9930    0.2470   -2.7600 sh        1 D1V     -0.243000
      8 N2          1.8700    0.0720   -1.1930 ns        1 D1V     -0.482400
      9 C8          4.1500    0.1080    2.3340 ca        1 D1V     -0.125000
     10 C7          3.5160    0.0340    3.5640 ca        1 D1V     -0.092000
     11 C6          2.1210   -0.0530    3.6560 ca        1 D1V     -0.154000
     12 C5          1.3490   -0.0670    2.5030 ca        1 D1V     -0.057000
     13 HS1         5.2760    0.3150   -2.4130 hs        1 D1V      0.243800
     14 HN2         1.3710    0.0670   -2.0550 hn        1 D1V      0.346500
     15 H8          5.2470    0.1770    2.2760 ha        1 D1V      0.152000
     16 H7          4.1190    0.0440    4.4860 ha        1 D1V      0.138000
     17 H6          1.6400   -0.1110    4.6430 ha        1 D1V      0.141000
     18 H5          0.2500   -0.1350    2.5520 ha        1 D1V      0.159000
@<TRIPOS>BOND
     1    1    2 2   
     2    2    3 1   
     3    2    8 1   
     4    3    4 ar  
     5    3   12 ar  
     6    4    5 1   
     7    4    9 ar  
     8    5    6 2   
     9    6    7 1   
    10    6    8 1   
    11    7   13 1   
    12    8   14 1   
    13    9   10 ar  
    14    9   15 1   
    15   10   11 ar  
    16   10   16 1   
    17   11   12 ar  
    18   11   17 1   
    19   12   18 1   
@<TRIPOS>SUBSTRUCTURE
     1 D1V         1 TEMP              0 ****  ****    0 ROOT
