@<TRIPOS>MOLECULE
D1V
   18    19     1     0     0
SMALL
bcc


@<TRIPOS>ATOM
      1 O4         -0.0840   -0.0740   -0.0220 o         1 D1V     -0.615500
      2 C3          1.1560   -0.0020    0.0210 c         1 D1V      0.713100
      3 C4          1.9690    0.0080    1.2500 ca        1 D1V     -0.190600
      4 C1          3.3840    0.0950    1.1420 ca        1 D1V      0.190400
      5 N1          4.0160    0.1710   -0.1040 nc        1 D1V     -0.647100
      6 C2          3.2600    0.1600   -1.1880 cd        1 D1V      0.521800
      7 S1          3.9890    0.2520   -2.7610 sh        1 D1V     -0.243000
      8 N2          1.8670    0.0780   -1.1920 n         1 D1V     -0.482400
      9 C8          4.1520    0.1040    2.3330 ca        1 D1V     -0.125000
     10 C7          3.5190    0.0290    3.5630 ca        1 D1V     -0.092000
     11 C6          2.1240   -0.0570    3.6560 ca        1 D1V     -0.154000
     12 C5          1.3510   -0.0670    2.5050 ca        1 D1V     -0.057000
     13 HS1         5.2720    0.3170   -2.4160 hs        1 D1V      0.243800
     14 HN2         1.3670    0.0750   -2.0530 hn        1 D1V      0.346500
     15 H8          5.2490    0.1710    2.2730 ha        1 D1V      0.152000
     16 H7          4.1230    0.0360    4.4850 ha        1 D1V      0.138000
     17 H6          1.6440   -0.1160    4.6440 ha        1 D1V      0.141000
     18 H5          0.2510   -0.1340    2.5550 ha        1 D1V      0.159000
@<TRIPOS>BOND
     1    1    2 2   
     2    2    3 1   
     3    2    8 1   
     4    3    4 ar  
     5    3   12 ar  
     6    4    5 1   
     7    4    9 ar  
     8    5    6 2   
     9    6    7 1   
    10    6    8 1   
    11    7   13 1   
    12    8   14 1   
    13    9   10 ar  
    14    9   15 1   
    15   10   11 ar  
    16   10   16 1   
    17   11   12 ar  
    18   11   17 1   
    19   12   18 1   
@<TRIPOS>SUBSTRUCTURE
     1 D1V         1 TEMP              0 ****  ****    0 ROOT
