@<TRIPOS>MOLECULE
D1V
   18    15     1     0     0
SMALL
bcc


@<TRIPOS>ATOM
      1 O4         -2.6560    0.0490   -1.0770 o         1 D1V     -0.340000
      2 C3         -1.4420    0.0490   -1.0770 c1        1 D1V      0.350000
      3 C4         -0.6880    0.0490    0.2280 c1        1 D1V     -0.059500
      4 C1          0.6850    0.0490    0.2260 c1        1 D1V     -0.059500
      5 N1          1.4120    0.0490   -1.0380 n1        1 D1V     -0.220000
      6 C2          0.6890    0.0490   -2.2890 c1        1 D1V      0.003000
      7 S1          1.5760    0.0550   -3.8240 s         1 D1V      0.153000
      8 N2         -0.7390    0.0490   -2.2910 n3        1 D1V     -0.322000
      9 C8          1.3890    0.0490    1.4440 c2        1 D1V     -0.091000
     10 C7          0.6970    0.0490    2.6460 c1        1 D1V     -0.123000
     11 C6         -0.6930    0.0490    2.6480 c1        1 D1V     -0.123000
     12 C5         -1.3880    0.0490    1.4470 c2        1 D1V     -0.091000
     13 HS1         2.3460   -0.8370   -3.8370 hs        1 D1V      0.072000
     14 HN2        -1.1950    0.0490   -3.0810 hn        1 D1V      0.260000
     15 H8          2.3650    0.0490    1.4430 ha        1 D1V      0.155500
     16 H7          1.1860    0.0490    3.4910 ha        1 D1V      0.139500
     17 H6         -1.1790    0.0490    3.4940 ha        1 D1V      0.139500
     18 H5         -2.3650    0.0490    1.4480 ha        1 D1V      0.155500
@<TRIPOS>BOND
     1    1    2 1   
     2    2    8 1   
     3    3    4 1   
     4    3   12 1   
     5    4    9 1   
     6    5    6 1   
     7    6    8 1   
     8    7   13 1   
     9    8   14 1   
    10    9   10 1   
    11    9   15 1   
    12   10   16 1   
    13   11   12 1   
    14   11   17 1   
    15   12   18 1   
@<TRIPOS>SUBSTRUCTURE
     1 D1V         1 TEMP              0 ****  ****    0 ROOT
