@<TRIPOS>MOLECULE
D1V
   18    19     1     0     0
SMALL
bcc


@<TRIPOS>ATOM
      1 O4          0.2390   -2.7840   -0.0010 o         1 D1V     -0.615500
      2 C3          0.0110   -1.5620   -0.0010 c         1 D1V      0.713100
      3 C4          1.0340   -0.5020   -0.0010 ca        1 D1V     -0.190600
      4 C1          0.6200    0.8580   -0.0000 ca        1 D1V      0.190400
      5 N1         -0.7350    1.2080   -0.0010 nc        1 D1V     -0.647100
      6 C2         -1.6290    0.2330   -0.0010 cd        1 D1V      0.521800
      7 S1         -3.3250    0.6070   -0.0010 sh        1 D1V     -0.243000
      8 N2         -1.3290   -1.1280   -0.0010 n         1 D1V     -0.482400
      9 C8          1.6160    1.8660    0.0000 ca        1 D1V     -0.125000
     10 C7          2.9560    1.5140    0.0000 ca        1 D1V     -0.092000
     11 C6          3.3510    0.1690    0.0000 ca        1 D1V     -0.154000
     12 C5          2.3940   -0.8360   -0.0000 ca        1 D1V     -0.057000
     13 HS1        -3.2670    1.9360   -0.0010 hs        1 D1V      0.243800
     14 HN2        -2.0620   -1.8040   -0.0020 hn        1 D1V      0.346500
     15 H8          1.3180    2.9260    0.0000 ha        1 D1V      0.152000
     16 H7          3.7240    2.3030    0.0010 ha        1 D1V      0.138000
     17 H6          4.4210   -0.0870    0.0000 ha        1 D1V      0.141000
     18 H5          2.6830   -1.9000   -0.0010 ha        1 D1V      0.159000
@<TRIPOS>BOND
     1    1    2 2   
     2    2    3 1   
     3    2    8 1   
     4    3    4 ar  
     5    3   12 ar  
     6    4    5 1   
     7    4    9 ar  
     8    5    6 2   
     9    6    7 1   
    10    6    8 1   
    11    7   13 1   
    12    8   14 1   
    13    9   10 ar  
    14    9   15 1   
    15   10   11 ar  
    16   10   16 1   
    17   11   12 ar  
    18   11   17 1   
    19   12   18 1   
@<TRIPOS>SUBSTRUCTURE
     1 D1V         1 TEMP              0 ****  ****    0 ROOT
