@<TRIPOS>MOLECULE
D1X
   15    14     1     0     0
SMALL
bcc


@<TRIPOS>ATOM
      1 OAA        -2.6030   -0.8110   -1.8650 o         1 D1X     -0.544500
      2 OAB        -0.3660    2.2700    1.4330 o         1 D1X     -0.391000
      3 OAC        -0.7130   -1.2340   -2.8710 o         1 D1X     -0.544500
      4 OAD         1.8930   -1.5450    1.8470 o         1 D1X     -0.383000
      5 CAE         0.0510   -1.3520    0.2980 c1        1 D1X     -0.243000
      6 CAF        -0.0970    1.0320   -0.5650 c3        1 D1X     -0.158000
      7 NAG         1.1620    0.6230    1.5410 n         1 D1X     -0.386000
      8 CAH        -1.3430   -0.8110   -1.8650 c2        1 D1X      0.354000
      9 CAI         1.0460   -0.8110    1.3780 c1        1 D1X      0.347000
     10 CAJ        -0.5840   -0.3390   -0.6380 c2        1 D1X     -0.066000
     11 CAK         0.2790    1.4270    0.8460 c2        1 D1X      0.308000
     12 HAE        -0.2330   -2.2860    0.2970 ha        1 D1X      0.179000
     13 HAF         0.6640    1.2750   -1.1250 hc        1 D1X      0.151500
     14 HAFA       -0.7940    1.5960   -0.9510 hc        1 D1X      0.151500
     15 HNAG        1.6370    0.9650    2.2400 hn        1 D1X      0.228000
@<TRIPOS>BOND
     1    1    8 1   
     2    2   11 1   
     3    3    8 1   
     4    4    9 1   
     5    5   10 1   
     6    5   12 1   
     7    6   10 1   
     8    6   11 1   
     9    6   13 1   
    10    6   14 1   
    11    7    9 1   
    12    7   11 1   
    13    7   15 1   
    14    8   10 1   
@<TRIPOS>SUBSTRUCTURE
     1 D1X         1 TEMP              0 ****  ****    0 ROOT
