@<TRIPOS>MOLECULE
D1X
   15    15     1     0     0
SMALL
bcc


@<TRIPOS>ATOM
      1 OAA        -2.7700   -1.1760    0.0020 o         1 D1X     -0.810800
      2 OAB         2.1900   -2.2020    0.0010 o         1 D1X     -0.666500
      3 OAC        -2.9050    1.0600   -0.0030 o         1 D1X     -0.810800
      4 CAE        -0.0680    1.2230   -0.0010 ce        1 D1X     -0.261200
      5 CAF        -0.0330   -1.2500    0.0000 c3        1 D1X     -0.125200
      6 NAG         2.1020    0.0650    0.0000 n         1 D1X     -0.606500
      7 CAH        -2.2610   -0.0210   -0.0010 c         1 D1X      0.903800
      8 CAI         1.3990    1.2840   -0.0000 c         1 D1X      0.707700
      9 CAJ        -0.7320    0.0560   -0.0000 cf        1 D1X     -0.091400
     10 CAK         1.4750   -1.1790    0.0010 c         1 D1X      0.699500
     11 HAE        -0.5970    2.1880   -0.0010 ha        1 D1X      0.179000
     12 HAF        -0.3640   -1.8410    0.9000 hc        1 D1X      0.111700
     13 HAFA       -0.3630   -1.8420   -0.8990 hc        1 D1X      0.111700
     14 HNAG        3.0980    0.0940    0.0010 hn        1 D1X      0.314500
     15 OAD         2.0680    2.3370   -0.0010 o         1 D1X     -0.658500
@<TRIPOS>BOND
     1    1    7 1   
     2    2   10 2   
     3    3    7 1   
     4    4    8 1   
     5    4    9 2   
     6    4   11 1   
     7    5    9 1   
     8    5   10 1   
     9    5   12 1   
    10    5   13 1   
    11    6    8 1   
    12    6   10 1   
    13    6   14 1   
    14    7    9 1   
    15    8   15 2   
@<TRIPOS>SUBSTRUCTURE
     1 D1X         1 TEMP              0 ****  ****    0 ROOT
