@<TRIPOS>MOLECULE
D1X
   15    15     1     0     0
SMALL
bcc


@<TRIPOS>ATOM
      1 OAA         0.2570    0.1410   -0.0930 o         1 D1X     -0.809800
      2 OAB         1.3810   -0.2030    4.8420 o         1 D1X     -0.666500
      3 OAC         2.2060    0.6280   -1.0850 o         1 D1X     -0.809800
      4 CAE         3.5500    0.0730    1.3710 ce        1 D1X     -0.262200
      5 CAF         1.3210    0.0830    2.4420 c3        1 D1X     -0.125200
      6 NAG         3.4020   -0.1970    3.8110 n         1 D1X     -0.606500
      7 CAH         1.5060    0.3240   -0.0850 c         1 D1X      0.903800
      8 CAI         4.2170   -0.1090    2.6670 c         1 D1X      0.708700
      9 CAJ         2.2140    0.1580    1.2630 cf        1 D1X     -0.089400
     10 CAK         2.0120   -0.1140    3.7690 c         1 D1X      0.700500
     11 HAE         4.2060    0.1400    0.4890 ha        1 D1X      0.179000
     12 HAF         0.5880   -0.7600    2.2870 hc        1 D1X      0.112200
     13 HAFA        0.7060    1.0240    2.4990 hc        1 D1X      0.112200
     14 HNAG        3.8420   -0.3250    4.6950 hn        1 D1X      0.314500
     15 OAD         5.4510   -0.1930    2.8280 o         1 D1X     -0.658500
@<TRIPOS>BOND
     1    1    7 1   
     2    2   10 2   
     3    3    7 1   
     4    4    8 1   
     5    4    9 2   
     6    4   11 1   
     7    5    9 1   
     8    5   10 1   
     9    5   12 1   
    10    5   13 1   
    11    6    8 1   
    12    6   10 1   
    13    6   14 1   
    14    7    9 1   
    15    8   15 2   
@<TRIPOS>SUBSTRUCTURE
     1 D1X         1 TEMP              0 ****  ****    0 ROOT
