@<TRIPOS>MOLECULE
D1X
   15    15     1     0     0
SMALL
bcc


@<TRIPOS>ATOM
      1 OAA         0.2540    0.2270   -0.0830 o         1 D1X     -0.809800
      2 OAB         1.3890   -0.1820    4.8430 o         1 D1X     -0.666500
      3 OAC         2.2170    0.6150   -1.0900 o         1 D1X     -0.809800
      4 CAE         3.5520    0.0520    1.3650 ce        1 D1X     -0.262200
      5 CAF         1.3270    0.1070    2.4430 c3        1 D1X     -0.125200
      6 NAG         3.4060   -0.2180    3.8050 n         1 D1X     -0.606500
      7 CAH         1.5100    0.3530   -0.0830 c         1 D1X      0.903800
      8 CAI         4.2190   -0.1460    2.6590 c         1 D1X      0.708700
      9 CAJ         2.2180    0.1670    1.2620 cf        1 D1X     -0.090400
     10 CAK         2.0180   -0.1050    3.7680 c         1 D1X      0.700500
     11 HAE         4.2070    0.1060    0.4820 ha        1 D1X      0.179000
     12 HAF         0.5760   -0.7190    2.2900 hc        1 D1X      0.112200
     13 HAFA        0.7320    1.0610    2.5030 hc        1 D1X      0.112200
     14 HNAG        3.8460   -0.3560    4.6880 hn        1 D1X      0.314500
     15 OAD         5.4510   -0.2580    2.8160 o         1 D1X     -0.658500
@<TRIPOS>BOND
     1    1    7 1   
     2    2   10 2   
     3    3    7 1   
     4    4    8 1   
     5    4    9 2   
     6    4   11 1   
     7    5    9 1   
     8    5   10 1   
     9    5   12 1   
    10    5   13 1   
    11    6    8 1   
    12    6   10 1   
    13    6   14 1   
    14    7    9 1   
    15    8   15 2   
@<TRIPOS>SUBSTRUCTURE
     1 D1X         1 TEMP              0 ****  ****    0 ROOT
