@<TRIPOS>MOLECULE
D1X
   15    15     1     0     0
SMALL
bcc


@<TRIPOS>ATOM
      1 OAA         0.2550    0.2120   -0.0850 o         1 D1X     -0.809800
      2 OAB         1.3890   -0.1790    4.8430 o         1 D1X     -0.666500
      3 OAC         2.2160    0.6260   -1.0880 o         1 D1X     -0.809800
      4 CAE         3.5520    0.0510    1.3650 ce        1 D1X     -0.262200
      5 CAF         1.3270    0.1100    2.4430 c3        1 D1X     -0.125200
      6 NAG         3.4060   -0.2180    3.8050 ns        1 D1X     -0.606500
      7 CAH         1.5090    0.3510   -0.0830 c         1 D1X      0.903800
      8 CAI         4.2190   -0.1480    2.6590 c         1 D1X      0.708700
      9 CAJ         2.2180    0.1670    1.2620 cf        1 D1X     -0.090400
     10 CAK         2.0180   -0.1030    3.7680 c         1 D1X      0.700500
     11 HAE         4.2070    0.1030    0.4810 ha        1 D1X      0.179000
     12 HAF         0.5750   -0.7160    2.2910 hc        1 D1X      0.112200
     13 HAFA        0.7340    1.0650    2.5030 hc        1 D1X      0.112200
     14 HNAG        3.8460   -0.3570    4.6880 hn        1 D1X      0.314500
     15 OAD         5.4510   -0.2610    2.8150 o         1 D1X     -0.658500
@<TRIPOS>BOND
     1    1    7 1   
     2    2   10 2   
     3    3    7 1   
     4    4    8 1   
     5    4    9 2   
     6    4   11 1   
     7    5    9 1   
     8    5   10 1   
     9    5   12 1   
    10    5   13 1   
    11    6    8 1   
    12    6   10 1   
    13    6   14 1   
    14    7    9 1   
    15    8   15 2   
@<TRIPOS>SUBSTRUCTURE
     1 D1X         1 TEMP              0 ****  ****    0 ROOT
