@<TRIPOS>MOLECULE
D20
   38    37     1     0     0
SMALL
bcc


@<TRIPOS>ATOM
      1 N           0.5180    0.3740    0.8280 n4        1 D20     -0.828600
      2 C1          1.5240    1.4820    0.8030 c3        1 D20     -0.012500
      3 C           0.7980    2.8450    0.9820 c         1 D20      0.896600
      4 O          -0.3330    2.9740    0.4380 o         1 D20     -0.800800
      5 C2          2.3570    1.5290   -0.4890 c3        1 D20     -0.115400
      6 C3          1.6530    2.0100   -1.7480 c3        1 D20     -0.122400
      7 C4          1.9960    3.4410   -2.1990 c3        1 D20      0.121800
      8 N5          1.5600    4.4050   -1.1490 n4        1 D20     -0.833000
      9 C6          1.7120    5.8800   -1.3260 c2        1 D20      0.630100
     10 N61         1.3840    6.6150   -0.0480 n4        1 D20     -0.745000
     11 N62         2.0490    6.5370   -2.3650 n2        1 D20     -0.623100
     12 C7          2.4380    7.6170    0.3420 c3        1 D20      0.111800
     13 C8          0.3520    9.9250    2.2720 c3        1 D20      0.119700
     14 O9          1.4510    3.8150    1.4700 o         1 D20     -0.800800
     15 O10         0.7140    8.8560    1.3960 os        1 D20     -0.475600
     16 C10         2.0210    8.3520    1.6260 c3        1 D20      0.102400
     17 HN1         0.2770    0.1590    1.8020 hn        1 D20      0.471133
     18 HN2        -0.3390    0.6950    0.3480 hn        1 D20      0.471133
     19 H1          2.2310    1.3210    1.6730 hx        1 D20      0.141700
     20 H2C1        3.2450    2.1810   -0.2600 hc        1 D20      0.093700
     21 H2C2        2.7780    0.5030   -0.6910 hc        1 D20      0.093700
     22 H3C1        1.9560    1.3530   -2.6130 hc        1 D20      0.108700
     23 H3C2        0.5370    1.9150   -1.6310 hc        1 D20      0.108700
     24 H4C1        1.4540    3.6650   -3.1620 hx        1 D20      0.116700
     25 H4C2        3.1060    3.5530   -2.3590 hx        1 D20      0.116700
     26 H5          0.5500    4.2060   -0.9330 hn        1 D20      0.507800
     27 H61         1.2470    5.9470    0.7460 hn        1 D20      0.511800
     28 H62         2.2630    6.0920   -3.2360 hn        1 D20      0.507400
     29 H7C1        3.4100    7.0760    0.5100 hx        1 D20      0.125700
     30 H7C2        2.5460    8.3650   -0.4970 hx        1 D20      0.125700
     31 H101        2.0070    7.6640    2.5140 h1        1 D20      0.091700
     32 H102        2.7630    9.1800    1.8000 h1        1 D20      0.091700
     33 H8C1        0.3840    9.5790    3.3330 h1        1 D20      0.067367
     34 H8C2        1.0340   10.7960    2.1170 h1        1 D20      0.067367
     35 H8C3       -0.6940   10.1760    1.9620 h1        1 D20      0.067367
     36 HN3         0.8800   -0.4680    0.3730 hn        1 D20      0.471133
     37 H52         2.1160    4.1490   -0.2910 hn        1 D20      0.507800
     38 H612        0.4940    7.1350   -0.1840 hn        1 D20      0.511800
@<TRIPOS>BOND
     1    1    2 1   
     2    1   17 1   
     3    1   18 1   
     4    1   36 1   
     5    2    3 1   
     6    2    5 1   
     7    2   19 1   
     8    3    4 1   
     9    3   14 1   
    10    5    6 1   
    11    5   20 1   
    12    5   21 1   
    13    6    7 1   
    14    6   22 1   
    15    6   23 1   
    16    7    8 1   
    17    7   24 1   
    18    7   25 1   
    19    8    9 1   
    20    8   26 1   
    21    8   37 1   
    22    9   10 1   
    23    9   11 2   
    24   10   12 1   
    25   10   27 1   
    26   10   38 1   
    27   11   28 1   
    28   12   16 1   
    29   12   29 1   
    30   12   30 1   
    31   13   15 1   
    32   13   33 1   
    33   13   34 1   
    34   13   35 1   
    35   15   16 1   
    36   16   31 1   
    37   16   32 1   
@<TRIPOS>SUBSTRUCTURE
     1 D20         1 TEMP              0 ****  ****    0 ROOT
