@<TRIPOS>MOLECULE
D20
   35    34     1     0     0
SMALL
bcc


@<TRIPOS>ATOM
      1 N          -1.1130    2.5190   -3.1990 n3        1 D20     -0.889800
      2 C1         -0.6260    1.4660   -4.0810 c3        1 D20      0.018500
      3 C          -0.9670    0.0210   -3.5900 c         1 D20      0.883600
      4 O          -1.0530   -0.1750   -2.3420 o         1 D20     -0.845300
      5 C2          0.8830    1.5430   -4.3320 c3        1 D20     -0.049400
      6 C3          1.6830    1.3910   -3.0560 c3        1 D20     -0.103400
      7 C4          3.1470    1.0870   -3.3800 c3        1 D20      0.185800
      8 N5          3.9230    0.8120   -2.1820 nh        1 D20     -0.791200
      9 C6          5.2520    0.3130   -2.3480 c2        1 D20      0.757100
     10 N61         5.8050   -0.3320   -1.1710 nh        1 D20     -0.843200
     11 N62         5.8840    0.4560   -3.4900 n2        1 D20     -0.879100
     12 C7          7.2370   -0.2430   -1.0050 c3        1 D20      0.180800
     13 C8          7.5020   -0.1660    2.6620 c3        1 D20      0.117700
     14 O9         -1.1380   -0.8680   -4.4670 o         1 D20     -0.845300
     15 O10         7.2500    0.2320    1.3270 os        1 D20     -0.423600
     16 C10         7.7060   -0.7240    0.3730 c3        1 D20      0.117400
     17 HN1        -0.6660    2.4070   -2.3040 hn        1 D20      0.328800
     18 HN2        -2.0920    2.3530   -3.0440 hn        1 D20      0.328800
     19 H1         -1.1390    1.6110   -5.0770 h1        1 D20      0.043700
     20 H2C1        1.1470    2.5120   -4.8290 hc        1 D20      0.031700
     21 H2C2        1.1350    0.7110   -5.0420 hc        1 D20      0.031700
     22 H3C1        1.2260    0.5620   -2.4450 hc        1 D20      0.063200
     23 H3C2        1.6220    2.3310   -2.4490 hc        1 D20      0.063200
     24 H4C1        3.1890    0.2220   -4.1030 h1        1 D20      0.047200
     25 H4C2        3.6120    1.9770   -3.8900 h1        1 D20      0.047200
     26 H5          3.3900    0.2860   -1.5150 hn        1 D20      0.397800
     27 H61         5.3270   -0.1010   -0.3210 hn        1 D20      0.400800
     28 H62         6.8390    0.1730   -3.4860 hn        1 D20      0.372400
     29 H7C1        7.6210    0.8070   -1.1600 h1        1 D20      0.044200
     30 H7C2        7.7250   -0.9110   -1.7710 h1        1 D20      0.044200
     31 H101        8.8280   -0.7610    0.3910 h1        1 D20      0.035200
     32 H102        7.2970   -1.7400    0.6190 h1        1 D20      0.035200
     33 H8C1        6.9710   -1.1220    2.8970 h1        1 D20      0.031700
     34 H8C2        7.0960    0.6710    3.2840 h1        1 D20      0.031700
     35 H8C3        8.5990   -0.2880    2.8370 h1        1 D20      0.031700
@<TRIPOS>BOND
     1    1    2 1   
     2    1   17 1   
     3    1   18 1   
     4    2    3 1   
     5    2    5 1   
     6    2   19 1   
     7    3    4 1   
     8    3   14 1   
     9    5    6 1   
    10    5   20 1   
    11    5   21 1   
    12    6    7 1   
    13    6   22 1   
    14    6   23 1   
    15    7    8 1   
    16    7   24 1   
    17    7   25 1   
    18    8    9 1   
    19    8   26 1   
    20    9   10 1   
    21    9   11 2   
    22   10   12 1   
    23   10   27 1   
    24   11   28 1   
    25   12   16 1   
    26   12   29 1   
    27   12   30 1   
    28   13   15 1   
    29   13   33 1   
    30   13   34 1   
    31   13   35 1   
    32   15   16 1   
    33   16   31 1   
    34   16   32 1   
@<TRIPOS>SUBSTRUCTURE
     1 D20         1 TEMP              0 ****  ****    0 ROOT
