@<TRIPOS>MOLECULE
D20
   38    37     1     0     0
SMALL
bcc


@<TRIPOS>ATOM
      1 N           0.0230   -0.0070   -0.3360 n4        1 D20     -0.838600
      2 C1          1.4940    0.2090   -0.1290 c3        1 D20      0.065500
      3 C           1.7790    0.3280    1.3670 c         1 D20      0.616100
      4 O           0.9670    0.6740    2.2240 o         1 D20     -0.505000
      5 C2          2.0330    1.4390   -0.8650 c3        1 D20     -0.111400
      6 C3          1.4380    2.7520   -0.3990 c3        1 D20     -0.105400
      7 C4          2.3120    3.9080   -0.9030 c3        1 D20      0.188800
      8 N5          1.8480    5.1950   -0.4260 nh        1 D20     -0.854200
      9 C6          2.6970    6.3100   -0.6790 c2        1 D20      0.695100
     10 N61         2.3460    7.5230    0.1650 n4        1 D20     -0.733000
     11 N62         3.7410    6.4560   -1.4220 n2        1 D20     -0.744100
     12 C7          1.6130    8.5460   -0.6450 c3        1 D20      0.107800
     13 C8         -0.4470   10.0120    2.0240 c3        1 D20      0.117700
     14 O9          3.0500    0.0230    1.6790 oh        1 D20     -0.552100
     15 O10         0.3150    9.0750    1.2640 os        1 D20     -0.475600
     16 C10         1.0830    9.6850    0.2340 c3        1 D20      0.100400
     17 HN1        -0.2100    0.1000   -1.3280 hn        1 D20      0.477133
     18 HN2        -0.2390   -0.9500   -0.0220 hn        1 D20      0.477133
     19 H1          2.0330   -0.7110   -0.5270 hx        1 D20      0.159700
     20 H2C1        3.1470    1.4340   -0.6810 hc        1 D20      0.105700
     21 H2C2        1.8830    1.3140   -1.9710 hc        1 D20      0.105700
     22 H3C1        1.3850    2.7780    0.7240 hc        1 D20      0.068200
     23 H3C2        0.3940    2.8670   -0.7930 hc        1 D20      0.068200
     24 H4C1        2.3380    3.8710   -2.0330 h1        1 D20      0.065200
     25 H4C2        3.3650    3.7540   -0.5240 h1        1 D20      0.065200
     26 H5          3.1870    0.0840    2.6480 ho        1 D20      0.499000
     27 H61         3.2150    7.9380    0.5320 hn        1 D20      0.483300
     28 H62         4.0220    5.7040   -2.0150 hn        1 D20      0.470400
     29 H7C1        0.7490    8.0270   -1.1490 hx        1 D20      0.116700
     30 H7C2        2.3120    8.9640   -1.4240 hx        1 D20      0.116700
     31 H101        1.9180   10.2850    0.6870 h1        1 D20      0.084700
     32 H102        0.4450   10.3540   -0.4050 h1        1 D20      0.084700
     33 H8C1       -0.9690    9.3780    2.7840 h1        1 D20      0.063033
     34 H8C2        0.2320   10.7500    2.5180 h1        1 D20      0.063033
     35 H8C3       -1.1840   10.5330    1.3660 h1        1 D20      0.063033
     36 HN3        -0.5090    0.6780    0.2210 hn        1 D20      0.477133
     37 H52         0.8730    5.3660   -0.5700 hn        1 D20      0.430800
     38 H612        1.7590    7.2480    0.9680 hn        1 D20      0.483300
@<TRIPOS>BOND
     1    1    2 1   
     2    1   17 1   
     3    1   18 1   
     4    1   36 1   
     5    2    3 1   
     6    2    5 1   
     7    2   19 1   
     8    3    4 2   
     9    3   14 1   
    10    5    6 1   
    11    5   20 1   
    12    5   21 1   
    13    6    7 1   
    14    6   22 1   
    15    6   23 1   
    16    7    8 1   
    17    7   24 1   
    18    7   25 1   
    19    8    9 1   
    20    8   37 1   
    21    9   10 1   
    22    9   11 2   
    23   10   12 1   
    24   10   27 1   
    25   10   38 1   
    26   11   28 1   
    27   12   16 1   
    28   12   29 1   
    29   12   30 1   
    30   13   15 1   
    31   13   33 1   
    32   13   34 1   
    33   13   35 1   
    34   14   26 1   
    35   15   16 1   
    36   16   31 1   
    37   16   32 1   
@<TRIPOS>SUBSTRUCTURE
     1 D20         1 TEMP              0 ****  ****    0 ROOT
