@<TRIPOS>MOLECULE
D20
   38    37     1     0     0
SMALL
bcc


@<TRIPOS>ATOM
      1 N          -0.0010    0.0130   -0.4690 nz        1 D20     -0.838600
      2 C1          1.4630    0.2130   -0.2050 c3        1 D20      0.065500
      3 C           1.6950    0.3060    1.3020 c         1 D20      0.616100
      4 O           0.8540    0.6450    2.1350 o         1 D20     -0.505000
      5 C2          2.0390    1.4500   -0.9010 c3        1 D20     -0.111400
      6 C3          1.4380    2.7610   -0.4360 c3        1 D20     -0.105400
      7 C4          2.3380    3.9170   -0.8900 c3        1 D20      0.188800
      8 N5          1.8680    5.2000   -0.4070 nu        1 D20     -0.854200
      9 C6          2.7340    6.3110   -0.6130 c2        1 D20      0.695100
     10 N61         2.3650    7.5130    0.2380 ny        1 D20     -0.733000
     11 N62         3.8030    6.4610   -1.3180 n2        1 D20     -0.744100
     12 C7          1.6650    8.5550   -0.5770 c3        1 D20      0.107800
     13 C8         -0.4670    9.9950    2.0490 c3        1 D20      0.117700
     14 O9          2.9510   -0.0150    1.6550 oh        1 D20     -0.552100
     15 O10         0.3120    9.0640    1.2970 os        1 D20     -0.475600
     16 C10         1.1160    9.6840    0.3020 c3        1 D20      0.100400
     17 HN1        -0.1970    0.1380   -1.4670 hn        1 D20      0.477133
     18 HN2        -0.5470    0.6930    0.0800 hn        1 D20      0.477133
     19 H1          2.0090   -0.7050   -0.5990 hx        1 D20      0.159700
     20 H2C1        1.9270    1.3450   -2.0140 hc        1 D20      0.105700
     21 H2C2        3.1450    1.4330   -0.6770 hc        1 D20      0.105700
     22 H3C1        0.4090    2.8910   -0.8640 hc        1 D20      0.068200
     23 H3C2        1.3450    2.7690    0.6850 hc        1 D20      0.068200
     24 H4C1        2.4020    3.8980   -2.0180 h1        1 D20      0.065200
     25 H4C2        3.3760    3.7480   -0.4770 h1        1 D20      0.065200
     26 H5          0.9000    5.3820   -0.5820 hn        1 D20      0.430800
     27 H61         3.2240    7.9160    0.6400 hn        1 D20      0.483300
     28 H62         4.0990    5.7170   -1.9150 hn        1 D20      0.470400
     29 H7C1        2.3920    8.9790   -1.3280 hx        1 D20      0.116700
     30 H7C2        0.8140    8.0510   -1.1170 hx        1 D20      0.116700
     31 H101        0.5030   10.3680   -0.3450 h1        1 D20      0.084700
     32 H102        1.9400   10.2700    0.7910 h1        1 D20      0.084700
     33 H8C1        0.2010   10.7190    2.5750 h1        1 D20      0.063033
     34 H8C2       -1.0170    9.3530    2.7820 h1        1 D20      0.063033
     35 H8C3       -1.1790   10.5330    1.3760 h1        1 D20      0.063033
     36 HN3        -0.2820   -0.9330   -0.1800 hn        1 D20      0.477133
     37 H52         3.0530    0.0300    2.6300 ho        1 D20      0.499000
     38 H612        1.7500    7.2300    1.0180 hn        1 D20      0.483300
@<TRIPOS>BOND
     1    1    2 1   
     2    1   17 1   
     3    1   18 1   
     4    1   36 1   
     5    2    3 1   
     6    2    5 1   
     7    2   19 1   
     8    3    4 2   
     9    3   14 1   
    10    5    6 1   
    11    5   20 1   
    12    5   21 1   
    13    6    7 1   
    14    6   22 1   
    15    6   23 1   
    16    7    8 1   
    17    7   24 1   
    18    7   25 1   
    19    8    9 1   
    20    8   26 1   
    21    9   10 1   
    22    9   11 2   
    23   10   12 1   
    24   10   27 1   
    25   10   38 1   
    26   11   28 1   
    27   12   16 1   
    28   12   29 1   
    29   12   30 1   
    30   13   15 1   
    31   13   33 1   
    32   13   34 1   
    33   13   35 1   
    34   14   37 1   
    35   15   16 1   
    36   16   31 1   
    37   16   32 1   
@<TRIPOS>SUBSTRUCTURE
     1 D20         1 TEMP              0 ****  ****    0 ROOT
