@<TRIPOS>MOLECULE
D20
   35    33     1     0     0
SMALL
bcc


@<TRIPOS>ATOM
      1 N          -4.0220   -2.0320    3.8590 n3        1 D20     -0.891800
      2 C1         -2.6800   -2.1750    3.5450 c3        1 D20      0.035500
      3 C          -1.8850   -2.4980    4.8230 c         1 D20      0.878600
      4 O          -1.2570   -3.6120    4.9230 o         1 D20     -0.852300
      5 C2         -2.1580   -0.8690    2.9310 c3        1 D20     -0.052400
      6 C3         -1.6070   -1.1520    1.5150 c3        1 D20     -0.111400
      7 C4         -1.1710    0.1690    0.8460 c3        1 D20      0.150800
      8 N5         -0.5820   -0.1190   -0.4250 nh        1 D20     -0.764000
      9 C6         -0.0360    0.9290   -1.2100 c2        1 D20      0.319000
     10 N61         1.1880    0.7000   -1.9950 nh        1 D20     -0.764000
     11 N62        -0.6190    2.1040   -1.2380 n1        1 D20     -0.344000
     12 C7          1.6770    1.7170   -2.8670 c3        1 D20      0.176800
     13 C8          4.9280    2.0880   -4.6320 c3        1 D20      0.091700
     14 O9         -1.9280   -1.6970    5.8190 o         1 D20     -0.852300
     15 O10         3.6560    2.3900   -4.0100 os        1 D20     -0.450600
     16 C10         3.0300    1.2910   -3.4420 c3        1 D20      0.109400
     17 HN1        -4.1530   -2.2340    4.7520 hn        1 D20      0.333800
     18 HN2        -4.5250   -2.6060    3.3340 hn        1 D20      0.333800
     19 H1         -2.5700   -2.9170    2.8890 h1        1 D20      0.049700
     20 H2C1       -2.9030   -0.2080    2.8730 hc        1 D20      0.029700
     21 H2C2       -1.4460   -0.5080    3.4920 hc        1 D20      0.029700
     22 H3C1       -2.2970   -1.5720    0.9770 hc        1 D20      0.046200
     23 H3C2       -0.8420   -1.7480    1.5800 hc        1 D20      0.046200
     24 H4C1       -1.9510    0.7480    0.7210 h1        1 D20      0.062700
     25 H4C2       -0.5200    0.6200    1.4100 h1        1 D20      0.062700
     26 H5         -0.4780   -0.9700   -0.6820 hn        1 D20      0.367800
     27 H61         1.6170   -0.0940   -1.9400 hn        1 D20      0.462800
     28 H62        -1.4210    2.2560   -0.7260 DU        1 D20      0.136000
     29 H7C1        1.0280    1.8580   -3.6100 h1        1 D20      0.040700
     30 H7C2        1.7870    2.5600   -2.3610 h1        1 D20      0.040700
     31 H101        2.8940    0.6030   -4.1260 h1        1 D20      0.066700
     32 H102        3.6030    0.9220   -2.7070 h1        1 D20      0.066700
     33 H8C1        5.4930    1.5920   -3.9980 h1        1 D20      0.048367
     34 H8C2        5.3750    2.9230   -4.8840 h1        1 D20      0.048367
     35 H8C3        4.7780    1.5390   -5.4380 h1        1 D20      0.048367
@<TRIPOS>BOND
     1    1    2 1   
     2    1   17 1   
     3    1   18 1   
     4    2    3 1   
     5    2    5 1   
     6    2   19 1   
     7    3    4 1   
     8    3   14 1   
     9    5    6 1   
    10    5   20 1   
    11    5   21 1   
    12    6    7 1   
    13    6   22 1   
    14    6   23 1   
    15    7    8 1   
    16    7   24 1   
    17    7   25 1   
    18    8    9 1   
    19    8   26 1   
    20    9   10 1   
    21    9   11 2   
    22   10   12 1   
    23   10   27 1   
    24   12   16 1   
    25   12   29 1   
    26   12   30 1   
    27   13   15 1   
    28   13   33 1   
    29   13   34 1   
    30   13   35 1   
    31   15   16 1   
    32   16   31 1   
    33   16   32 1   
@<TRIPOS>SUBSTRUCTURE
     1 D20         1 TEMP              0 ****  ****    0 ROOT
