@<TRIPOS>MOLECULE
D22
   52    51     1     0     0
SMALL
bcc


@<TRIPOS>ATOM
      1 C2         -5.7590    4.7350   -4.3880 c3        1 D22     -0.080400
      2 C3         -4.4860    3.8750   -4.4050 c3        1 D22     -0.079400
      3 C4         -4.3660    3.1200   -3.0880 c3        1 D22     -0.079400
      4 C5         -3.0810    2.2860   -3.0920 c3        1 D22     -0.078400
      5 C6         -2.9310    1.5820   -1.7520 c3        1 D22     -0.078400
      6 C7         -1.6610    0.7140   -1.7650 c3        1 D22     -0.083400
      7 C8         -1.3050    0.3100   -0.3300 c3        1 D22      0.164800
      8 C10         0.2530   -0.8180    1.0280 c3        1 D22      0.164800
      9 C17         6.9910   -4.7600    5.0870 c3        1 D22     -0.092100
     10 C16         5.9230   -3.6930    5.0350 c3        1 D22     -0.080400
     11 C15         5.0890   -3.8790    3.7920 c3        1 D22     -0.079400
     12 C14         3.9440   -2.8660    3.7920 c3        1 D22     -0.079400
     13 C13         3.2380   -2.8930    2.4340 c3        1 D22     -0.078400
     14 C12         2.0520   -1.8980    2.4470 c3        1 D22     -0.078400
     15 C11         1.4820   -1.7570    1.0100 c3        1 D22     -0.083400
     16 N9         -0.0770   -0.4240   -0.3310 n3        1 D22     -0.825200
     17 C1         -5.7610    5.6660   -5.6010 c3        1 D22     -0.092100
     18 H2         -5.7810    5.2700   -3.5650 hc        1 D22      0.038200
     19 H2A        -6.5450    4.1540   -4.4210 hc        1 D22      0.038200
     20 H3         -4.5330    3.2350   -5.1450 hc        1 D22      0.039700
     21 H3A        -3.7060    4.4520   -4.5220 hc        1 D22      0.039700
     22 H4         -5.1340    2.5310   -2.9810 hc        1 D22      0.039200
     23 H4A        -4.3390    3.7560   -2.3500 hc        1 D22      0.039200
     24 H5         -2.3130    2.8730   -3.2400 hc        1 D22      0.040700
     25 H5A        -3.1250    1.6170   -3.8100 hc        1 D22      0.040700
     26 H6         -3.7140    1.0140   -1.5920 hc        1 D22      0.040200
     27 H6A        -2.8620    2.2490   -1.0400 hc        1 D22      0.040200
     28 H7         -0.9180    1.2260   -2.1560 hc        1 D22      0.046700
     29 H7A        -1.8200   -0.0890   -2.3010 hc        1 D22      0.046700
     30 H8         -2.0130   -0.2460    0.0360 h1        1 D22      0.028200
     31 H8A        -1.2050    1.1100    0.2170 h1        1 D22      0.028200
     32 H10         0.4580   -0.0240    1.5540 h1        1 D22      0.028200
     33 H10A       -0.5180   -1.2910    1.4300 h1        1 D22      0.028200
     34 H17         7.5470   -4.7080    4.2760 hc        1 D22      0.032700
     35 H17A        6.5690   -5.6410    5.1380 hc        1 D22      0.032700
     36 H17B        7.5540   -4.6210    5.8800 hc        1 D22      0.032700
     37 H16         6.3460   -2.8080    5.0150 hc        1 D22      0.038200
     38 H16A        5.3560   -3.7640    5.8180 hc        1 D22      0.038200
     39 H15         5.6460   -3.7400    3.0020 hc        1 D22      0.039700
     40 H15A        4.7220   -4.7850    3.7780 hc        1 D22      0.039700
     41 H14         4.3010   -1.9740    3.9550 hc        1 D22      0.039200
     42 H14A        3.3040   -3.0970    4.4980 hc        1 D22      0.039200
     43 H13         2.9040   -3.7990    2.2570 hc        1 D22      0.040700
     44 H13A        3.8720   -2.6350    1.7310 hc        1 D22      0.040700
     45 H12         2.3630   -1.0210    2.7640 hc        1 D22      0.040200
     46 H12A        1.3530   -2.2310    3.0430 hc        1 D22      0.040200
     47 H11         1.2150   -2.6370    0.6770 hc        1 D22      0.046700
     48 H11A        2.1670   -1.3840    0.4260 hc        1 D22      0.046700
     49 HN9         0.5940    0.1040   -0.6680 hn        1 D22      0.354800
     50 H1         -5.8070    5.1330   -6.4220 hc        1 D22      0.032700
     51 H1A        -4.9370    6.2030   -5.6040 hc        1 D22      0.032700
     52 H1B        -6.5460    6.2670   -5.5540 hc        1 D22      0.032700
@<TRIPOS>BOND
     1    1    2 1   
     2    1   17 1   
     3    1   18 1   
     4    1   19 1   
     5    2    3 1   
     6    2   20 1   
     7    2   21 1   
     8    3    4 1   
     9    3   22 1   
    10    3   23 1   
    11    4    5 1   
    12    4   24 1   
    13    4   25 1   
    14    5    6 1   
    15    5   26 1   
    16    5   27 1   
    17    6    7 1   
    18    6   28 1   
    19    6   29 1   
    20    7   16 1   
    21    7   30 1   
    22    7   31 1   
    23    8   15 1   
    24    8   16 1   
    25    8   32 1   
    26    8   33 1   
    27    9   10 1   
    28    9   34 1   
    29    9   35 1   
    30    9   36 1   
    31   10   11 1   
    32   10   37 1   
    33   10   38 1   
    34   11   12 1   
    35   11   39 1   
    36   11   40 1   
    37   12   13 1   
    38   12   41 1   
    39   12   42 1   
    40   13   14 1   
    41   13   43 1   
    42   13   44 1   
    43   14   15 1   
    44   14   45 1   
    45   14   46 1   
    46   15   47 1   
    47   15   48 1   
    48   16   49 1   
    49   17   50 1   
    50   17   51 1   
    51   17   52 1   
@<TRIPOS>SUBSTRUCTURE
     1 D22         1 TEMP              0 ****  ****    0 ROOT
