@<TRIPOS>MOLECULE
D22
   53    52     1     0     0
SMALL
bcc


@<TRIPOS>ATOM
      1 C2         -0.0880    0.0000    0.1250 c3        1 D22     -0.079400
      2 C3          1.4250    0.0020    0.0660 c3        1 D22     -0.079400
      3 C4          2.0280   -0.0010    1.4540 c3        1 D22     -0.079400
      4 C5          3.5410    0.0020    1.3910 c3        1 D22     -0.079400
      5 C6          4.1400   -0.0020    2.7820 c3        1 D22     -0.078400
      6 C7          5.6550    0.0010    2.7100 c3        1 D22     -0.110400
      7 C8          6.2240   -0.0020    4.1230 c3        1 D22      0.101800
      8 C10         8.2680   -0.0030    5.5270 c3        1 D22      0.101800
      9 C17        15.7710   -0.0030   10.0530 c3        1 D22     -0.095100
     10 C16        14.2650   -0.0040    9.9840 c3        1 D22     -0.079400
     11 C15        13.7780   -0.0020    8.5500 c3        1 D22     -0.079400
     12 C14        12.2650   -0.0040    8.4860 c3        1 D22     -0.079400
     13 C13        11.7820   -0.0020    7.0510 c3        1 D22     -0.079400
     14 C12        10.2680   -0.0040    6.9910 c3        1 D22     -0.078400
     15 C11         9.7910   -0.0010    5.5510 c3        1 D22     -0.110400
     16 N9          7.7190    0.0000    4.1370 ny        1 D22     -0.764000
     17 C1         -0.6930    0.0030   -1.2550 c3        1 D22     -0.095100
     18 H2         -0.4390   -0.9050    0.6890 hc        1 D22      0.041700
     19 H2A        -0.4410    0.9010    0.6940 hc        1 D22      0.041700
     20 H3          1.7770    0.9070   -0.4970 hc        1 D22      0.043700
     21 H3A         1.7790   -0.8990   -0.5010 hc        1 D22      0.043700
     22 H4          1.6750   -0.9060    2.0150 hc        1 D22      0.045700
     23 H4A         1.6720    0.9000    2.0210 hc        1 D22      0.045700
     24 H5          3.8920    0.9080    0.8300 hc        1 D22      0.048700
     25 H5A         3.8950   -0.9000    0.8240 hc        1 D22      0.048700
     26 H6          3.7880   -0.9090    3.3410 hc        1 D22      0.055700
     27 H6A         3.7840    0.9010    3.3460 hc        1 D22      0.055700
     28 H7          6.0030   -0.9040    2.1440 hc        1 D22      0.067700
     29 H7A         6.0000    0.9110    2.1500 hc        1 D22      0.067700
     30 H8          5.8730    0.9110    4.6840 hx        1 D22      0.107700
     31 H8A         5.8760   -0.9200    4.6790 hx        1 D22      0.107700
     32 H10         7.8720    0.9100    6.0570 hx        1 D22      0.107700
     33 H10A        7.8740   -0.9210    6.0520 hx        1 D22      0.107700
     34 H17        16.1880    0.9040    9.5520 hc        1 D22      0.038033
     35 H17A       16.1910   -0.9060    9.5490 hc        1 D22      0.038033
     36 H17B       16.1080   -0.0040   11.1180 hc        1 D22      0.038033
     37 H16        13.8650   -0.9090   10.5140 hc        1 D22      0.041700
     38 H16A       13.8620    0.8960   10.5180 hc        1 D22      0.041700
     39 H15        14.1770    0.9030    8.0200 hc        1 D22      0.043700
     40 H15A       14.1800   -0.9030    8.0160 hc        1 D22      0.043700
     41 H14        11.8650    0.8970    9.0210 hc        1 D22      0.045700
     42 H14A       11.8680   -0.9090    9.0170 hc        1 D22      0.045700
     43 H13        12.1800    0.9040    6.5220 hc        1 D22      0.048700
     44 H13A       12.1830   -0.9030    6.5180 hc        1 D22      0.048700
     45 H12         9.8730   -0.9110    7.5210 hc        1 D22      0.055700
     46 H12A        9.8700    0.8990    7.5260 hc        1 D22      0.055700
     47 H11        10.1920    0.9080    5.0290 hc        1 D22      0.067700
     48 H11A       10.1950   -0.9060    5.0240 hc        1 D22      0.067700
     49 HN9         8.0640   -0.8260    3.6350 hn        1 D22      0.449800
     50 H1         -0.3750    0.9100   -1.8240 hc        1 D22      0.038033
     51 H1A        -1.8080    0.0010   -1.1880 hc        1 D22      0.038033
     52 H1B        -0.3730   -0.9010   -1.8280 hc        1 D22      0.038033
     53 H92         8.0610    0.8300    3.6400 hn        1 D22      0.449800
@<TRIPOS>BOND
     1    1    2 1   
     2    1   17 1   
     3    1   18 1   
     4    1   19 1   
     5    2    3 1   
     6    2   20 1   
     7    2   21 1   
     8    3    4 1   
     9    3   22 1   
    10    3   23 1   
    11    4    5 1   
    12    4   24 1   
    13    4   25 1   
    14    5    6 1   
    15    5   26 1   
    16    5   27 1   
    17    6    7 1   
    18    6   28 1   
    19    6   29 1   
    20    7   16 1   
    21    7   30 1   
    22    7   31 1   
    23    8   15 1   
    24    8   16 1   
    25    8   32 1   
    26    8   33 1   
    27    9   10 1   
    28    9   34 1   
    29    9   35 1   
    30    9   36 1   
    31   10   11 1   
    32   10   37 1   
    33   10   38 1   
    34   11   12 1   
    35   11   39 1   
    36   11   40 1   
    37   12   13 1   
    38   12   41 1   
    39   12   42 1   
    40   13   14 1   
    41   13   43 1   
    42   13   44 1   
    43   14   15 1   
    44   14   45 1   
    45   14   46 1   
    46   15   47 1   
    47   15   48 1   
    48   16   49 1   
    49   16   53 1   
    50   17   50 1   
    51   17   51 1   
    52   17   52 1   
@<TRIPOS>SUBSTRUCTURE
     1 D22         1 TEMP              0 ****  ****    0 ROOT
