@<TRIPOS>MOLECULE
D22
   52    51     1     0     0
SMALL
bcc


@<TRIPOS>ATOM
      1 C2          8.6860   -0.5260    0.1870 c3        1 D22     -0.080400
      2 C3          7.4620    0.3610    0.1060 c3        1 D22     -0.079400
      3 C4          6.1910   -0.4580    0.0430 c3        1 D22     -0.079400
      4 C5          4.9680    0.4300   -0.0390 c3        1 D22     -0.078400
      5 C6          3.6970   -0.3900   -0.1020 c3        1 D22     -0.078400
      6 C7          2.4760    0.5010   -0.1850 c3        1 D22     -0.083400
      7 C8          1.2080   -0.3480   -0.2440 c3        1 D22      0.164800
      8 C10        -1.2080   -0.3480   -0.2440 c3        1 D22      0.164800
      9 C17        -9.9540    0.2850    0.2500 c3        1 D22     -0.092100
     10 C16        -8.6860   -0.5260    0.1870 c3        1 D22     -0.080400
     11 C15        -7.4620    0.3610    0.1060 c3        1 D22     -0.079400
     12 C14        -6.1910   -0.4580    0.0430 c3        1 D22     -0.079400
     13 C13        -4.9680    0.4300   -0.0390 c3        1 D22     -0.078400
     14 C12        -3.6970   -0.3900   -0.1020 c3        1 D22     -0.078400
     15 C11        -2.4760    0.5010   -0.1850 c3        1 D22     -0.083400
     16 N9          0.0000    0.4400   -0.3810 n3        1 D22     -0.825200
     17 C1          9.9540    0.2850    0.2500 c3        1 D22     -0.092100
     18 H2          8.6120   -1.1810    1.0950 hc        1 D22      0.038200
     19 H2A         8.7160   -1.2040   -0.7070 hc        1 D22      0.038200
     20 H3          7.4290    1.0380    0.9990 hc        1 D22      0.039700
     21 H3A         7.5330    1.0160   -0.8030 hc        1 D22      0.039700
     22 H4          6.2230   -1.1360   -0.8510 hc        1 D22      0.039200
     23 H4A         6.1200   -1.1130    0.9510 hc        1 D22      0.039200
     24 H5          4.9350    1.1080    0.8550 hc        1 D22      0.040700
     25 H5A         5.0380    1.0850   -0.9480 hc        1 D22      0.040700
     26 H6          3.7300   -1.0670   -0.9960 hc        1 D22      0.040200
     27 H6A         3.6270   -1.0440    0.8070 hc        1 D22      0.040200
     28 H7          2.4440    1.1790    0.7080 hc        1 D22      0.046700
     29 H7A         2.5440    1.1520   -1.0960 hc        1 D22      0.046700
     30 H8          1.2650   -1.0290   -1.1410 h1        1 D22      0.028200
     31 H8A         1.1830   -1.0120    0.6720 h1        1 D22      0.028200
     32 H10        -1.1830   -1.0120    0.6720 h1        1 D22      0.028200
     33 H10A       -1.2650   -1.0290   -1.1410 h1        1 D22      0.028200
     34 H17       -10.8430   -0.3880    0.3100 hc        1 D22      0.032700
     35 H17A       -9.9530    0.9490    1.1480 hc        1 D22      0.032700
     36 H17B      -10.0570    0.9270   -0.6580 hc        1 D22      0.032700
     37 H16        -8.6120   -1.1810    1.0950 hc        1 D22      0.038200
     38 H16A       -8.7160   -1.2040   -0.7060 hc        1 D22      0.038200
     39 H15        -7.5330    1.0160   -0.8030 hc        1 D22      0.039700
     40 H15A       -7.4290    1.0390    0.9990 hc        1 D22      0.039700
     41 H14        -6.1200   -1.1130    0.9510 hc        1 D22      0.039200
     42 H14A       -6.2230   -1.1360   -0.8510 hc        1 D22      0.039200
     43 H13        -5.0380    1.0850   -0.9480 hc        1 D22      0.040700
     44 H13A       -4.9350    1.1080    0.8550 hc        1 D22      0.040700
     45 H12        -3.6270   -1.0440    0.8070 hc        1 D22      0.040200
     46 H12A       -3.7300   -1.0670   -0.9960 hc        1 D22      0.040200
     47 H11        -2.4440    1.1790    0.7080 hc        1 D22      0.046700
     48 H11A       -2.5440    1.1520   -1.0960 hc        1 D22      0.046700
     49 HN9         0.0000    1.2030    0.2700 hn        1 D22      0.354800
     50 H1         10.8430   -0.3880    0.3100 hc        1 D22      0.032700
     51 H1A        10.0570    0.9270   -0.6580 hc        1 D22      0.032700
     52 H1B         9.9530    0.9490    1.1480 hc        1 D22      0.032700
@<TRIPOS>BOND
     1    1    2 1   
     2    1   17 1   
     3    1   18 1   
     4    1   19 1   
     5    2    3 1   
     6    2   20 1   
     7    2   21 1   
     8    3    4 1   
     9    3   22 1   
    10    3   23 1   
    11    4    5 1   
    12    4   24 1   
    13    4   25 1   
    14    5    6 1   
    15    5   26 1   
    16    5   27 1   
    17    6    7 1   
    18    6   28 1   
    19    6   29 1   
    20    7   16 1   
    21    7   30 1   
    22    7   31 1   
    23    8   15 1   
    24    8   16 1   
    25    8   32 1   
    26    8   33 1   
    27    9   10 1   
    28    9   34 1   
    29    9   35 1   
    30    9   36 1   
    31   10   11 1   
    32   10   37 1   
    33   10   38 1   
    34   11   12 1   
    35   11   39 1   
    36   11   40 1   
    37   12   13 1   
    38   12   41 1   
    39   12   42 1   
    40   13   14 1   
    41   13   43 1   
    42   13   44 1   
    43   14   15 1   
    44   14   45 1   
    45   14   46 1   
    46   15   47 1   
    47   15   48 1   
    48   16   49 1   
    49   17   50 1   
    50   17   51 1   
    51   17   52 1   
@<TRIPOS>SUBSTRUCTURE
     1 D22         1 TEMP              0 ****  ****    0 ROOT
