@<TRIPOS>MOLECULE
D23
   45    47     1     0     0
SMALL
bcc


@<TRIPOS>ATOM
      1 C1         -4.6310    0.8360    0.5080 ca        1 D23     -0.180000
      2 C2         -5.9740    0.3930    0.5070 ca        1 D23      0.143600
      3 C3         -6.3120   -0.7410   -0.2690 ca        1 D23     -0.185000
      4 C4         -5.3390   -1.3890   -1.0190 ca        1 D23     -0.092000
      5 C5         -4.0190   -0.9450   -1.0160 ca        1 D23     -0.163000
      6 C6         -3.6630    0.1730   -0.2500 cp        1 D23     -0.009000
      7 N7         -6.9600    1.1100    1.1920 nh        1 D23     -0.820200
      8 C8         -2.2790    0.6490   -0.2400 cp        1 D23     -0.039000
      9 C9         -2.0130    2.0390   -0.3250 ca        1 D23     -0.093000
     10 C10        -0.7250    2.5120   -0.3260 ca        1 D23     -0.174300
     11 C11         0.3780    1.6080   -0.2310 ca        1 D23      0.437600
     12 C12         0.1120    0.2070   -0.1360 ca        1 D23     -0.285600
     13 C13        -1.2250   -0.2440   -0.1510 ca        1 D23     -0.088000
     14 N14         1.6670    2.1110   -0.2370 nb        1 D23     -0.687000
     15 C15         2.6460    1.2070   -0.1440 ca        1 D23      0.623300
     16 N16         2.5380   -0.1580   -0.0300 nb        1 D23     -0.766000
     17 C17         1.2840   -0.6780   -0.0330 ca        1 D23      0.731200
     18 N18         1.0900   -2.0420    0.0130 nh        1 D23     -0.850900
     19 C19         2.1240   -3.0560    0.2350 c3        1 D23      0.245200
     20 C20         2.8080   -2.9220    1.6060 c3        1 D23     -0.107767
     21 C21         3.2100   -3.0390   -0.8520 c3        1 D23     -0.107767
     22 C22         1.4560   -4.4490    0.1930 c3        1 D23     -0.107767
     23 C23         4.1020    1.7860   -0.1460 c3        1 D23      0.615600
     24 F24         4.3640    2.5720   -1.2360 f         1 D23     -0.223967
     25 F25         4.3510    2.5760    0.9450 f         1 D23     -0.223967
     26 F26         5.1140    0.8650   -0.1420 f         1 D23     -0.223967
     27 H1         -4.3400    1.7110    1.1090 ha        1 D23      0.136000
     28 H3         -7.3490   -1.1090   -0.2890 ha        1 D23      0.134000
     29 H4         -5.6170   -2.2640   -1.6260 ha        1 D23      0.133000
     30 H5         -3.2610   -1.4600   -1.6230 ha        1 D23      0.134000
     31 HN71       -7.7730    0.5820    1.4170 hn        1 D23      0.391800
     32 HN72       -6.6220    1.6590    1.9500 hn        1 D23      0.391800
     33 H9         -2.8620    2.7390   -0.4030 ha        1 D23      0.148000
     34 H10        -0.5220    3.5930   -0.4010 ha        1 D23      0.161000
     35 H13        -1.4640   -1.3170   -0.0950 ha        1 D23      0.134000
     36 H18         0.1680   -2.3420    0.2390 hn        1 D23      0.431800
     37 H201        3.3720   -1.9640    1.6870 hc        1 D23      0.048700
     38 H202        2.0570   -2.9720    2.4300 hc        1 D23      0.048700
     39 H203        3.5300   -3.7640    1.7300 hc        1 D23      0.048700
     40 H211        3.8010   -3.9850   -0.7800 hc        1 D23      0.048700
     41 H212        2.7570   -2.9800   -1.8700 hc        1 D23      0.048700
     42 H213        3.9090   -2.1820   -0.7150 hc        1 D23      0.048700
     43 H221        0.6740   -4.5450    0.9840 hc        1 D23      0.048700
     44 H222        0.9930   -4.6370   -0.8040 hc        1 D23      0.048700
     45 H223        2.2350   -5.2260    0.3760 hc        1 D23      0.048700
@<TRIPOS>BOND
     1    1    2 ar  
     2    1    6 ar  
     3    1   27 1   
     4    2    3 ar  
     5    2    7 1   
     6    3    4 ar  
     7    3   28 1   
     8    4    5 ar  
     9    4   29 1   
    10    5    6 ar  
    11    5   30 1   
    12    6    8 1   
    13    7   31 1   
    14    7   32 1   
    15    8    9 ar  
    16    8   13 ar  
    17    9   10 ar  
    18    9   33 1   
    19   10   11 ar  
    20   10   34 1   
    21   11   12 ar  
    22   11   14 ar  
    23   12   13 ar  
    24   12   17 ar  
    25   13   35 1   
    26   14   15 ar  
    27   15   16 ar  
    28   15   23 1   
    29   16   17 ar  
    30   17   18 1   
    31   18   19 1   
    32   18   36 1   
    33   19   20 1   
    34   19   21 1   
    35   19   22 1   
    36   20   37 1   
    37   20   38 1   
    38   20   39 1   
    39   21   40 1   
    40   21   41 1   
    41   21   42 1   
    42   22   43 1   
    43   22   44 1   
    44   22   45 1   
    45   23   24 1   
    46   23   25 1   
    47   23   26 1   
@<TRIPOS>SUBSTRUCTURE
     1 D23         1 TEMP              0 ****  ****    0 ROOT
