@<TRIPOS>MOLECULE
D23
   47    49     1     0     0
SMALL
bcc


@<TRIPOS>ATOM
      1 C1         -0.0760    0.1850    0.3110 ca        1 D23     -0.087000
      2 C2          1.3240    0.2180    0.4130 ca        1 D23     -0.058400
      3 C3          1.9680    0.0120    1.6460 ca        1 D23     -0.083000
      4 C4          1.1910   -0.2260    2.7780 ca        1 D23     -0.090000
      5 C5         -0.2000   -0.2590    2.6910 ca        1 D23     -0.065000
      6 C6         -0.8420   -0.0550    1.4610 cp        1 D23     -0.030000
      7 N7          2.1330    0.4860   -0.7790 n4        1 D23     -0.705000
      8 C8         -2.3050   -0.0600    1.3730 cp        1 D23     -0.006000
      9 C9         -2.9500    0.9760    0.6440 ca        1 D23     -0.098000
     10 C10        -4.3160    1.0270    0.5430 ca        1 D23     -0.119300
     11 C11        -5.1220    0.0210    1.1680 ca        1 D23      0.431600
     12 C12        -4.4710   -1.0300    1.9030 ca        1 D23     -0.235600
     13 C13        -3.0590   -1.0380    1.9970 ca        1 D23     -0.118000
     14 N14        -6.4950    0.0900    1.0470 nb        1 D23     -0.570000
     15 C15        -7.2070   -0.8690    1.6370 ca        1 D23      0.592300
     16 N16        -6.6970   -1.9400    2.3600 nb        1 D23     -0.637000
     17 C17        -5.3700   -2.0070    2.4840 ca        1 D23      0.547200
     18 N18        -4.8380   -3.1730    3.2220 n4        1 D23     -0.772700
     19 C19        -4.9290   -3.0650    4.7610 c3        1 D23      0.168200
     20 C20        -6.3320   -3.4520    5.2280 c3        1 D23     -0.131100
     21 C21        -4.5980   -1.6490    5.2200 c3        1 D23     -0.131100
     22 C22        -3.9130   -4.0500    5.3480 c3        1 D23     -0.131100
     23 C23        -8.7840   -0.8470    1.5360 c3        1 D23      0.636600
     24 F24        -9.2850    0.2120    0.8430 f         1 D23     -0.190633
     25 F25        -9.2580   -1.9690    0.9190 f         1 D23     -0.190633
     26 F26        -9.3610   -0.8020    2.7730 f         1 D23     -0.190633
     27 H1         -0.5870    0.3430   -0.6540 ha        1 D23      0.164000
     28 H3          3.0680    0.0370    1.7380 ha        1 D23      0.175000
     29 H4          1.6880   -0.3800    3.7530 ha        1 D23      0.187000
     30 H5         -0.7990   -0.4300    3.6010 ha        1 D23      0.164000
     31 HN71        2.9820   -0.0940   -0.7610 hn        1 D23      0.472133
     32 HN72        1.5990    0.2740   -1.6290 hn        1 D23      0.472133
     33 H9         -2.3360    1.7610    0.1700 ha        1 D23      0.164000
     34 H10        -4.8170    1.8420   -0.0140 ha        1 D23      0.201000
     35 H13        -2.5380   -1.8170    2.5740 ha        1 D23      0.133000
     36 H18        -3.8560   -3.3000    2.9600 hn        1 D23      0.464300
     37 H201       -6.3420   -3.4340    6.3480 hc        1 D23      0.081144
     38 H202       -7.1060   -2.7320    4.8680 hc        1 D23      0.081144
     39 H203       -6.6060   -4.4840    4.8960 hc        1 D23      0.081144
     40 H211       -5.3710   -0.9190    4.8770 hc        1 D23      0.081144
     41 H212       -4.5860   -1.6370    6.3400 hc        1 D23      0.081144
     42 H213       -3.5940   -1.3260    4.8540 hc        1 D23      0.081144
     43 H221       -3.9900   -4.0060    6.4650 hc        1 D23      0.081144
     44 H222       -4.1280   -5.1010    5.0340 hc        1 D23      0.081144
     45 H223       -2.8670   -3.7810    5.0640 hc        1 D23      0.081144
     46 H73         2.4070    1.4780   -0.7920 hn        1 D23      0.472133
     47 H182       -5.3650   -4.0180    2.9480 hn        1 D23      0.464300
@<TRIPOS>BOND
     1    1    2 ar  
     2    1    6 ar  
     3    1   27 1   
     4    2    3 ar  
     5    2    7 1   
     6    3    4 ar  
     7    3   28 1   
     8    4    5 ar  
     9    4   29 1   
    10    5    6 ar  
    11    5   30 1   
    12    6    8 1   
    13    7   31 1   
    14    7   32 1   
    15    7   46 1   
    16    8    9 ar  
    17    8   13 ar  
    18    9   10 ar  
    19    9   33 1   
    20   10   11 ar  
    21   10   34 1   
    22   11   12 ar  
    23   11   14 ar  
    24   12   13 ar  
    25   12   17 ar  
    26   13   35 1   
    27   14   15 ar  
    28   15   16 ar  
    29   15   23 1   
    30   16   17 ar  
    31   17   18 1   
    32   18   19 1   
    33   18   36 1   
    34   18   47 1   
    35   19   20 1   
    36   19   21 1   
    37   19   22 1   
    38   20   37 1   
    39   20   38 1   
    40   20   39 1   
    41   21   40 1   
    42   21   41 1   
    43   21   42 1   
    44   22   43 1   
    45   22   44 1   
    46   22   45 1   
    47   23   24 1   
    48   23   25 1   
    49   23   26 1   
@<TRIPOS>SUBSTRUCTURE
     1 D23         1 TEMP              0 ****  ****    0 ROOT
