@<TRIPOS>MOLECULE
D23
   45    47     1     0     0
SMALL
bcc


@<TRIPOS>ATOM
      1 C1          0.0030   -0.0760   -0.0090 ca        1 D23     -0.180000
      2 C2          1.4150   -0.1200   -0.0280 ca        1 D23      0.143600
      3 C3          2.1120   -0.0360    1.2010 ca        1 D23     -0.185000
      4 C4          1.4110    0.0690    2.3960 ca        1 D23     -0.092000
      5 C5          0.0190    0.0990    2.4080 ca        1 D23     -0.163000
      6 C6         -0.6890    0.0270    1.2010 cp        1 D23     -0.009000
      7 N7          2.1050   -0.3250   -1.2270 nh        1 D23     -0.821200
      8 C8         -2.1520    0.0600    1.2030 cp        1 D23     -0.039000
      9 C9         -2.8400    0.8590    0.2550 ca        1 D23     -0.093000
     10 C10        -4.2110    0.9150    0.2430 ca        1 D23     -0.174300
     11 C11        -4.9750    0.1600    1.1850 ca        1 D23      0.437600
     12 C12        -4.2850   -0.6560    2.1330 ca        1 D23     -0.284600
     13 C13        -2.8740   -0.6790    2.1260 ca        1 D23     -0.087000
     14 N14        -6.3560    0.2400    1.1560 nb        1 D23     -0.687000
     15 C15        -7.0030   -0.4960    2.0640 ca        1 D23      0.623300
     16 N16        -6.4740   -1.3350    3.0150 nb        1 D23     -0.766000
     17 C17        -5.1200   -1.4240    3.0710 ca        1 D23      0.731200
     18 N18        -4.5070   -2.1940    4.0370 nh        1 D23     -0.849900
     19 C19        -5.1760   -3.1110    4.9650 c3        1 D23      0.245200
     20 C20        -5.9070   -4.2580    4.2490 c3        1 D23     -0.108100
     21 C21        -6.1780   -2.3930    5.8820 c3        1 D23     -0.108100
     22 C22        -4.1010   -3.7500    5.8730 c3        1 D23     -0.108100
     23 C23        -8.5660   -0.4010    2.0210 c3        1 D23      0.615600
     24 F24        -9.0270    0.8840    2.1290 f         1 D23     -0.223967
     25 F25        -9.0870   -0.8790    0.8480 f         1 D23     -0.223967
     26 F26        -9.2360   -1.0840    2.9990 f         1 D23     -0.223967
     27 H1         -0.5650   -0.1410   -0.9500 ha        1 D23      0.136000
     28 H3          3.2120   -0.0630    1.2160 ha        1 D23      0.134000
     29 H4          1.9660    0.1320    3.3450 ha        1 D23      0.133000
     30 H5         -0.5240    0.1940    3.3600 ha        1 D23      0.134000
     31 HN71        3.0500   -0.0150   -1.2180 hn        1 D23      0.392300
     32 HN72        1.6060   -0.0520   -2.0440 hn        1 D23      0.392300
     33 H9         -2.2540    1.4450   -0.4710 ha        1 D23      0.144000
     34 H10        -4.7420    1.5440   -0.4900 ha        1 D23      0.160000
     35 H13        -2.3100   -1.2830    2.8530 ha        1 D23      0.135000
     36 H18        -3.5470   -2.4040    3.8770 hn        1 D23      0.431800
     37 H201       -6.3300   -4.9480    5.0180 hc        1 D23      0.048700
     38 H202       -6.7470   -3.8770    3.6230 hc        1 D23      0.048700
     39 H203       -5.2040   -4.8340    3.6020 hc        1 D23      0.048700
     40 H211       -5.7360   -1.4600    6.3060 hc        1 D23      0.048700
     41 H212       -7.1160   -2.1350    5.3360 hc        1 D23      0.048700
     42 H213       -6.4430   -3.0760    6.7240 hc        1 D23      0.048700
     43 H221       -3.3530   -4.3210    5.2720 hc        1 D23      0.048700
     44 H222       -4.6010   -4.4600    6.5740 hc        1 D23      0.048700
     45 H223       -3.5730   -2.9710    6.4720 hc        1 D23      0.048700
@<TRIPOS>BOND
     1    1    2 ar  
     2    1    6 ar  
     3    1   27 1   
     4    2    3 ar  
     5    2    7 1   
     6    3    4 ar  
     7    3   28 1   
     8    4    5 ar  
     9    4   29 1   
    10    5    6 ar  
    11    5   30 1   
    12    6    8 1   
    13    7   31 1   
    14    7   32 1   
    15    8    9 ar  
    16    8   13 ar  
    17    9   10 ar  
    18    9   33 1   
    19   10   11 ar  
    20   10   34 1   
    21   11   12 ar  
    22   11   14 ar  
    23   12   13 ar  
    24   12   17 ar  
    25   13   35 1   
    26   14   15 ar  
    27   15   16 ar  
    28   15   23 1   
    29   16   17 ar  
    30   17   18 1   
    31   18   19 1   
    32   18   36 1   
    33   19   20 1   
    34   19   21 1   
    35   19   22 1   
    36   20   37 1   
    37   20   38 1   
    38   20   39 1   
    39   21   40 1   
    40   21   41 1   
    41   21   42 1   
    42   22   43 1   
    43   22   44 1   
    44   22   45 1   
    45   23   24 1   
    46   23   25 1   
    47   23   26 1   
@<TRIPOS>SUBSTRUCTURE
     1 D23         1 TEMP              0 ****  ****    0 ROOT
