@<TRIPOS>MOLECULE
D23
   45    38     1     0     0
SMALL
bcc


@<TRIPOS>ATOM
      1 C1          3.4790    0.6690   -1.9900 c1        1 D23     -0.076500
      2 C2          4.8630    0.7460   -2.0450 c1        1 D23      0.117800
      3 C3          5.5490    1.5550   -1.1510 c1        1 D23     -0.127500
      4 C4          4.8520    2.2870   -0.2040 c1        1 D23     -0.056750
      5 C5          3.4680    2.2100   -0.1480 c1        1 D23     -0.056750
      6 C6          2.7820    1.4020   -1.0410 c1        1 D23     -0.024000
      7 N7          5.5830   -0.0690   -2.9590 n3        1 D23     -0.794400
      8 C8          1.3840    1.3460   -1.0010 c1        1 D23     -0.024000
      9 C9          0.7720    2.2630   -1.8420 c1        1 D23     -0.056750
     10 C10        -0.6130    2.3180   -1.9190 c1        1 D23     -0.056750
     11 C11        -1.4030    1.4370   -1.1380 cg        1 D23      0.368800
     12 C12        -0.8030    0.5360   -0.3120 cg        1 D23     -0.154000
     13 C13         0.6100    0.4800   -0.2340 c1        1 D23     -0.076500
     14 N14        -2.7630    1.4900   -1.2130 n1        1 D23     -0.483800
     15 C15        -3.5270    0.6380   -0.4580 c1        1 D23      0.355700
     16 N16        -2.9230   -0.2720    0.3760 n1        1 D23     -0.569800
     17 C17        -1.5800   -0.3280    0.4540 c1        1 D23      0.266800
     18 N18        -1.0200   -1.2030    1.4530 n3        1 D23     -0.715800
     19 C19        -1.8550   -2.1780    2.1080 c3        1 D23      0.246200
     20 C20        -2.4940   -3.0770    1.0690 c3        1 D23     -0.108433
     21 C21        -2.9400   -1.4680    2.8980 c3        1 D23     -0.108433
     22 C22        -1.0090   -3.0170    3.0520 c3        1 D23     -0.108433
     23 C23        -4.9720    1.0170   -0.7120 c3        1 D23      0.683000
     24 F24        -5.0250    1.9790   -1.6420 f         1 D23     -0.223633
     25 F25        -5.6450   -0.0570   -1.1410 f         1 D23     -0.223633
     26 F26        -5.5220    1.4630    0.4240 f         1 D23     -0.223633
     27 H1          2.9980    0.1010   -2.6170 ha        1 D23      0.077500
     28 H3          6.5240    1.6100   -1.1900 ha        1 D23      0.076500
     29 H4          5.3340    2.8560    0.4240 ha        1 D23      0.086500
     30 H5          2.9780    2.7250    0.5190 ha        1 D23      0.086500
     31 HN71        6.5000   -0.0950   -2.9260 hn        1 D23      0.391800
     32 HN72        5.1330   -0.5850   -3.5640 hn        1 D23      0.391800
     33 H9          1.3160    2.8920   -2.3570 ha        1 D23      0.086500
     34 H10        -1.0450    2.9670   -2.5130 ha        1 D23      0.086500
     35 H13         1.0380   -0.1250    0.3960 ha        1 D23      0.077500
     36 H18        -0.1300   -1.1640    1.6440 hn        1 D23      0.431800
     37 H201       -1.8280   -3.3140    0.3880 hc        1 D23      0.048589
     38 H202       -2.8250   -3.8920    1.5010 hc        1 D23      0.048589
     39 H203       -3.2410   -2.6050    0.6440 hc        1 D23      0.048589
     40 H211       -3.3720   -2.1050    3.5070 hc        1 D23      0.048589
     41 H212       -2.5410   -0.7380    3.4170 hc        1 D23      0.048589
     42 H213       -3.6070   -1.1030    2.2810 hc        1 D23      0.048589
     43 H221       -0.3320   -3.5050    2.5370 hc        1 D23      0.048589
     44 H222       -1.5830   -3.6560    3.5260 hc        1 D23      0.048589
     45 H223       -0.5660   -2.4320    3.7000 hc        1 D23      0.048589
@<TRIPOS>BOND
     1    1    6 3   
     2    1   27 1   
     3    2    3 3   
     4    2    7 1   
     5    3   28 1   
     6    4    5 3   
     7    4   29 1   
     8    5   30 1   
     9    7   31 1   
    10    7   32 1   
    11    8   13 3   
    12    9   10 3   
    13    9   33 1   
    14   10   34 1   
    15   11   12 1   
    16   11   14 3   
    17   12   17 3   
    18   13   35 1   
    19   15   16 3   
    20   15   23 1   
    21   17   18 1   
    22   18   19 1   
    23   18   36 1   
    24   19   20 1   
    25   19   21 1   
    26   19   22 1   
    27   20   37 1   
    28   20   38 1   
    29   20   39 1   
    30   21   40 1   
    31   21   41 1   
    32   21   42 1   
    33   22   43 1   
    34   22   44 1   
    35   22   45 1   
    36   23   24 1   
    37   23   25 1   
    38   23   26 1   
@<TRIPOS>SUBSTRUCTURE
     1 D23         1 TEMP              0 ****  ****    0 ROOT
