@<TRIPOS>MOLECULE
D23
   45    47     1     0     0
SMALL
bcc


@<TRIPOS>ATOM
      1 C1         -0.0010   -0.0230   -0.0010 ca        1 D23     -0.180000
      2 C2          1.4120   -0.0450   -0.0230 ca        1 D23      0.143600
      3 C3          2.1100    0.0060    1.2070 ca        1 D23     -0.185000
      4 C4          1.4090    0.0920    2.4030 ca        1 D23     -0.092000
      5 C5          0.0170    0.1170    2.4180 ca        1 D23     -0.163000
      6 C6         -0.6920    0.0610    1.2110 cp        1 D23     -0.009000
      7 N7          2.1040   -0.0350   -1.2380 nv        1 D23     -0.820200
      8 C8         -2.1550    0.0880    1.2140 cp        1 D23     -0.039000
      9 C9         -2.8460    0.8900    0.2700 ca        1 D23     -0.093000
     10 C10        -4.2170    0.9400    0.2560 ca        1 D23     -0.174300
     11 C11        -4.9790    0.1740    1.1920 ca        1 D23      0.438600
     12 C12        -4.2860   -0.6430    2.1370 ca        1 D23     -0.285600
     13 C13        -2.8750   -0.6600    2.1310 ca        1 D23     -0.088000
     14 N14        -6.3600    0.2450    1.1570 nb        1 D23     -0.687000
     15 C15        -7.0050   -0.5000    2.0600 ca        1 D23      0.623300
     16 N16        -6.4730   -1.3380    3.0100 nb        1 D23     -0.766000
     17 C17        -5.1190   -1.4180    3.0710 ca        1 D23      0.731200
     18 N18        -4.5040   -2.1850    4.0380 nu        1 D23     -0.850900
     19 C19        -5.1690   -3.1060    4.9640 c3        1 D23      0.245200
     20 C20        -5.8920   -4.2570    4.2470 c3        1 D23     -0.107767
     21 C21        -6.1780   -2.3940    5.8790 c3        1 D23     -0.107767
     22 C22        -4.0930   -3.7400    5.8740 c3        1 D23     -0.107767
     23 C23        -8.5680   -0.4180    2.0100 c3        1 D23      0.615600
     24 F24        -9.0400    0.8640    2.1170 f         1 D23     -0.223967
     25 F25        -9.0810   -0.9010    0.8350 f         1 D23     -0.223967
     26 F26        -9.2370   -1.1060    2.9850 f         1 D23     -0.223967
     27 H1         -0.5690   -0.0700   -0.9430 ha        1 D23      0.136000
     28 H3          3.2100   -0.0090    1.2200 ha        1 D23      0.134000
     29 H4          1.9640    0.1410    3.3530 ha        1 D23      0.133000
     30 H5         -0.5250    0.1950    3.3710 ha        1 D23      0.134000
     31 HN71        3.0380   -0.3780   -1.1840 hn        1 D23      0.391800
     32 HN72        1.5920   -0.4000   -2.0100 hn        1 D23      0.391800
     33 H9         -2.2610    1.4870   -0.4490 ha        1 D23      0.148000
     34 H10        -4.7500    1.5720   -0.4730 ha        1 D23      0.161000
     35 H13        -2.3090   -1.2660    2.8560 ha        1 D23      0.134000
     36 H18        -3.5410   -2.3820    3.8870 hn        1 D23      0.431800
     37 H201       -6.3130   -4.9500    5.0140 hc        1 D23      0.048700
     38 H202       -5.1850   -4.8290    3.6010 hc        1 D23      0.048700
     39 H203       -6.7340   -3.8800    3.6190 hc        1 D23      0.048700
     40 H211       -7.1160   -2.1410    5.3320 hc        1 D23      0.048700
     41 H212       -5.7420   -1.4600    6.3060 hc        1 D23      0.048700
     42 H213       -6.4420   -3.0800    6.7200 hc        1 D23      0.048700
     43 H221       -4.5910   -4.4520    6.5740 hc        1 D23      0.048700
     44 H222       -3.3400   -4.3050    5.2750 hc        1 D23      0.048700
     45 H223       -3.5710   -2.9580    6.4750 hc        1 D23      0.048700
@<TRIPOS>BOND
     1    1    2 ar  
     2    1    6 ar  
     3    1   27 1   
     4    2    3 ar  
     5    2    7 1   
     6    3    4 ar  
     7    3   28 1   
     8    4    5 ar  
     9    4   29 1   
    10    5    6 ar  
    11    5   30 1   
    12    6    8 1   
    13    7   31 1   
    14    7   32 1   
    15    8    9 ar  
    16    8   13 ar  
    17    9   10 ar  
    18    9   33 1   
    19   10   11 ar  
    20   10   34 1   
    21   11   12 ar  
    22   11   14 ar  
    23   12   13 ar  
    24   12   17 ar  
    25   13   35 1   
    26   14   15 ar  
    27   15   16 ar  
    28   15   23 1   
    29   16   17 ar  
    30   17   18 1   
    31   18   19 1   
    32   18   36 1   
    33   19   20 1   
    34   19   21 1   
    35   19   22 1   
    36   20   37 1   
    37   20   38 1   
    38   20   39 1   
    39   21   40 1   
    40   21   41 1   
    41   21   42 1   
    42   22   43 1   
    43   22   44 1   
    44   22   45 1   
    45   23   24 1   
    46   23   25 1   
    47   23   26 1   
@<TRIPOS>SUBSTRUCTURE
     1 D23         1 TEMP              0 ****  ****    0 ROOT
