@<TRIPOS>MOLECULE
D24
   65    69     1     0     0
SMALL
bcc


@<TRIPOS>ATOM
      1 C7          1.3140   -0.1290    0.0650 c3        1 D24      0.412000
      2 N2         -0.1410   -0.0190   -0.3450 ny        1 D24     -0.779000
      3 N1          1.5150   -0.2320    1.5680 nz        1 D24     -0.866600
      4 C8         -0.8710    1.1550    0.2540 c3        1 D24      0.148900
      5 C9         -2.0290    1.6070   -0.6450 c2        1 D24     -0.284200
      6 C10        -3.1710    1.6280    0.0820 ce        1 D24     -0.009750
      7 C11        -2.8920    1.1390    1.4540 ce        1 D24     -0.009750
      8 C12        -1.5770    0.8160    1.5620 c2        1 D24     -0.284200
      9 C1          3.3000   -3.3870   -1.9500 ca        1 D24     -0.024000
     10 C2          2.2180   -3.6520   -1.0870 ca        1 D24     -0.097750
     11 C3          1.5650   -2.6130   -0.4310 ca        1 D24     -0.079500
     12 C4          1.9800   -1.2850   -0.6230 ca        1 D24     -0.273800
     13 C5          3.0540   -1.0100   -1.4830 ca        1 D24     -0.079500
     14 C6          3.7040   -2.0490   -2.1380 ca        1 D24     -0.097750
     15 CA          4.0150   -4.4230   -2.6490 cc        1 D24      0.277200
     16 O1          3.6460   -5.7690   -2.4710 os        1 D24     -0.350800
     17 CB          5.0910   -4.3360   -3.5290 cd        1 D24     -0.171800
     18 CB'         5.4210   -5.6760   -3.9200 cd        1 D24     -0.171800
     19 CA'         4.5320   -6.5220   -3.2640 cc        1 D24      0.277200
     20 C1'         4.4180   -7.9580   -3.2980 ca        1 D24     -0.024000
     21 C2'         3.3690   -8.6570   -2.6690 ca        1 D24     -0.097750
     22 C3'         3.2960  -10.0440   -2.7490 ca        1 D24     -0.079500
     23 C4'         4.2740  -10.7640   -3.4550 ca        1 D24     -0.273800
     24 C5'         5.3260  -10.0780   -4.0800 ca        1 D24     -0.079500
     25 C6'         5.3950   -8.6910   -4.0010 ca        1 D24     -0.097750
     26 C7'         4.2360  -12.2600   -3.5750 c3        1 D24      0.412000
     27 N2'         2.9950  -12.7090   -4.3200 ny        1 D24     -0.779000
     28 N1'         4.3940  -12.8960   -2.2040 nz        1 D24     -0.866600
     29 C8'         2.7860  -14.1990   -4.3750 c3        1 D24      0.148900
     30 C9'         1.7650  -14.5680   -5.4590 c2        1 D24     -0.284200
     31 CAX         2.3170  -15.4820   -6.2930 ce        1 D24     -0.009750
     32 CBX         3.7210  -15.7370   -5.8870 ce        1 D24     -0.009750
     33 CCX         4.0270  -14.9730   -4.8060 c2        1 D24     -0.284200
     34 H7          1.8060    0.8600   -0.2440 hx        1 D24      0.171200
     35 HN2        -0.1390    0.0880   -1.3760 hn        1 D24      0.485050
     36 H11A        2.5330   -0.1870    1.7430 hn        1 D24      0.488967
     37 H12A        1.1690   -1.1310    1.9300 hn        1 D24      0.488967
     38 H8         -0.1460    2.0120    0.3820 hx        1 D24      0.128200
     39 H9         -1.8680    1.9320   -1.6750 ha        1 D24      0.175500
     40 H10        -4.1660    1.9650   -0.2400 ha        1 D24      0.218500
     41 H11        -3.6630    1.0830    2.2340 ha        1 D24      0.218500
     42 H12        -1.0630    0.4710    2.4560 ha        1 D24      0.175500
     43 H3          0.7220   -2.8540    0.2350 ha        1 D24      0.152250
     44 H5          3.3970    0.0260   -1.6540 ha        1 D24      0.152250
     45 H6          4.5470   -1.8140   -2.8130 ha        1 D24      0.184000
     46 HB          5.6060   -3.4370   -3.8720 ha        1 D24      0.198000
     47 HB'         6.2230   -5.9490   -4.6090 ha        1 D24      0.198000
     48 H2'         2.5990   -8.0940   -2.1130 ha        1 D24      0.184000
     49 H3'         2.4610  -10.5600   -2.2500 ha        1 D24      0.152250
     50 H5'         6.1070  -10.6210   -4.6410 ha        1 D24      0.152250
     51 H6'         6.2310   -8.1660   -4.4980 ha        1 D24      0.184000
     52 H7'         5.1240  -12.6430   -4.1940 hx        1 D24      0.171200
     53 HN2'        3.1100  -12.3640   -5.2910 hn        1 D24      0.485050
     54 H1'1        5.3010  -12.5730   -1.8240 hn        1 D24      0.488967
     55 H1'2        4.4040  -13.9250   -2.2600 hn        1 D24      0.488967
     56 H8'         2.4070  -14.5490   -3.3720 hx        1 D24      0.128200
     57 H9'         0.7450  -14.1810   -5.4480 ha        1 D24      0.175500
     58 H10'        1.8380  -15.9970   -7.1360 ha        1 D24      0.218500
     59 H11'        4.3680  -16.4590   -6.4040 ha        1 D24      0.218500
     60 H12'        4.9600  -14.9660   -4.2480 ha        1 D24      0.175500
     61 H22        -0.6520   -0.8850   -0.1260 hn        1 D24      0.485050
     62 H13         1.0530    0.5400    2.0710 hn        1 D24      0.488967
     63 H2'2        2.1550  -12.2590   -3.9310 hn        1 D24      0.485050
     64 H1'3        3.6550  -12.5920   -1.5570 hn        1 D24      0.488967
     65 H2          1.8910   -4.6940   -0.9330 ha        1 D24      0.184000
@<TRIPOS>BOND
     1    1    2 1   
     2    1    3 1   
     3    1   12 1   
     4    1   34 1   
     5    2    4 1   
     6    2   35 1   
     7    2   61 1   
     8    3   36 1   
     9    3   37 1   
    10    3   62 1   
    11    4    5 1   
    12    4    8 1   
    13    4   38 1   
    14    5    6 2   
    15    5   39 1   
    16    6    7 1   
    17    6   40 1   
    18    7    8 2   
    19    7   41 1   
    20    8   42 1   
    21    9   10 ar  
    22    9   14 ar  
    23    9   15 1   
    24   10   11 ar  
    25   10   65 1   
    26   11   12 ar  
    27   11   43 1   
    28   12   13 ar  
    29   13   14 ar  
    30   13   44 1   
    31   14   45 1   
    32   15   16 1   
    33   15   17 2   
    34   16   19 1   
    35   17   18 1   
    36   17   46 1   
    37   18   19 2   
    38   18   47 1   
    39   19   20 1   
    40   20   21 ar  
    41   20   25 ar  
    42   21   22 ar  
    43   21   48 1   
    44   22   23 ar  
    45   22   49 1   
    46   23   24 ar  
    47   23   26 1   
    48   24   25 ar  
    49   24   50 1   
    50   25   51 1   
    51   26   27 1   
    52   26   28 1   
    53   26   52 1   
    54   27   29 1   
    55   27   53 1   
    56   27   63 1   
    57   28   54 1   
    58   28   55 1   
    59   28   64 1   
    60   29   30 1   
    61   29   33 1   
    62   29   56 1   
    63   30   31 2   
    64   30   57 1   
    65   31   32 1   
    66   31   58 1   
    67   32   33 2   
    68   32   59 1   
    69   33   60 1   
@<TRIPOS>SUBSTRUCTURE
     1 D24         1 TEMP              0 ****  ****    0 ROOT
