@<TRIPOS>MOLECULE
D24
   65    69     1     0     0
SMALL
bcc


@<TRIPOS>ATOM
      1 C7          1.3120   -0.1860    0.1290 c3        1 D24      0.412000
      2 N2         -0.1020   -0.0150   -0.3870 n4        1 D24     -0.779000
      3 N1          1.3930   -0.3440    1.6390 n4        1 D24     -0.866600
      4 C8         -0.8400    1.1640    0.1940 c3        1 D24      0.148900
      5 C9         -1.9090    1.6830   -0.7750 c2        1 D24     -0.284200
      6 C10        -3.1040    1.7190   -0.1370 ce        1 D24     -0.009750
      7 C11        -2.9470    1.1780    1.2350 ce        1 D24     -0.009750
      8 C12        -1.6550    0.8070    1.4320 c2        1 D24     -0.284200
      9 C1          3.3390   -3.4430   -1.8470 ca        1 D24     -0.024000
     10 C2          2.1900   -3.6990   -1.0730 ca        1 D24     -0.097750
     11 C3          1.5240   -2.6610   -0.4300 ca        1 D24     -0.079500
     12 C4          1.9930   -1.3420   -0.5450 ca        1 D24     -0.273800
     13 C5          3.1370   -1.0760   -1.3130 ca        1 D24     -0.079500
     14 C6          3.8000   -2.1150   -1.9560 ca        1 D24     -0.097750
     15 CA          4.0650   -4.4780   -2.5370 cc        1 D24      0.277200
     16 O1          3.6690   -5.8220   -2.3970 os        1 D24     -0.350800
     17 CB          5.1720   -4.3930   -3.3770 cd        1 D24     -0.172300
     18 CB'         5.4950   -5.7300   -3.7830 cd        1 D24     -0.172300
     19 CA'         4.5700   -6.5740   -3.1730 cc        1 D24      0.277200
     20 C1'         4.4380   -8.0070   -3.2350 ca        1 D24     -0.024000
     21 C2'         3.3810   -8.7050   -2.6180 ca        1 D24     -0.097750
     22 C3'         3.2960  -10.0890   -2.7160 ca        1 D24     -0.079500
     23 C4'         4.2680  -10.8100   -3.4300 ca        1 D24     -0.273800
     24 C5'         5.3260  -10.1240   -4.0460 ca        1 D24     -0.079500
     25 C6'         5.4080   -8.7400   -3.9480 ca        1 D24     -0.097750
     26 C7'         4.2190  -12.3030   -3.5670 c3        1 D24      0.412000
     27 N2'         2.9740  -12.7350   -4.3160 n4        1 D24     -0.779000
     28 N1'         4.3720  -12.9550   -2.2020 n4        1 D24     -0.866600
     29 C8'         2.7540  -14.2220   -4.3880 c3        1 D24      0.148900
     30 C9'         1.7300  -14.5720   -5.4750 c2        1 D24     -0.284200
     31 CAX         2.2760  -15.4810   -6.3190 ce        1 D24     -0.009750
     32 CBX         3.6780  -15.7510   -5.9160 ce        1 D24     -0.009750
     33 CCX         3.9890  -15.0010   -4.8270 c2        1 D24     -0.284200
     34 H7          1.8580    0.7940   -0.1080 hx        1 D24      0.171200
     35 HN2        -0.0170    0.1250   -1.4100 hn        1 D24      0.485050
     36 H11A        0.9930   -1.2410    1.9430 hn        1 D24      0.488967
     37 H12A        2.3960   -0.3380    1.8930 hn        1 D24      0.488967
     38 H8         -0.1010    1.9910    0.4070 hx        1 D24      0.128200
     39 H9         -1.6590    2.0340   -1.7780 ha        1 D24      0.175500
     40 H10        -4.0600    2.0990   -0.5220 ha        1 D24      0.218500
     41 H11        -3.7780    1.1230    1.9510 ha        1 D24      0.218500
     42 H12        -1.2230    0.4170    2.3500 ha        1 D24      0.175500
     43 H3          0.6270   -2.8940    0.1640 ha        1 D24      0.152250
     44 H5          3.5250   -0.0480   -1.4200 ha        1 D24      0.152250
     45 H6          4.6990   -1.8880   -2.5570 ha        1 D24      0.184000
     46 HB          5.7110   -3.4950   -3.6870 ha        1 D24      0.198000
     47 HB'         6.3160   -6.0030   -4.4480 ha        1 D24      0.198000
     48 H2'         2.6160   -8.1420   -2.0550 ha        1 D24      0.184000
     49 H3'         2.4550  -10.6040   -2.2250 ha        1 D24      0.152250
     50 H5'         6.1020  -10.6670   -4.6140 ha        1 D24      0.152250
     51 H6'         6.2490   -8.2160   -4.4390 ha        1 D24      0.184000
     52 H7'         5.1040  -12.6860   -4.1890 hx        1 D24      0.171200
     53 HN2'        3.0920  -12.3800   -5.2840 hn        1 D24      0.485050
     54 H1'1        4.3740  -13.9840   -2.2700 hn        1 D24      0.488967
     55 H1'2        3.6350  -12.6530   -1.5520 hn        1 D24      0.488967
     56 H8'         2.3730  -14.5810   -3.3880 hx        1 D24      0.128200
     57 H9'         0.7130  -14.1780   -5.4600 ha        1 D24      0.175500
     58 H10'        1.7920  -15.9840   -7.1680 ha        1 D24      0.218500
     59 H11'        4.3190  -16.4720   -6.4410 ha        1 D24      0.218500
     60 H12'        4.9220  -15.0080   -4.2690 ha        1 D24      0.175500
     61 H22        -0.6550   -0.8700   -0.2370 hn        1 D24      0.485050
     62 H13         0.9180    0.4270    2.1310 hn        1 D24      0.488967
     63 H2'2        2.1380  -12.2830   -3.9220 hn        1 D24      0.485050
     64 H1'3        5.2810  -12.6440   -1.8190 hn        1 D24      0.488967
     65 H2          1.8190   -4.7350   -0.9800 ha        1 D24      0.184000
@<TRIPOS>BOND
     1    1    2 1   
     2    1    3 1   
     3    1   12 1   
     4    1   34 1   
     5    2    4 1   
     6    2   35 1   
     7    2   61 1   
     8    3   36 1   
     9    3   37 1   
    10    3   62 1   
    11    4    5 1   
    12    4    8 1   
    13    4   38 1   
    14    5    6 2   
    15    5   39 1   
    16    6    7 1   
    17    6   40 1   
    18    7    8 2   
    19    7   41 1   
    20    8   42 1   
    21    9   10 ar  
    22    9   14 ar  
    23    9   15 1   
    24   10   11 ar  
    25   10   65 1   
    26   11   12 ar  
    27   11   43 1   
    28   12   13 ar  
    29   13   14 ar  
    30   13   44 1   
    31   14   45 1   
    32   15   16 1   
    33   15   17 2   
    34   16   19 1   
    35   17   18 1   
    36   17   46 1   
    37   18   19 2   
    38   18   47 1   
    39   19   20 1   
    40   20   21 ar  
    41   20   25 ar  
    42   21   22 ar  
    43   21   48 1   
    44   22   23 ar  
    45   22   49 1   
    46   23   24 ar  
    47   23   26 1   
    48   24   25 ar  
    49   24   50 1   
    50   25   51 1   
    51   26   27 1   
    52   26   28 1   
    53   26   52 1   
    54   27   29 1   
    55   27   53 1   
    56   27   63 1   
    57   28   54 1   
    58   28   55 1   
    59   28   64 1   
    60   29   30 1   
    61   29   33 1   
    62   29   56 1   
    63   30   31 2   
    64   30   57 1   
    65   31   32 1   
    66   31   58 1   
    67   32   33 2   
    68   32   59 1   
    69   33   60 1   
@<TRIPOS>SUBSTRUCTURE
     1 D24         1 TEMP              0 ****  ****    0 ROOT
