@<TRIPOS>MOLECULE
D24
   61    65     1     0     0
SMALL
bcc


@<TRIPOS>ATOM
      1 C7         -0.6040    1.2160    6.4350 c3        1 D24      0.449500
      2 N2          0.8080    0.9840    6.8220 n3        1 D24     -0.847200
      3 N1         -1.0190    2.6170    6.4960 n3        1 D24     -0.915800
      4 C8          0.9940    0.6440    8.2110 c3        1 D24      0.216900
      5 C9          0.4990   -0.7300    8.6820 c2        1 D24     -0.199200
      6 C10         1.5010   -1.3790    9.3210 ce        1 D24     -0.141000
      7 C11         2.7190   -0.5510    9.2940 ce        1 D24     -0.141000
      8 C12         2.4660    0.6050    8.6350 c2        1 D24     -0.199200
      9 C1         -1.3930   -0.3870    2.4960 ca        1 D24     -0.122500
     10 C2         -0.3580    0.5420    2.6860 ca        1 D24     -0.108250
     11 C3         -0.1030    1.0590    3.9530 ca        1 D24     -0.116250
     12 C4         -0.8740    0.6540    5.0460 ca        1 D24     -0.073300
     13 C5         -1.9100   -0.2660    4.8620 ca        1 D24     -0.116250
     14 C6         -2.1690   -0.7840    3.5960 ca        1 D24     -0.108250
     15 CA         -1.6710   -0.9330    1.1920 cc        1 D24      0.309700
     16 O1         -0.8490   -0.5130    0.1340 os        1 D24     -0.357800
     17 CB         -2.6210   -1.8290    0.7200 cd        1 D24     -0.244300
     18 CB'        -2.3900   -1.9820   -0.6910 cd        1 D24     -0.244300
     19 CA'        -1.3100   -1.1720   -1.0160 cc        1 D24      0.309700
     20 C1'        -0.6160   -0.9020   -2.2500 ca        1 D24     -0.122500
     21 C2'         0.4710   -0.0150   -2.2900 ca        1 D24     -0.108250
     22 C3'         1.1290    0.2360   -3.4910 ca        1 D24     -0.116250
     23 C4'         0.7120   -0.3960   -4.6650 ca        1 D24     -0.073300
     24 C5'        -0.3700   -1.2800   -4.6310 ca        1 D24     -0.116250
     25 C6'        -1.0320   -1.5330   -3.4330 ca        1 D24     -0.108250
     26 C7'         1.4460   -0.1140   -5.9700 c3        1 D24      0.449500
     27 N2'         0.5340    0.5990   -6.8810 n3        1 D24     -0.847200
     28 N1'         2.1090   -1.3300   -6.4350 n3        1 D24     -0.915800
     29 C8'         1.0660    0.9150   -8.1830 c3        1 D24      0.216900
     30 C9'         0.9650   -0.1540   -9.2790 c2        1 D24     -0.199200
     31 CAX         0.3680    0.3720  -10.3750 ce        1 D24     -0.141000
     32 CBX        -0.0110    1.7700  -10.1070 ce        1 D24     -0.141000
     33 CCX         0.3500    2.1010   -8.8440 c2        1 D24     -0.199200
     34 H7         -1.2890    0.6760    7.1700 h2        1 D24      0.065200
     35 HN2         1.2450    0.3120    6.2230 hn        1 D24      0.378800
     36 H11A       -0.7670    3.0230    7.3760 hn        1 D24      0.353550
     37 H12A       -0.5940    3.1500    5.7620 hn        1 D24      0.353550
     38 H8          0.4740    1.4280    8.8400 h1        1 D24      0.083200
     39 H9         -0.5240   -1.0600    8.5150 ha        1 D24      0.146500
     40 H10         1.4670   -2.3580    9.7990 ha        1 D24      0.144250
     41 H11         3.6550   -0.8670    9.7530 ha        1 D24      0.144250
     42 H12         3.1390    1.4320    8.4180 ha        1 D24      0.146500
     43 H3          0.7090    1.7890    4.0920 ha        1 D24      0.137250
     44 H5         -2.5300   -0.5780    5.7160 ha        1 D24      0.137250
     45 H6         -2.9860   -1.5080    3.4560 ha        1 D24      0.142250
     46 HB         -3.3970   -2.3270    1.2950 ha        1 D24      0.162000
     47 HB'        -2.9620   -2.6150   -1.3630 ha        1 D24      0.162000
     48 H2'         0.7990    0.4820   -1.3640 ha        1 D24      0.142250
     49 H3'         1.9810    0.9330   -3.5110 ha        1 D24      0.137250
     50 H5'        -0.7050   -1.7820   -5.5510 ha        1 D24      0.137250
     51 H6'        -1.8830   -2.2300   -3.4120 ha        1 D24      0.142250
     52 H7'         2.2880    0.6240   -5.7600 h2        1 D24      0.065200
     53 HN2'       -0.3600    0.1540   -6.9510 hn        1 D24      0.378800
     54 H1'1        1.4750   -2.0960   -6.5300 hn        1 D24      0.353550
     55 H1'2        2.5900   -1.1770   -7.2980 hn        1 D24      0.353550
     56 H8'         2.1570    1.1970   -8.0780 h1        1 D24      0.083200
     57 H9'         1.3540   -1.1610   -9.1500 ha        1 D24      0.146500
     58 H10'        0.1750   -0.1160  -11.3310 ha        1 D24      0.144250
     59 H11'       -0.5020    2.3990  -10.8490 ha        1 D24      0.144250
     60 H12'        0.2070    3.0390   -8.3120 ha        1 D24      0.146500
     61 H2          0.2500    0.8600    1.8250 ha        1 D24      0.142250
@<TRIPOS>BOND
     1    1    2 1   
     2    1    3 1   
     3    1   12 1   
     4    1   34 1   
     5    2    4 1   
     6    2   35 1   
     7    3   36 1   
     8    3   37 1   
     9    4    5 1   
    10    4    8 1   
    11    4   38 1   
    12    5    6 2   
    13    5   39 1   
    14    6    7 1   
    15    6   40 1   
    16    7    8 2   
    17    7   41 1   
    18    8   42 1   
    19    9   10 ar  
    20    9   14 ar  
    21    9   15 1   
    22   10   11 ar  
    23   10   61 1   
    24   11   12 ar  
    25   11   43 1   
    26   12   13 ar  
    27   13   14 ar  
    28   13   44 1   
    29   14   45 1   
    30   15   16 1   
    31   15   17 2   
    32   16   19 1   
    33   17   18 1   
    34   17   46 1   
    35   18   19 2   
    36   18   47 1   
    37   19   20 1   
    38   20   21 ar  
    39   20   25 ar  
    40   21   22 ar  
    41   21   48 1   
    42   22   23 ar  
    43   22   49 1   
    44   23   24 ar  
    45   23   26 1   
    46   24   25 ar  
    47   24   50 1   
    48   25   51 1   
    49   26   27 1   
    50   26   28 1   
    51   26   52 1   
    52   27   29 1   
    53   27   53 1   
    54   28   54 1   
    55   28   55 1   
    56   29   30 1   
    57   29   33 1   
    58   29   56 1   
    59   30   31 2   
    60   30   57 1   
    61   31   32 1   
    62   31   58 1   
    63   32   33 2   
    64   32   59 1   
    65   33   60 1   
@<TRIPOS>SUBSTRUCTURE
     1 D24         1 TEMP              0 ****  ****    0 ROOT
