@<TRIPOS>MOLECULE
D24
   61    55     1     0     0
SMALL
bcc


@<TRIPOS>ATOM
      1 C7         -2.1920    5.9270    1.9960 c3        1 D24      0.083000
      2 N2         -2.6080    6.8800    1.0250 n3        1 D24     -0.269000
      3 N1         -3.3140    5.5100    2.7620 n3        1 D24     -0.372000
      4 C8         -2.4080    8.0490    1.4690 c3        1 D24      0.013000
      5 C9         -1.4980    8.8610    0.4860 c2        1 D24     -0.186500
      6 C10        -2.2320   10.0010   -0.0860 c1        1 D24     -0.150000
      7 C11        -3.5070   10.0360    0.4000 c1        1 D24     -0.150000
      8 C12        -3.7250    8.9370    1.3230 c2        1 D24     -0.186500
      9 C1         -0.5310    2.4270    0.1770 c1        1 D24     -0.014000
     10 C2         -1.8430    2.7870   -0.0850 c1        1 D24     -0.110000
     11 C3         -2.3720    3.9390    0.4770 c1        1 D24     -0.128000
     12 C4         -1.5870    4.7320    1.3000 c2        1 D24     -0.104000
     13 C5         -0.2740    4.3720    1.5620 c2        1 D24     -0.112000
     14 C6          0.2540    3.2190    1.0000 c1        1 D24     -0.104000
     15 CA          0.0160    1.3050   -0.4320 c1        1 D24      0.006000
     16 O1          0.0580    0.0420    0.0960 os        1 D24     -0.100000
     17 CB          0.6450    1.2750   -1.6600 c1        1 D24     -0.178000
     18 CB'         1.0720   -0.0040   -1.8840 c1        1 D24     -0.179000
     19 CA'         0.7090   -0.7710   -0.7960 c2        1 D24      0.008000
     20 C1'         0.9940   -2.1150   -0.6160 c1        1 D24     -0.014000
     21 C2'         0.0700   -3.0760   -0.9940 c1        1 D24     -0.116500
     22 C3'         0.3530   -4.4200   -0.8100 c1        1 D24     -0.116500
     23 C4'         1.5610   -4.8040   -0.2480 c1        1 D24     -0.079000
     24 C5'         2.4850   -3.8420    0.1310 c1        1 D24     -0.111000
     25 C6'         2.2010   -2.4980   -0.0540 c1        1 D24     -0.106000
     26 C7'         1.8190   -6.2610    0.0630 c3        1 D24      0.084000
     27 N2'         1.8820   -7.0000   -1.1490 n3        1 D24     -0.332000
     28 N1'         0.7660   -6.7660    0.8710 n3        1 D24     -0.326000
     29 C8'         2.4160   -8.1270   -0.9280 c3        1 D24      0.011000
     30 C9'         1.5560   -9.2750   -1.5580 c2        1 D24     -0.194500
     31 CAX         2.2980   -9.9590   -2.6270 c1        1 D24     -0.140500
     32 CBX         3.5350   -9.4030   -2.7760 c1        1 D24     -0.140500
     33 CCX         3.7170   -8.3170   -1.8310 c2        1 D24     -0.194500
     34 H7         -1.5260    6.3330    2.5870 h2        1 D24      0.114000
     35 HN2        -3.4990    6.7690    0.8510 hn        1 D24      0.163000
     36 H11A       -3.1580    5.6800    3.6480 hn        1 D24      0.149000
     37 H12A       -3.4500    4.6110    2.6420 hn        1 D24      0.149000
     38 H8         -2.0700    7.8630    2.3670 h1        1 D24      0.129000
     39 H9         -0.8210    8.4010   -0.0460 ha        1 D24      0.153000
     40 H10        -1.7620   10.8330   -0.2850 ha        1 D24      0.141000
     41 H11        -3.9490   10.8930    0.5480 ha        1 D24      0.141000
     42 H12        -4.3230    9.0520    2.0860 ha        1 D24      0.153000
     43 H2         -2.3960    2.2290   -0.6640 ha        1 D24      0.137000
     44 H3         -3.2960    4.1930    0.2930 ha        1 D24      0.131000
     45 H5          0.2790    4.9300    2.1410 ha        1 D24      0.139000
     46 H6          1.1790    2.9660    1.1840 ha        1 D24      0.148000
     47 HB          0.7650    2.0340   -2.2630 DU        1 D24      0.162000
     48 HB'         1.5500   -0.3190   -2.6740 DU        1 D24      0.162000
     49 H2'        -0.7810   -2.8060   -1.3910 ha        1 D24      0.139500
     50 H3'        -0.2980   -5.0970   -1.0770 ha        1 D24      0.139500
     51 H5'         3.3350   -4.1110    0.5260 ha        1 D24      0.139000
     52 H6'         2.8520   -1.8200    0.2130 ha        1 D24      0.148000
     53 H7'         2.6680   -6.3460    0.5430 h2        1 D24      0.093000
     54 HN2'        2.3830   -6.5400   -1.7610 hn        1 D24      0.178000
     55 H1'1        0.3860   -7.4910    0.4600 hn        1 D24      0.147500
     56 H1'2        1.1000   -7.0170    1.6860 hn        1 D24      0.147500
     57 H8'         2.5230   -8.1070    0.0440 h1        1 D24      0.121000
     58 H9'         0.9270   -9.7750   -1.0030 ha        1 D24      0.147500
     59 H10'        2.1720  -10.9160   -2.7740 ha        1 D24      0.144000
     60 H11'        4.2940   -9.9620   -3.0290 ha        1 D24      0.144000
     61 H12'        4.6010   -8.1390   -1.4560 ha        1 D24      0.147500
@<TRIPOS>BOND
     1    1    2 1   
     2    1    3 1   
     3    1   12 1   
     4    1   34 1   
     5    2    4 1   
     6    2   35 1   
     7    3   36 1   
     8    3   37 1   
     9    4    5 1   
    10    4    8 1   
    11    4   38 1   
    12    5    6 1   
    13    5   39 1   
    14    6   40 1   
    15    7    8 1   
    16    7   41 1   
    17    8   42 1   
    18    9   10 1   
    19   10   43 1   
    20   11   12 1   
    21   11   44 1   
    22   12   13 1   
    23   13   14 1   
    24   13   45 1   
    25   14   46 1   
    26   15   16 1   
    27   15   17 1   
    28   16   19 1   
    29   17   18 1   
    30   18   19 1   
    31   19   20 1   
    32   20   25 1   
    33   21   22 1   
    34   21   49 1   
    35   22   50 1   
    36   23   24 1   
    37   23   26 1   
    38   24   51 1   
    39   25   52 1   
    40   26   27 1   
    41   26   28 1   
    42   26   53 1   
    43   27   29 1   
    44   27   54 1   
    45   28   55 1   
    46   28   56 1   
    47   29   30 1   
    48   29   33 1   
    49   29   57 1   
    50   30   31 1   
    51   30   58 1   
    52   31   59 1   
    53   32   33 1   
    54   32   60 1   
    55   33   61 1   
@<TRIPOS>SUBSTRUCTURE
     1 D24         1 TEMP              0 ****  ****    0 ROOT
