@<TRIPOS>MOLECULE
D25
   25    20     1     0     0
SMALL
bcc


@<TRIPOS>ATOM
      1 C1         -3.3860    0.9300    1.8750 c1        1 D25     -0.184000
      2 C2         -2.4820   -0.0430    1.5610 c2        1 D25     -0.083000
      3 C3         -1.6690   -0.0670    0.4390 c2        1 D25      0.047000
      4 C4         -0.2990    0.0250    0.4340 c1        1 D25     -0.197000
      5 C6         -4.0170    0.5620    3.0280 c1        1 D25     -0.129000
      6 O10        -2.0800   -0.2480   -0.8380 os        1 D25     -0.056000
      7 N11        -0.9540   -0.2690   -1.6530 n2        1 D25     -0.020000
      8 C12         0.1320   -0.1020   -0.8700 c2        1 D25     -0.064000
      9 C13         1.4510   -0.0980   -1.2970 c1        1 D25     -0.025000
     10 C14         2.0840    1.1030   -1.5790 c1        1 D25     -0.095000
     11 C15         3.3910    1.1050   -2.0420 c1        1 D25     -0.123750
     12 C16         4.0650   -0.0930   -2.2210 c1        1 D25     -0.123750
     13 C17         3.4320   -1.2930   -1.9380 c1        1 D25     -0.123750
     14 C18         2.1250   -1.2950   -1.4760 c1        1 D25     -0.123750
     15 N6         -2.5540   -1.0000    2.5090 n2        1 D25     -0.055000
     16 N10        -3.5080   -0.6240    3.4210 n2        1 D25     -0.153000
     17 H1         -3.5530    1.7460    1.3650 DU        1 D25      0.205750
     18 H6         -4.7130    1.0680    3.4880 DU        1 D25      0.205750
     19 H4          0.2710    0.1580    1.2160 DU        1 D25      0.205750
     20 H10        -3.7540   -1.0940    4.1620 DU        1 D25      0.205750
     21 H14         1.6100    1.9460   -1.4530 ha        1 D25      0.149000
     22 H18         1.6790   -2.1410   -1.2770 ha        1 D25      0.134500
     23 H15         3.8370    1.9500   -2.2410 ha        1 D25      0.134500
     24 H16         4.9850   -0.0910   -2.5470 ha        1 D25      0.134500
     25 H17         3.9070   -2.1370   -2.0650 ha        1 D25      0.134500
@<TRIPOS>BOND
     1    1    2 1   
     2    1    5 1   
     3    2    3 1   
     4    2   15 1   
     5    3    4 1   
     6    3    6 1   
     7    4    8 1   
     8    5   16 1   
     9    6    7 1   
    10    7    8 1   
    11    8    9 1   
    12    9   10 1   
    13   10   21 1   
    14   11   12 1   
    15   11   23 1   
    16   12   24 1   
    17   13   14 1   
    18   13   25 1   
    19   14   22 1   
    20   15   16 1   
@<TRIPOS>SUBSTRUCTURE
     1 D25         1 TEMP              0 ****  ****    0 ROOT
