@<TRIPOS>MOLECULE
D25
   25    27     1     0     0
SMALL
bcc


@<TRIPOS>ATOM
      1 C1        -32.7880   17.9670   24.5320 cc        1 D25     -0.249300
      2 C2        -32.8640   16.5440   24.2560 cc        1 D25      0.245300
      3 C3        -32.1290   15.5160   24.9220 cc        1 D25      0.241700
      4 C4        -32.0490   14.1410   24.8190 cd        1 D25     -0.327600
      5 C6        -33.6840   18.5510   23.6300 cd        1 D25     -0.153300
      6 O10       -31.2410   15.9250   25.9560 os        1 D25     -0.113100
      7 N11       -30.6410   14.8750   26.4700 nc        1 D25     -0.355300
      8 C12       -31.0710   13.7560   25.8410 cd        1 D25      0.371800
      9 C13       -30.6420   12.3970   26.1230 ca        1 D25     -0.132500
     10 C14       -29.4120   12.1460   26.7470 ca        1 D25     -0.101000
     11 C15       -29.0140   10.8340   27.0030 ca        1 D25     -0.135500
     12 C16       -29.8360    9.7670   26.6440 ca        1 D25     -0.117000
     13 C17       -31.0630   10.0120   26.0260 ca        1 D25     -0.135500
     14 C18       -31.4670   11.3190   25.7650 ca        1 D25     -0.101000
     15 N6        -33.7620   16.3130   23.2410 nd        1 D25     -0.487800
     16 N10       -34.2330   17.5000   22.8850 na        1 D25     -0.008600
     17 H1        -32.1630   18.4400   25.2810 ha        1 D25      0.182000
     18 H6        -33.9640   19.5900   23.4620 h4        1 D25      0.182000
     19 H4        -32.5720   13.4780   24.1390 ha        1 D25      0.183000
     20 H10       -34.9060   17.5700   22.1570 hn        1 D25      0.325700
     21 H14       -28.7560   12.9820   27.0350 ha        1 D25      0.142500
     22 H18       -32.4380   11.5090   25.2830 ha        1 D25      0.142500
     23 H15       -28.0470   10.6440   27.4920 ha        1 D25      0.134500
     24 H16       -29.5200    8.7340   26.8480 ha        1 D25      0.133000
     25 H17       -31.7150    9.1720   25.7440 ha        1 D25      0.134500
@<TRIPOS>BOND
     1    1    2 1   
     2    1    5 2   
     3    1   17 1   
     4    2    3 1   
     5    2   15 2   
     6    3    4 2   
     7    3    6 1   
     8    4    8 1   
     9    4   19 1   
    10    5   16 1   
    11    5   18 1   
    12    6    7 1   
    13    7    8 2   
    14    8    9 1   
    15    9   10 ar  
    16    9   14 ar  
    17   10   11 ar  
    18   10   21 1   
    19   11   12 ar  
    20   11   23 1   
    21   12   13 ar  
    22   12   24 1   
    23   13   14 ar  
    24   13   25 1   
    25   14   22 1   
    26   15   16 1   
    27   16   20 1   
@<TRIPOS>SUBSTRUCTURE
     1 D25         1 TEMP              0 ****  ****    0 ROOT
