@<TRIPOS>MOLECULE
D25
   25    27     1     0     0
SMALL
bcc


@<TRIPOS>ATOM
      1 C1         -0.0220   -0.1190   -0.0580 cc        1 D25     -0.249300
      2 C2          1.4190    0.0390   -0.0010 cc        1 D25      0.245300
      3 C3          2.3120    0.0280   -1.1170 cc        1 D25      0.241700
      4 C4          3.6770    0.1540   -1.2830 cd        1 D25     -0.327600
      5 C6         -0.4400   -0.0380    1.2760 cd        1 D25     -0.153300
      6 O10         1.7330   -0.1500   -2.4040 os        1 D25     -0.113100
      7 N11         2.6740   -0.1380   -3.3220 nc        1 D25     -0.355300
      8 C12         3.8790    0.0410   -2.7310 cd        1 D25      0.371800
      9 C13         5.1630    0.1100   -3.4080 ca        1 D25     -0.132500
     10 C14         5.3380   -0.4590   -4.6770 ca        1 D25     -0.101000
     11 C15         6.5790   -0.3880   -5.3090 ca        1 D25     -0.135500
     12 C16         7.6500    0.2490   -4.6840 ca        1 D25     -0.117000
     13 C17         7.4790    0.8190   -3.4220 ca        1 D25     -0.135500
     14 C18         6.2430    0.7520   -2.7850 ca        1 D25     -0.101000
     15 N6          1.8200    0.2040    1.3040 nd        1 D25     -0.487800
     16 N10         0.7180    0.1570    2.0390 na        1 D25     -0.008600
     17 H1         -0.6150   -0.2660   -0.9540 ha        1 D25      0.182000
     18 H6         -1.4290   -0.1000    1.7270 h4        1 D25      0.182000
     19 H4          4.4450    0.2940   -0.5300 ha        1 D25      0.183000
     20 H10         0.7750    0.2550    3.0260 hn        1 D25      0.325700
     21 H14         4.4970   -0.9630   -5.1790 ha        1 D25      0.142500
     22 H18         6.1110    1.2090   -1.7920 ha        1 D25      0.142500
     23 H15         6.7100   -0.8370   -6.3040 ha        1 D25      0.134500
     24 H16         8.6280    0.3030   -5.1850 ha        1 D25      0.133000
     25 H17         8.3220    1.3250   -2.9290 ha        1 D25      0.134500
@<TRIPOS>BOND
     1    1    2 1   
     2    1    5 2   
     3    1   17 1   
     4    2    3 1   
     5    2   15 2   
     6    3    4 2   
     7    3    6 1   
     8    4    8 1   
     9    4   19 1   
    10    5   16 1   
    11    5   18 1   
    12    6    7 1   
    13    7    8 2   
    14    8    9 1   
    15    9   10 ar  
    16    9   14 ar  
    17   10   11 ar  
    18   10   21 1   
    19   11   12 ar  
    20   11   23 1   
    21   12   13 ar  
    22   12   24 1   
    23   13   14 ar  
    24   13   25 1   
    25   14   22 1   
    26   15   16 1   
    27   16   20 1   
@<TRIPOS>SUBSTRUCTURE
     1 D25         1 TEMP              0 ****  ****    0 ROOT
