@<TRIPOS>MOLECULE
D26
   25    27     1     0     0
SMALL
bcc


@<TRIPOS>ATOM
      1 C1          0.1270   -0.2410   -0.1200 cc        1 D26     -0.271300
      2 C2          1.5380    0.0980   -0.0610 cc        1 D26      0.384800
      3 C3          2.4350    0.1550   -1.1730 cc        1 D26     -0.229900
      4 C6         -0.3160   -0.1630    1.2060 cd        1 D26     -0.148300
      5 N11         3.1030    0.0130   -3.4180 nd        1 D26     -0.631000
      6 C12         4.2390    0.3570   -2.7840 cc        1 D26      0.429900
      7 C13         5.5250    0.5630   -3.4300 ca        1 D26     -0.129500
      8 C14         5.7510    0.1410   -4.7480 ca        1 D26     -0.105000
      9 C15         6.9970    0.3460   -5.3420 ca        1 D26     -0.133000
     10 C16         8.0220    0.9690   -4.6330 ca        1 D26     -0.120000
     11 C17         7.8020    1.3930   -3.3210 ca        1 D26     -0.133000
     12 C18         6.5620    1.1940   -2.7220 ca        1 D26     -0.105000
     13 N6          1.8940    0.3590    1.2410 nd        1 D26     -0.515800
     14 S3          4.0680    0.5380   -1.0830 ss        1 D26     -0.027300
     15 C4          2.0830   -0.1000   -2.5040 cd        1 D26      0.341200
     16 N10         0.7950    0.2020    1.9710 na        1 D26     -0.010600
     17 H1         -0.4410   -0.4950   -1.0060 ha        1 D26      0.169000
     18 H6         -1.2970   -0.3320    1.6490 h4        1 D26      0.178000
     19 H4          1.0820   -0.3730   -2.8570 h4        1 D26      0.044100
     20 H10         0.8270    0.3430    2.9540 hn        1 D26      0.323700
     21 H14         4.9470   -0.3510   -5.3170 ha        1 D26      0.144000
     22 H18         6.3930    1.5350   -1.6880 ha        1 D26      0.144000
     23 H15         7.1670    0.0120   -6.3770 ha        1 D26      0.134500
     24 H16         9.0020    1.1280   -5.1050 ha        1 D26      0.133000
     25 H17         8.6080    1.8870   -2.7600 ha        1 D26      0.134500
@<TRIPOS>BOND
     1    1    2 1   
     2    1    4 2   
     3    1   17 1   
     4    2    3 1   
     5    2   13 2   
     6    3   14 1   
     7    3   15 2   
     8    4   16 1   
     9    4   18 1   
    10    5    6 2   
    11    5   15 1   
    12    6    7 1   
    13    6   14 1   
    14    7    8 ar  
    15    7   12 ar  
    16    8    9 ar  
    17    8   21 1   
    18    9   10 ar  
    19    9   23 1   
    20   10   11 ar  
    21   10   24 1   
    22   11   12 ar  
    23   11   25 1   
    24   12   22 1   
    25   13   16 1   
    26   15   19 1   
    27   16   20 1   
@<TRIPOS>SUBSTRUCTURE
     1 D26         1 TEMP              0 ****  ****    0 ROOT
