@<TRIPOS>MOLECULE
D26
   25    27     1     0     0
SMALL
bcc


@<TRIPOS>ATOM
      1 C1         11.8070    4.9620   21.6430 cc        1 D26     -0.271300
      2 C2         13.1560    4.5540   21.9950 cc        1 D26      0.384800
      3 C3         13.7390    4.6180   23.3000 cc        1 D26     -0.229900
      4 C6         11.7050    4.7140   20.2690 cd        1 D26     -0.148300
      5 N11        13.8340    5.0520   25.6040 nd        1 D26     -0.631000
      6 C12        15.0610    4.5690   25.3350 cc        1 D26      0.429900
      7 C13        16.1240    4.3990   26.3130 ca        1 D26     -0.129500
      8 C14        16.0470    4.9970   27.5790 ca        1 D26     -0.105000
      9 C15        17.0830    4.8240   28.4960 ca        1 D26     -0.133000
     10 C16        18.1990    4.0580   28.1620 ca        1 D26     -0.120000
     11 C17        18.2790    3.4590   26.9040 ca        1 D26     -0.133000
     12 C18        17.2490    3.6260   25.9830 ca        1 D26     -0.105000
     13 N6         13.8030    4.0920   20.8740 nd        1 D26     -0.515800
     14 S3         15.3060    4.1510   23.6850 ss        1 D26     -0.027300
     15 C4         13.0870    5.0790   24.4500 cd        1 D26      0.341200
     16 N10        12.9390    4.1920   19.8710 na        1 D26     -0.010600
     17 H1         11.0590    5.3670   22.3130 ha        1 D26      0.169000
     18 H6         10.8830    4.8610   19.5700 h4        1 D26      0.178000
     19 H4         12.0550    5.4460   24.4940 h4        1 D26      0.044100
     20 H10        13.2040    3.9080   18.9570 hn        1 D26      0.323700
     21 H14        15.1690    5.6030   27.8520 ha        1 D26      0.144000
     22 H18        17.3170    3.1470   24.9940 ha        1 D26      0.144000
     23 H15        17.0160    5.2950   29.4880 ha        1 D26      0.134500
     24 H16        19.0140    3.9240   28.8890 ha        1 D26      0.133000
     25 H17        19.1580    2.8530   26.6380 ha        1 D26      0.134500
@<TRIPOS>BOND
     1    1    2 1   
     2    1    4 2   
     3    1   17 1   
     4    2    3 1   
     5    2   13 2   
     6    3   14 1   
     7    3   15 2   
     8    4   16 1   
     9    4   18 1   
    10    5    6 2   
    11    5   15 1   
    12    6    7 1   
    13    6   14 1   
    14    7    8 ar  
    15    7   12 ar  
    16    8    9 ar  
    17    8   21 1   
    18    9   10 ar  
    19    9   23 1   
    20   10   11 ar  
    21   10   24 1   
    22   11   12 ar  
    23   11   25 1   
    24   12   22 1   
    25   13   16 1   
    26   15   19 1   
    27   16   20 1   
@<TRIPOS>SUBSTRUCTURE
     1 D26         1 TEMP              0 ****  ****    0 ROOT
