@<TRIPOS>MOLECULE
D26
   25    20     1     0     0
SMALL
bcc


@<TRIPOS>ATOM
      1 C1         -2.8840    0.8310    2.6150 cg        1 D26     -0.236200
      2 C2         -1.5680    0.4730    2.5750 ce        1 D26      0.228200
      3 C3         -0.7440    0.5200    1.4610 ce        1 D26     -0.236100
      4 C6         -3.3450    0.6010    3.8790 ch        1 D26     -0.072000
      5 N11         1.0540    1.4310    0.0810 n1        1 D26     -0.267400
      6 C12         0.6980    0.1860   -0.5210 ce        1 D26      0.161800
      7 C13         1.2210   -0.3290   -1.6980 cg        1 D26     -0.052200
      8 C14         2.3170   -1.1760   -1.6570 c1        1 D26     -0.066500
      9 C15         2.8710   -1.6500   -2.8360 c1        1 D26     -0.060500
     10 C16         2.3300   -1.2760   -4.0560 c1        1 D26     -0.060500
     11 C17         1.2340   -0.4290   -4.0970 c1        1 D26     -0.060500
     12 C18         0.6790    0.0450   -2.9180 c1        1 D26     -0.060500
     13 N6         -1.2200    0.0280    3.8010 n1        1 D26     -0.249400
     14 S3         -0.4400   -0.4370    0.3140 ss        1 D26      0.092200
     15 C4          0.1440    1.6510    1.3400 c1        1 D26     -0.060900
     16 N10        -2.3240    0.1070    4.6110 nf        1 D26     -0.203000
     17 H1         -3.4050    1.1880    1.8710 DU        1 D26      0.200500
     18 H6         -4.2520    0.7650    4.1980 DU        1 D26      0.200500
     19 H4          0.1730    2.4210    1.9390 DU        1 D26      0.200500
     20 H10        -2.3620   -0.1320    5.4900 DU        1 D26      0.200500
     21 H14         2.6990   -1.4390   -0.7980 ha        1 D26      0.075500
     22 H18        -0.0930    0.6420   -2.9470 ha        1 D26      0.081750
     23 H15         3.6440   -2.2470   -2.8070 ha        1 D26      0.081750
     24 H16         2.7200   -1.6100   -4.8860 ha        1 D26      0.081750
     25 H17         0.8520   -0.1660   -4.9560 ha        1 D26      0.081750
@<TRIPOS>BOND
     1    1    2 1   
     2    1    4 3   
     3    2    3 1   
     4    2   13 2   
     5    3   14 1   
     6    3   15 2   
     7    4   16 1   
     8    5    6 2   
     9    5   15 2   
    10    6    7 1   
    11    6   14 1   
    12    7    8 3   
    13    8   21 1   
    14    9   10 3   
    15    9   23 1   
    16   10   24 1   
    17   11   12 3   
    18   11   25 1   
    19   12   22 1   
    20   13   16 2   
@<TRIPOS>SUBSTRUCTURE
     1 D26         1 TEMP              0 ****  ****    0 ROOT
