@<TRIPOS>MOLECULE
D27
   40    41     1     0     0
SMALL
bcc


@<TRIPOS>ATOM
      1 C1        127.6950   16.9020   -3.7660 ca        1 D27     -0.162600
      2 C2        128.3020   15.7150   -4.2570 ca        1 D27      0.062600
      3 C3        127.0120   17.0150   -2.4110 c         1 D27      0.914200
      4 N4        128.2070   14.5230   -3.5090 n         1 D27     -0.439100
      5 C5        129.2600   13.6390   -3.3170 c         1 D27      0.653300
      6 C6        129.2160   12.8290   -2.0630 ce        1 D27     -0.221200
      7 C7        127.9240   12.5290    2.6400 ca        1 D27      0.093100
      8 C8        128.8370   13.3530   -0.8890 cf        1 D27     -0.084200
      9 C9        128.6050   11.3060    2.8410 ca        1 D27      0.063100
     10 C10       128.0170   13.1820    1.4090 ca        1 D27     -0.168000
     11 O11       127.2610   16.1600   -1.5020 o         1 D27     -0.840300
     12 O12       130.1680   13.4440   -4.1530 o         1 D27     -0.626100
     13 C13       128.7850   12.6290    0.3720 ca        1 D27     -0.029800
     14 C14       129.3700   10.7620    1.8050 ca        1 D27     -0.124000
     15 O15       126.2210   17.9800   -2.2300 o         1 D27     -0.840300
     16 C16       129.4630   11.4220    0.5830 ca        1 D27     -0.142000
     17 C18       127.7280   18.0490   -4.5620 ca        1 D27     -0.092000
     18 C20       128.9500   15.7350   -5.5110 ca        1 D27     -0.165000
     19 C21       126.5600   14.2660    3.5250 c3        1 D27      0.110700
     20 C22       127.3730   10.1760    4.5080 c3        1 D27      0.117700
     21 C23       128.3610   18.0590   -5.8030 ca        1 D27     -0.179000
     22 C24       128.9770   16.9010   -6.2690 ca        1 D27     -0.136000
     23 H18       127.2310   18.9560   -4.1740 ha        1 D27      0.153000
     24 H4        127.5740   14.6110   -2.7230 hn        1 D27      0.353500
     25 H20       129.4520   14.8270   -5.8810 ha        1 D27      0.146000
     26 H6        129.5580   11.7910   -2.1880 ha        1 D27      0.134000
     27 H8        128.5060   14.4170   -0.8200 ha        1 D27      0.200000
     28 H10       127.4950   14.1370    1.2300 ha        1 D27      0.172000
     29 H14       129.9060    9.8170    1.9760 ha        1 D27      0.138000
     30 H16       130.0790   10.9910   -0.2210 ha        1 D27      0.136000
     31 H211      126.0640   14.4560    4.5100 h1        1 D27      0.048700
     32 H212      127.3230   15.0530    3.3100 h1        1 D27      0.048700
     33 H213      125.8030   14.2200    2.7040 h1        1 D27      0.048700
     34 H23       128.3760   18.9760   -6.4070 ha        1 D27      0.108000
     35 H221      126.9730    9.4270    3.7820 h1        1 D27      0.038033
     36 H222      127.6010    9.6920    5.4900 h1        1 D27      0.038033
     37 H223      126.6490   11.0160    4.6380 h1        1 D27      0.038033
     38 H24       129.4900   16.9010   -7.2410 ha        1 D27      0.107000
     39 O17       127.1790   12.9960    3.7080 os        1 D27     -0.336900
     40 O19       128.6390   10.6640    4.0710 os        1 D27     -0.335900
@<TRIPOS>BOND
     1    1    2 ar  
     2    1    3 1   
     3    1   17 ar  
     4    2    4 1   
     5    2   18 ar  
     6    3   11 1   
     7    3   15 1   
     8    4    5 1   
     9    4   24 1   
    10    5    6 1   
    11    5   12 2   
    12    6    8 2   
    13    6   26 1   
    14    7    9 ar  
    15    7   10 ar  
    16    7   39 1   
    17    8   13 1   
    18    8   27 1   
    19    9   14 ar  
    20    9   40 1   
    21   10   13 ar  
    22   10   28 1   
    23   13   16 ar  
    24   14   16 ar  
    25   14   29 1   
    26   16   30 1   
    27   17   21 ar  
    28   17   23 1   
    29   18   22 ar  
    30   18   25 1   
    31   19   31 1   
    32   19   32 1   
    33   19   33 1   
    34   19   39 1   
    35   20   35 1   
    36   20   36 1   
    37   20   37 1   
    38   20   40 1   
    39   21   22 ar  
    40   21   34 1   
    41   22   38 1   
@<TRIPOS>SUBSTRUCTURE
     1 D27         1 TEMP              0 ****  ****    0 ROOT
