@<TRIPOS>MOLECULE
D27
   40    39     1     0     0
SMALL
bcc


@<TRIPOS>ATOM
      1 C1         -0.1360   -1.0170   -1.4790 c3        1 D27     -0.226000
      2 C2          1.0370   -0.3910   -0.7760 c2        1 D27      0.150000
      3 C3          0.2440   -1.7450   -2.7810 c2        1 D27      0.334000
      4 N4          1.8750    0.3850   -1.5780 ns        1 D27     -0.300000
      5 C5          3.2580    0.5020   -1.3900 c2        1 D27      0.250000
      6 C6          4.0230    0.7480   -2.6260 c1        1 D27      0.028000
      7 C7          3.1470   -0.8140   -6.7020 c2        1 D27      0.145000
      8 C8          4.7470   -0.3520   -3.2380 c3        1 D27     -0.196000
      9 C9          4.2690   -0.6070   -7.5060 c2        1 D27     -0.088000
     10 C10         3.2440   -0.6880   -5.2280 c3        1 D27     -0.187000
     11 O11         0.9100   -1.1130   -3.6680 o         1 D27     -0.584500
     12 O12         3.8110    0.5170   -0.2690 o         1 D27     -0.361000
     13 C13         4.6040   -0.3840   -4.7220 c2        1 D27     -0.039000
     14 C14         5.5260   -0.2900   -6.9810 c1        1 D27     -0.191000
     15 O15        -0.1390   -2.9300   -2.9400 o         1 D27     -0.584500
     16 C16         5.6520   -0.1930   -5.5640 c2        1 D27     -0.158000
     17 C18         0.8410    2.1340    3.2040 c1        1 D27      0.286500
     18 C20         1.2000   -0.5500    0.5750 c2        1 D27     -0.349000
     19 C21         0.8270   -1.3120   -6.4560 c3        1 D27     -0.096000
     20 C22         5.2520   -0.5190   -9.6440 c3        1 D27     -0.047000
     21 C23         0.3620    1.6100    2.1470 c1        1 D27     -0.763000
     22 C24        -0.1560    1.1040    1.0570 c1        1 D27      0.286500
     23 H18        -0.6370   -1.7440   -0.7900 hc        1 D27      0.109000
     24 H4          1.5740    0.4230   -2.5460 hn        1 D27      0.268000
     25 H20         0.5550   -1.2510    1.1210 ha        1 D27      0.137500
     26 H6          4.4830   -1.3730   -2.8360 hc        1 D27      0.132500
     27 H8          5.8300   -0.1540   -2.9560 hc        1 D27      0.132500
     28 H10         2.8400   -1.6320   -4.7410 hc        1 D27      0.189500
     29 H14         6.6540    0.0440   -5.1720 ha        1 D27      0.130000
     30 H16         2.5220    0.1160   -4.8780 hc        1 D27      0.189500
     31 H211        0.5890   -0.3680   -5.9090 h1        1 D27      0.111333
     32 H212        0.9940   -2.1360   -5.7160 h1        1 D27      0.111333
     33 H213        0.0220   -1.5760   -7.1860 h1        1 D27      0.111333
     34 H23        -0.8770   -0.2150   -1.7400 hc        1 D27      0.109000
     35 H221        5.6430    0.5140   -9.4770 h1        1 D27      0.071000
     36 H222        6.0370   -1.2650   -9.3710 h1        1 D27      0.071000
     37 H223        4.9110   -0.6590  -10.7000 h1        1 D27      0.071000
     38 H24         2.0900   -0.1900    1.1080 ha        1 D27      0.137500
     39 O17         1.9730   -1.1250   -7.2990 os        1 D27     -0.179000
     40 O19         4.0710   -0.7360   -8.8800 os        1 D27     -0.215000
@<TRIPOS>BOND
     1    1    2 1   
     2    1    3 1   
     3    1   23 1   
     4    1   34 1   
     5    2    4 1   
     6    2   18 1   
     7    3   11 1   
     8    3   15 1   
     9    4    5 1   
    10    4   24 1   
    11    5    6 1   
    12    5   12 1   
    13    6    8 1   
    14    7    9 1   
    15    7   10 1   
    16    7   39 1   
    17    8   13 1   
    18    8   26 1   
    19    8   27 1   
    20    9   14 1   
    21    9   40 1   
    22   10   13 1   
    23   10   28 1   
    24   10   30 1   
    25   13   16 1   
    26   14   16 1   
    27   16   29 1   
    28   17   21 1   
    29   18   25 1   
    30   18   38 1   
    31   19   31 1   
    32   19   32 1   
    33   19   33 1   
    34   19   39 1   
    35   20   35 1   
    36   20   36 1   
    37   20   37 1   
    38   20   40 1   
    39   21   22 1   
@<TRIPOS>SUBSTRUCTURE
     1 D27         1 TEMP              0 ****  ****    0 ROOT
