@<TRIPOS>MOLECULE
D27
   40    34     1     0     0
SMALL
bcc


@<TRIPOS>ATOM
      1 C1          0.7170    1.5390    3.2960 c1        1 D27     -0.022000
      2 C2          0.3620    2.5800    2.4360 c1        1 D27     -0.022000
      3 C3          1.9930    0.7940    3.0720 c1        1 D27      0.361000
      4 N4          1.1020    2.8020    1.2390 n2        1 D27     -0.301000
      5 C5          1.0640    1.8080    0.1510 c2        1 D27      0.338000
      6 C6          1.8530    2.0390   -1.0850 c2        1 D27     -0.191000
      7 C7         -0.9200   -1.4670   -2.5150 c1        1 D27      0.031500
      8 C8          1.8500    1.1150   -2.0810 c1        1 D27     -0.073000
      9 C9         -0.3680   -2.5670   -1.8880 c1        1 D27      0.031500
     10 C10        -0.2260   -0.2600   -2.5440 c1        1 D27     -0.134000
     11 O11         3.0820    1.2890    3.4500 o         1 D27     -0.579500
     12 O12         0.4160    0.8180    0.2700 o         1 D27     -0.397000
     13 C13         1.0360   -0.1610   -1.9340 c1        1 D27     -0.108000
     14 C14         0.8830   -2.4720   -1.2830 c1        1 D27     -0.134000
     15 O15         1.9760   -0.3530    2.4840 o         1 D27     -0.579500
     16 C16         1.5850   -1.2550   -1.3110 c1        1 D27     -0.087000
     17 O17        -2.2040   -1.5940   -3.2200 os        1 D27     -0.225000
     18 C18        -0.0450    1.3010    4.4650 c2        1 D27     -0.132500
     19 O19        -1.0280   -3.8180   -1.9520 os        1 D27     -0.225000
     20 C20        -0.7530    3.3930    2.7330 c2        1 D27     -0.132500
     21 C21        -2.0780   -1.8240   -4.6570 c3        1 D27     -0.080500
     22 C22        -1.4760   -4.3010   -0.6750 c3        1 D27     -0.080500
     23 C23        -1.1550    2.1150    4.7540 c1        1 D27     -0.156500
     24 C24        -1.5060    3.1590    3.8860 c1        1 D27     -0.156500
     25 H18         0.1920    0.5930    5.0530 ha        1 D27      0.146500
     26 H4          1.5680    3.5880    1.1260 hn        1 D27      0.280000
     27 H20        -1.0040    4.1350    2.1200 ha        1 D27      0.146500
     28 H6          2.3860    2.8700   -1.1820 ha        1 D27      0.135000
     29 H8          2.3870    1.2780   -2.9220 ha        1 D27      0.116000
     30 H10        -0.5870    0.5210   -3.1000 ha        1 D27      0.167000
     31 H14         1.2690   -3.2480   -0.8400 ha        1 D27      0.167000
     32 H16         2.4880   -1.1850   -0.8760 ha        1 D27      0.177000
     33 H211       -2.4160   -2.7190   -4.8750 h1        1 D27      0.084500
     34 H212       -2.5900   -1.1650   -5.1310 h1        1 D27      0.084500
     35 H213       -1.1460   -1.7590   -4.9170 h1        1 D27      0.084500
     36 H23        -1.6760    1.9630    5.5750 ha        1 D27      0.107500
     37 H221       -0.9180   -3.9010    0.0430 h1        1 D27      0.084500
     38 H222       -2.3960   -4.0540   -0.5430 h1        1 D27      0.084500
     39 H223       -1.3970   -5.2360   -0.6490 h1        1 D27      0.084500
     40 H24        -2.3190    3.6380    4.0250 ha        1 D27      0.107500
@<TRIPOS>BOND
     1    1    2 1   
     2    1   18 1   
     3    2   20 1   
     4    3   11 1   
     5    3   15 1   
     6    4    5 1   
     7    4   26 1   
     8    5    6 1   
     9    5   12 1   
    10    6    8 1   
    11    6   28 1   
    12    7   10 1   
    13    7   17 1   
    14    8   29 1   
    15    9   14 1   
    16    9   19 1   
    17   10   30 1   
    18   13   16 1   
    19   14   31 1   
    20   16   32 1   
    21   17   21 1   
    22   18   23 1   
    23   18   25 1   
    24   19   22 1   
    25   20   24 1   
    26   20   27 1   
    27   21   33 1   
    28   21   34 1   
    29   21   35 1   
    30   22   37 1   
    31   22   38 1   
    32   22   39 1   
    33   23   36 1   
    34   24   40 1   
@<TRIPOS>SUBSTRUCTURE
     1 D27         1 TEMP              0 ****  ****    0 ROOT
