@<TRIPOS>MOLECULE
D27
   40    39     1     0     0
SMALL
bcc


@<TRIPOS>ATOM
      1 C1          0.7150    0.0530    0.2910 c3        1 D27     -0.256000
      2 C2          2.2010   -0.1030    0.4950 c2        1 D27      0.072000
      3 C3          0.1920   -0.6580   -1.0390 c2        1 D27      0.375000
      4 N4          3.0150    0.3970   -0.5490 n         1 D27     -0.255000
      5 C5          4.0460   -0.3970   -1.0790 c2        1 D27      0.266000
      6 C6          4.2660   -0.2760   -2.5240 c1        1 D27     -0.036000
      7 C7          3.3120   -1.7890   -7.0720 c2        1 D27      0.049000
      8 C8          3.7110   -1.2540   -3.4180 c3        1 D27     -0.218000
      9 C9          4.0300   -0.6160   -7.6070 c2        1 D27     -0.026000
     10 C10         3.4980   -2.0760   -5.7570 c2        1 D27     -0.167000
     11 O11         0.9900   -0.8170   -1.9970 o         1 D27     -0.547500
     12 O12         4.8340   -1.0640   -0.3700 o         1 D27     -0.381000
     13 C13         4.2920   -1.1880   -4.8260 c3        1 D27     -0.053000
     14 C14         4.3170    0.2880   -6.6700 c1        1 D27     -0.283000
     15 O15        -1.0190   -0.9900   -1.0230 o         1 D27     -0.547500
     16 C16         4.2470    0.2310   -5.3450 c2        1 D27      0.006000
     17 C18         0.3050    1.4460    0.2090 c1        1 D27      0.016000
     18 C20         2.6880   -0.6690    1.6170 c2        1 D27     -0.295000
     19 C21         1.7270   -2.0660   -8.7910 c3        1 D27     -0.073000
     20 C22         5.3430    0.1860   -9.3940 c1        1 D27     -0.032000
     21 C23        -1.1010    1.7100    0.2920 c2        1 D27     -0.528000
     22 C24        -1.6990    2.8080    0.6820 c1        1 D27      0.183000
     23 H18         0.1840   -0.5040    1.1170 hc        1 D27      0.121000
     24 H4          2.4610    0.8620   -1.2500 hn        1 D27      0.231000
     25 H20         2.0160   -1.0170    2.4080 ha        1 D27      0.118000
     26 H6          2.5860   -1.0270   -3.4360 hc        1 D27      0.179500
     27 H8          3.7870   -2.3120   -3.0360 hc        1 D27      0.179500
     28 H10         3.0910   -2.9980   -5.3160 ha        1 D27      0.160000
     29 H14         4.0960    1.0590   -4.6410 ha        1 D27      0.184000
     30 H16         5.3510   -1.5750   -4.7950 hc        1 D27      0.122000
     31 H211        2.2520   -1.3290   -9.4470 h1        1 D27      0.083667
     32 H212        0.9060   -1.5690   -8.2210 h1        1 D27      0.083667
     33 H213        1.3330   -2.9240   -9.3900 h1        1 D27      0.083667
     34 H23        -1.7520    0.8650   -0.0840 ha        1 D27      0.247000
     35 H221        3.8700    2.0210  -10.0190 ha        1 D27      0.004500
     36 H222        3.8410    1.6080  -10.5570 ha        1 D27      0.004500
     37 H223        5.7500    0.9840   -8.7360 ha        1 D27      0.045000
     38 H24         3.7590   -0.8320    1.7840 ha        1 D27      0.118000
     39 O17         2.6500   -2.6810   -7.8920 os        1 D27     -0.210000
     40 O19         4.4870   -0.6530   -8.9350 os        1 D27     -0.026000
@<TRIPOS>BOND
     1    1    2 1   
     2    1    3 1   
     3    1   17 1   
     4    1   23 1   
     5    2    4 1   
     6    2   18 1   
     7    3   11 1   
     8    3   15 1   
     9    4    5 1   
    10    4   24 1   
    11    5    6 1   
    12    5   12 1   
    13    6    8 1   
    14    7    9 1   
    15    7   10 1   
    16    7   39 1   
    17    8   13 1   
    18    8   26 1   
    19    8   27 1   
    20    9   14 1   
    21    9   40 1   
    22   10   13 1   
    23   10   28 1   
    24   13   16 1   
    25   13   30 1   
    26   14   16 1   
    27   16   29 1   
    28   17   21 1   
    29   18   25 1   
    30   18   38 1   
    31   19   31 1   
    32   19   32 1   
    33   19   33 1   
    34   19   39 1   
    35   20   37 1   
    36   20   40 1   
    37   21   22 1   
    38   21   34 1   
    39   35   36 1   
@<TRIPOS>SUBSTRUCTURE
     1 D27         1 TEMP              0 ****  ****    0 ROOT
