@<TRIPOS>MOLECULE
D27
   40    40     1     0     0
SMALL
bcc


@<TRIPOS>ATOM
      1 C1          0.0620   -0.9970   -0.8150 c3        1 D27     -0.246000
      2 C2          1.3940   -0.5510   -0.3290 c2        1 D27      0.053000
      3 C3          0.0930   -1.2780   -2.3450 c2        1 D27      0.345000
      4 N4          1.9820    0.5060   -0.9670 n         1 D27     -0.260000
      5 C5          3.3700    0.5370   -1.2900 c2        1 D27      0.265000
      6 C6          3.6420    1.1000   -2.6150 c1        1 D27     -0.008000
      7 C7          3.5830   -0.3900   -7.1740 c2        1 D27      0.020000
      8 C8          3.5660    0.2680   -3.7770 c3        1 D27     -0.240000
      9 C9          4.9680   -0.8820   -6.9870 c2        1 D27      0.139000
     10 C10         3.0790    0.4090   -6.1980 c2        1 D27     -0.210000
     11 O11         0.5340   -0.3640   -3.1130 o         1 D27     -0.565000
     12 O12         4.2600    0.2160   -0.4810 o         1 D27     -0.336000
     13 C13         3.9100    0.9800   -5.0750 c3        1 D27     -0.035000
     14 C14         5.7080   -0.0050   -6.2810 c1        1 D27     -0.254000
     15 O15        -0.3370   -2.3860   -2.7410 o         1 D27     -0.565000
     16 C16         5.3700    0.9750   -5.4630 c2        1 D27     -0.084000
     17 C18        -0.1620    1.5720    2.7400 c1        1 D27      0.026000
     18 C20         1.9360   -1.1280    0.9290 c3        1 D27     -0.058000
     19 C21         1.4950   -0.6270   -8.2740 c3        1 D27     -0.083000
     20 C22         4.6630   -2.8590   -8.2690 c3        1 D27     -0.072000
     21 C23         0.5750    0.6210    2.3220 c1        1 D27     -0.495000
     22 C24         1.3420   -0.3610    1.9890 c1        1 D27     -0.077000
     23 H18        -0.2560   -1.9240   -0.2770 hc        1 D27      0.116000
     24 H4          1.3880    0.9300   -1.6710 hn        1 D27      0.264000
     25 H20         1.6430   -2.2100    1.0270 hc        1 D27      0.142000
     26 H6          2.4580   -0.0730   -3.8160 hc        1 D27      0.193000
     27 H8          4.1560   -0.6880   -3.6890 hc        1 D27      0.193000
     28 H10         2.0080    0.6580   -6.1460 ha        1 D27      0.159000
     29 H14         6.0030    1.8110   -5.1540 ha        1 D27      0.149000
     30 H16         3.6310    2.0710   -4.9730 hc        1 D27      0.136000
     31 H211        1.2940    0.4700   -8.3380 h1        1 D27      0.089000
     32 H212        1.0160   -1.0600   -7.3610 h1        1 D27      0.089000
     33 H213        1.1410   -1.1490   -9.1970 h1        1 D27      0.089000
     34 H23        -0.7170   -0.2060   -0.6470 hc        1 D27      0.116000
     35 H221        3.6550   -3.1060   -7.8560 h1        1 D27      0.088333
     36 H222        4.5630   -2.2780   -9.2170 h1        1 D27      0.088333
     37 H223        5.2720   -3.7850   -8.4240 h1        1 D27      0.088333
     38 H24         3.0590   -1.0560    0.9990 hc        1 D27      0.142000
     39 O17         2.9010   -0.8710   -8.2700 os        1 D27     -0.223000
     40 O19         5.4230   -2.1270   -7.3070 os        1 D27     -0.176000
@<TRIPOS>BOND
     1    1    2 1   
     2    1    3 1   
     3    1   23 1   
     4    1   34 1   
     5    2    4 1   
     6    2   18 1   
     7    3   11 1   
     8    3   15 1   
     9    4    5 1   
    10    4   24 1   
    11    5    6 1   
    12    5   12 1   
    13    6    8 1   
    14    7    9 1   
    15    7   10 1   
    16    7   39 1   
    17    8   13 1   
    18    8   26 1   
    19    8   27 1   
    20    9   14 1   
    21    9   40 1   
    22   10   13 1   
    23   10   28 1   
    24   13   16 1   
    25   13   30 1   
    26   14   16 1   
    27   16   29 1   
    28   17   21 1   
    29   18   22 1   
    30   18   25 1   
    31   18   38 1   
    32   19   31 1   
    33   19   32 1   
    34   19   33 1   
    35   19   39 1   
    36   20   35 1   
    37   20   36 1   
    38   20   37 1   
    39   20   40 1   
    40   21   22 1   
@<TRIPOS>SUBSTRUCTURE
     1 D27         1 TEMP              0 ****  ****    0 ROOT
