@<TRIPOS>MOLECULE
D28
   36    38     1     0     0
SMALL
bcc


@<TRIPOS>ATOM
      1 C1         14.9880    4.0930   -1.8500 cc        1 D28      0.411800
      2 C2         16.0660    4.1030   -0.8660 ca        1 D28     -0.107500
      3 N3         15.2240    3.7340   -3.1750 nc        1 D28     -0.716000
      4 C4         13.6690    4.4370   -1.5620 cd        1 D28     -0.308400
      5 C5         16.0020    4.9790    0.2260 ca        1 D28     -0.101000
      6 C6         17.1650    3.2400   -0.9910 ca        1 D28     -0.081000
      7 C7         14.0660    3.8000   -3.8720 cd        1 D28      0.644300
      8 S8         12.6990    4.3130   -2.9080 ss        1 D28     -0.060300
      9 C9         17.0060    5.0030    1.1960 ca        1 D28     -0.116300
     10 C10        18.1760    3.2450   -0.0370 ca        1 D28     -0.171000
     11 N11        13.9210    3.3990   -5.1970 nh        1 D28     -0.681300
     12 C12        18.1010    4.1230    1.0590 ca        1 D28      0.110900
     13 C13        16.9310    5.9440    2.3360 c3        1 D28     -0.048800
     14 C14        12.9100    4.0100   -5.9940 ca        1 D28      0.107600
     15 F15        19.0920    4.1150    1.9860 f         1 D28     -0.150900
     16 C16        13.2510    4.5550   -7.2450 ca        1 D28     -0.236000
     17 C17        11.5660    4.0170   -5.5780 ca        1 D28     -0.219000
     18 C18        12.2470    5.0990   -8.0670 ca        1 D28      0.200100
     19 C19        10.5920    4.5750   -6.4040 ca        1 D28     -0.051000
     20 C20        10.9020    5.1220   -7.6470 ca        1 D28     -0.215600
     21 O21        12.6870    5.5910   -9.2630 oh        1 D28     -0.547100
     22 C22         9.7830    5.7100   -8.4870 c         1 D28      0.919200
     23 O23        10.0760    6.1970   -9.6240 o         1 D28     -0.826800
     24 O24         8.6140    5.6910   -8.0200 o         1 D28     -0.826800
     25 H4         13.3040    4.7420   -0.5850 h4        1 D28      0.171000
     26 H5         15.1490    5.6690    0.3210 ha        1 D28      0.140000
     27 H6         17.2310    2.5540   -1.8500 ha        1 D28      0.158000
     28 H10        19.0380    2.5700   -0.1310 ha        1 D28      0.142000
     29 H11        14.7870    3.2680   -5.6870 hn        1 D28      0.422800
     30 H131       17.3310    5.4670    3.2660 hc        1 D28      0.045367
     31 H132       17.5470    6.8540    2.1210 hc        1 D28      0.045367
     32 H133       15.8780    6.2660    2.5230 hc        1 D28      0.045367
     33 H16        14.2890    4.5650   -7.6060 ha        1 D28      0.133000
     34 H17        11.2600    3.5560   -4.6260 ha        1 D28      0.123000
     35 H19         9.5340    4.5900   -6.0860 ha        1 D28      0.160000
     36 H21        11.9200    5.9550   -9.7610 ho        1 D28      0.488000
@<TRIPOS>BOND
     1    1    2 1   
     2    1    3 1   
     3    1    4 2   
     4    2    5 ar  
     5    2    6 ar  
     6    3    7 2   
     7    4    8 1   
     8    4   25 1   
     9    5    9 ar  
    10    5   26 1   
    11    6   10 ar  
    12    6   27 1   
    13    7    8 1   
    14    7   11 1   
    15    9   12 ar  
    16    9   13 1   
    17   10   12 ar  
    18   10   28 1   
    19   11   14 1   
    20   11   29 1   
    21   12   15 1   
    22   13   30 1   
    23   13   31 1   
    24   13   32 1   
    25   14   16 ar  
    26   14   17 ar  
    27   16   18 ar  
    28   16   33 1   
    29   17   19 ar  
    30   17   34 1   
    31   18   20 ar  
    32   18   21 1   
    33   19   20 ar  
    34   19   35 1   
    35   20   22 1   
    36   21   36 1   
    37   22   23 1   
    38   22   24 1   
@<TRIPOS>SUBSTRUCTURE
     1 D28         1 TEMP              0 ****  ****    0 ROOT
