@<TRIPOS>MOLECULE
D28
   36    38     1     0     0
SMALL
bcc


@<TRIPOS>ATOM
      1 C1          0.4590   -0.1620   -0.3160 cc        1 D28      0.411800
      2 C2         -0.4200   -0.1100   -1.4810 ca        1 D28     -0.107500
      3 N3          1.8210   -0.4220   -0.4500 nc        1 D28     -0.716000
      4 C4          0.0280    0.0490    0.9920 cd        1 D28     -0.308400
      5 C5         -1.7780   -0.4230   -1.3410 ca        1 D28     -0.102000
      6 C6          0.0740    0.2560   -2.7420 ca        1 D28     -0.080000
      7 C7          2.4000   -0.4230    0.7730 cd        1 D28      0.644300
      8 S8          1.2830   -0.0850    2.0760 ss        1 D28     -0.061300
      9 C9         -2.6510   -0.3710   -2.4290 ca        1 D28     -0.116300
     10 C10        -0.7760    0.3170   -3.8400 ca        1 D28     -0.170000
     11 N11         3.7270   -0.7700    1.0150 nu        1 D28     -0.681300
     12 C12        -2.1400    0.0060   -3.6900 ca        1 D28      0.110900
     13 C13        -4.0810   -0.7160   -2.2680 c3        1 D28     -0.047800
     14 C14         4.3940   -0.1990    2.1360 ca        1 D28      0.108600
     15 F15        -2.9600    0.0720   -4.7680 f         1 D28     -0.150900
     16 C16         5.6390    0.4310    1.9520 ca        1 D28     -0.236000
     17 C17         3.8590   -0.3130    3.4330 ca        1 D28     -0.219000
     18 C18         6.3360    0.9380    3.0650 ca        1 D28      0.200100
     19 C19         4.5630    0.2100    4.5170 ca        1 D28     -0.051000
     20 C20         5.7960    0.8390    4.3640 ca        1 D28     -0.215600
     21 O21         7.5370    1.5200    2.7740 oh        1 D28     -0.547100
     22 C22         6.4990    1.3820    5.5940 c         1 D28      0.919200
     23 O23         5.9310    1.2500    6.7110 o         1 D28     -0.826800
     24 O24         7.6280    1.9450    5.4440 o         1 D28     -0.826800
     25 H4         -0.9910    0.2900    1.2810 h4        1 D28      0.171000
     26 H5         -2.1680   -0.7240   -0.3550 ha        1 D28      0.139000
     27 H6          1.1410    0.4980   -2.8680 ha        1 D28      0.158000
     28 H10        -0.3940    0.6060   -4.8290 ha        1 D28      0.142000
     29 H11         4.3000   -0.8140    0.1930 hn        1 D28      0.422800
     30 H131       -4.4020   -0.6120   -1.2030 hc        1 D28      0.044700
     31 H132       -4.7190   -0.0510   -2.9020 hc        1 D28      0.044700
     32 H133       -4.2570   -1.7740   -2.5880 hc        1 D28      0.044700
     33 H16         6.0900    0.5370    0.9560 ha        1 D28      0.132000
     34 H17         2.9100   -0.8400    3.6150 ha        1 D28      0.122000
     35 H19         4.1510    0.1300    5.5380 ha        1 D28      0.160000
     36 H21         7.9430    1.8490    3.6080 ho        1 D28      0.488000
@<TRIPOS>BOND
     1    1    2 1   
     2    1    3 1   
     3    1    4 2   
     4    2    5 ar  
     5    2    6 ar  
     6    3    7 2   
     7    4    8 1   
     8    4   25 1   
     9    5    9 ar  
    10    5   26 1   
    11    6   10 ar  
    12    6   27 1   
    13    7    8 1   
    14    7   11 1   
    15    9   12 ar  
    16    9   13 1   
    17   10   12 ar  
    18   10   28 1   
    19   11   14 1   
    20   11   29 1   
    21   12   15 1   
    22   13   30 1   
    23   13   31 1   
    24   13   32 1   
    25   14   16 ar  
    26   14   17 ar  
    27   16   18 ar  
    28   16   33 1   
    29   17   19 ar  
    30   17   34 1   
    31   18   20 ar  
    32   18   21 1   
    33   19   20 ar  
    34   19   35 1   
    35   20   22 1   
    36   21   36 1   
    37   22   23 1   
    38   22   24 1   
@<TRIPOS>SUBSTRUCTURE
     1 D28         1 TEMP              0 ****  ****    0 ROOT
