@<TRIPOS>MOLECULE
D28
   37    39     1     0     0
SMALL
bcc


@<TRIPOS>ATOM
      1 C1          0.5680    0.1510   -0.4110 cc        1 D28      0.431800
      2 C2         -0.4850    0.0620   -1.4170 ca        1 D28     -0.155500
      3 N3          1.8460    0.5650   -0.7160 nc        1 D28     -0.608000
      4 C4          0.3860   -0.1720    0.9530 cd        1 D28     -0.303400
      5 C5         -1.4850   -0.9110   -1.2830 ca        1 D28     -0.087000
      6 C6         -0.5110    0.9400   -2.5090 ca        1 D28     -0.072000
      7 C7          2.5900    0.5360    0.4250 cd        1 D28      0.321300
      8 S8          1.7570    0.0260    1.8190 ss        1 D28      0.253700
      9 C9         -2.5140   -1.0180   -2.2180 ca        1 D28     -0.106300
     10 C10        -1.5290    0.8530   -3.4520 ca        1 D28     -0.166000
     11 N11         3.9980    0.9150    0.4220 n4        1 D28     -0.564100
     12 C12        -2.5330   -0.1220   -3.3120 ca        1 D28      0.144900
     13 C13        -3.5610   -2.0550   -2.0800 c3        1 D28     -0.056800
     14 C14         4.5770    0.8560    1.7710 ca        1 D28     -0.076400
     15 F15        -3.5200   -0.1970   -4.2340 f         1 D28     -0.129900
     16 C16         5.1370   -0.3540    2.2100 ca        1 D28     -0.208000
     17 C17         4.5860    2.0090    2.5700 ca        1 D28     -0.168000
     18 C18         5.7030   -0.4050    3.4990 ca        1 D28      0.212100
     19 C19         5.1540    1.9270    3.8420 ca        1 D28     -0.061000
     20 C20         5.7020    0.7430    4.3250 ca        1 D28     -0.165600
     21 O21         6.2170   -1.6100    3.8500 oh        1 D28     -0.524100
     22 C22         6.2790    0.7300    5.7470 c         1 D28      0.920200
     23 O23         6.2080    1.7980    6.3970 o         1 D28     -0.784800
     24 O24         6.7740   -0.3600    6.1520 o         1 D28     -0.784800
     25 H4         -0.5700   -0.5040    1.3640 h4        1 D28      0.208000
     26 H5         -1.4590   -1.6110   -0.4330 ha        1 D28      0.140000
     27 H6          0.2710    1.7060   -2.6280 ha        1 D28      0.150000
     28 H10        -1.5580    1.5410   -4.3100 ha        1 D28      0.157000
     29 H11         4.0880    1.8730    0.0560 hn        1 D28      0.460800
     30 H131       -3.3670   -2.8910   -2.7990 hc        1 D28      0.055700
     31 H132       -3.5840   -2.4750   -1.0450 hc        1 D28      0.055700
     32 H133       -4.5680   -1.6250   -2.3160 hc        1 D28      0.055700
     33 H16         5.1550   -1.2600    1.5870 ha        1 D28      0.153000
     34 H17         4.1620    2.9600    2.2190 ha        1 D28      0.137000
     35 H19         5.1780    2.8140    4.5050 ha        1 D28      0.193000
     36 H21         6.6000   -1.5580    4.7620 ho        1 D28      0.509000
     37 H112        4.5140    0.2740   -0.1980 hn        1 D28      0.460800
@<TRIPOS>BOND
     1    1    2 1   
     2    1    3 1   
     3    1    4 2   
     4    2    5 ar  
     5    2    6 ar  
     6    3    7 2   
     7    4    8 1   
     8    4   25 1   
     9    5    9 ar  
    10    5   26 1   
    11    6   10 ar  
    12    6   27 1   
    13    7    8 1   
    14    7   11 1   
    15    9   12 ar  
    16    9   13 1   
    17   10   12 ar  
    18   10   28 1   
    19   11   14 1   
    20   11   29 1   
    21   11   37 1   
    22   12   15 1   
    23   13   30 1   
    24   13   31 1   
    25   13   32 1   
    26   14   16 ar  
    27   14   17 ar  
    28   16   18 ar  
    29   16   33 1   
    30   17   19 ar  
    31   17   34 1   
    32   18   20 ar  
    33   18   21 1   
    34   19   20 ar  
    35   19   35 1   
    36   20   22 1   
    37   21   36 1   
    38   22   23 1   
    39   22   24 1   
@<TRIPOS>SUBSTRUCTURE
     1 D28         1 TEMP              0 ****  ****    0 ROOT
