@<TRIPOS>MOLECULE
D28
   36    31     1     0     0
SMALL
bcc


@<TRIPOS>ATOM
      1 C1         -1.0280    0.1580   -1.5550 c2        1 D28     -0.026000
      2 C2         -1.8920    0.1440   -2.6390 c1        1 D28      0.001000
      3 N3          0.5390    0.1130   -1.6290 n2        1 D28     -0.190000
      4 C4         -1.4150    0.2160   -0.1660 c1        1 D28     -0.515000
      5 C5         -2.5230    1.3540   -2.8790 c1        1 D28     -0.102000
      6 C6         -2.6110   -1.0390   -2.7110 c1        1 D28     -0.126000
      7 C7          1.0550    0.1440   -0.2970 c1        1 D28     -0.133000
      8 S8         -0.1420    0.2100    0.6740 ss        1 D28      0.541000
      9 C9         -3.8730    1.3820   -3.1920 c1        1 D28     -0.109000
     10 C10        -3.9610   -1.0120   -3.0230 c1        1 D28     -0.126000
     11 N11         2.4260    0.1840    0.0650 n2        1 D28     -0.202000
     12 C12        -4.5930    0.1990   -3.2630 c1        1 D28      0.076000
     13 C13        -4.5760    2.7060   -3.3930 c3        1 D28     -0.173000
     14 C14         2.8400   -0.3070    1.3300 c2        1 D28      0.027000
     15 F15        -5.9030    0.2270   -3.5390 f         1 D28     -0.117000
     16 C16         3.0100    0.5120    2.4350 c2        1 D28     -0.228000
     17 C17         3.1260   -1.6600    1.4190 c1        1 D28     -0.228000
     18 C18         3.4660   -0.0220    3.6300 c1        1 D28      0.155000
     19 C19         3.5820   -2.1940    2.6140 c1        1 D28     -0.050000
     20 C20         3.7520   -1.3750    3.7190 c1        1 D28     -0.197000
     21 O21         3.6180    0.8060    4.7580 oh        1 D28     -0.302000
     22 C22         4.2350   -1.9610    5.0280 c2        1 D28      0.368000
     23 O23         5.4640   -1.9640    5.3020 o         1 D28     -0.561500
     24 O24         3.4100   -2.4670    5.8340 o         1 D28     -0.561500
     25 H4         -2.1730    0.2660    0.4480 DU        1 D28      0.171000
     26 H5         -2.0100    2.1840   -2.8600 ha        1 D28      0.139000
     27 H6         -2.1670   -1.8920   -2.5410 ha        1 D28      0.150000
     28 H10        -4.4680   -1.8450   -3.0730 ha        1 D28      0.150000
     29 H11         3.0400    0.5370   -0.5100 hn        1 D28      0.216000
     30 H131       -5.2310    2.8410   -2.6770 hc        1 D28      0.084000
     31 H132       -3.9170    3.4320   -3.3740 hc        1 D28      0.084000
     32 H133       -5.0340    2.7050   -4.2600 hc        1 D28      0.084000
     33 H16         2.8090    1.4650    2.3720 ha        1 D28      0.138000
     34 H17         3.0350   -2.2310    0.6330 ha        1 D28      0.116000
     35 H19         3.7840   -3.1470    2.6780 ha        1 D28      0.160000
     36 H21         4.3260    1.3320    4.6450 ho        1 D28      0.287000
@<TRIPOS>BOND
     1    1    2 1   
     2    1    3 1   
     3    1    4 1   
     4    2    5 1   
     5    3    7 1   
     6    4    8 1   
     7    5   26 1   
     8    6   10 1   
     9    6   27 1   
    10    7    8 1   
    11    9   12 1   
    12    9   13 1   
    13   10   28 1   
    14   11   14 1   
    15   11   29 1   
    16   12   15 1   
    17   13   30 1   
    18   13   31 1   
    19   13   32 1   
    20   14   16 1   
    21   14   17 1   
    22   16   18 1   
    23   16   33 1   
    24   17   34 1   
    25   18   21 1   
    26   19   20 1   
    27   19   35 1   
    28   20   22 1   
    29   21   36 1   
    30   22   23 1   
    31   22   24 1   
@<TRIPOS>SUBSTRUCTURE
     1 D28         1 TEMP              0 ****  ****    0 ROOT
