@<TRIPOS>MOLECULE
D28
   36    38     1     0     0
SMALL
bcc


@<TRIPOS>ATOM
      1 C1          0.4580   -0.1630   -0.3150 cc        1 D28      0.411800
      2 C2         -0.4240   -0.1070   -1.4770 ca        1 D28     -0.107500
      3 N3          1.8210   -0.4140   -0.4550 nc        1 D28     -0.716000
      4 C4          0.0300    0.0350    0.9950 cd        1 D28     -0.308400
      5 C5         -1.7800   -0.4290   -1.3360 ca        1 D28     -0.102000
      6 C6          0.0650    0.2700   -2.7370 ca        1 D28     -0.080000
      7 C7          2.4040   -0.4210    0.7670 cd        1 D28      0.644300
      8 S8          1.2880   -0.0990    2.0750 ss        1 D28     -0.061300
      9 C9         -2.6560   -0.3740   -2.4220 ca        1 D28     -0.116300
     10 C10        -0.7880    0.3340   -3.8320 ca        1 D28     -0.170000
     11 N11         3.7330   -0.7620    1.0030 nh        1 D28     -0.681300
     12 C12        -2.1500    0.0140   -3.6810 ca        1 D28      0.110900
     13 C13        -4.0840   -0.7280   -2.2590 c3        1 D28     -0.047800
     14 C14         4.4000   -0.1950    2.1270 ca        1 D28      0.108600
     15 F15        -2.9730    0.0830   -4.7570 f         1 D28     -0.150900
     16 C16         5.6400    0.4440    1.9450 ca        1 D28     -0.236000
     17 C17         3.8690   -0.3220    3.4240 ca        1 D28     -0.219000
     18 C18         6.3370    0.9470    3.0590 ca        1 D28      0.200100
     19 C19         4.5730    0.1980    4.5100 ca        1 D28     -0.051000
     20 C20         5.8020    0.8350    4.3580 ca        1 D28     -0.215600
     21 O21         7.5330    1.5390    2.7690 oh        1 D28     -0.547100
     22 C22         6.5050    1.3730    5.5910 c         1 D28      0.919200
     23 O23         5.9400    1.2300    6.7080 o         1 D28     -0.826800
     24 O24         7.6290    1.9440    5.4420 o         1 D28     -0.826800
     25 H4         -0.9910    0.2700    1.2890 h4        1 D28      0.171000
     26 H5         -2.1660   -0.7390   -0.3520 ha        1 D28      0.139000
     27 H6          1.1310    0.5180   -2.8630 ha        1 D28      0.158000
     28 H10        -0.4100    0.6320   -4.8200 ha        1 D28      0.142000
     29 H11         4.3040   -0.7960    0.1790 hn        1 D28      0.422800
     30 H131       -4.2530   -1.7870   -2.5800 hc        1 D28      0.044700
     31 H132       -4.4040   -0.6280   -1.1930 hc        1 D28      0.044700
     32 H133       -4.7270   -0.0660   -2.8910 hc        1 D28      0.044700
     33 H16         6.0880    0.5590    0.9480 ha        1 D28      0.132000
     34 H17         2.9240   -0.8560    3.6050 ha        1 D28      0.122000
     35 H19         4.1640    0.1080    5.5320 ha        1 D28      0.160000
     36 H21         7.9400    1.8640    3.6040 ho        1 D28      0.488000
@<TRIPOS>BOND
     1    1    2 1   
     2    1    3 1   
     3    1    4 2   
     4    2    5 ar  
     5    2    6 ar  
     6    3    7 2   
     7    4    8 1   
     8    4   25 1   
     9    5    9 ar  
    10    5   26 1   
    11    6   10 ar  
    12    6   27 1   
    13    7    8 1   
    14    7   11 1   
    15    9   12 ar  
    16    9   13 1   
    17   10   12 ar  
    18   10   28 1   
    19   11   14 1   
    20   11   29 1   
    21   12   15 1   
    22   13   30 1   
    23   13   31 1   
    24   13   32 1   
    25   14   16 ar  
    26   14   17 ar  
    27   16   18 ar  
    28   16   33 1   
    29   17   19 ar  
    30   17   34 1   
    31   18   20 ar  
    32   18   21 1   
    33   19   20 ar  
    34   19   35 1   
    35   20   22 1   
    36   21   36 1   
    37   22   23 1   
    38   22   24 1   
@<TRIPOS>SUBSTRUCTURE
     1 D28         1 TEMP              0 ****  ****    0 ROOT
