@<TRIPOS>MOLECULE
D2A
   47    50     1     0     0
SMALL
bcc


@<TRIPOS>ATOM
      1 C1         -0.0440    0.3700    0.0440 ca        1 D2A     -0.088000
      2 C2          1.3470    0.3450    0.0090 ca        1 D2A     -0.110500
      3 C3          2.0860    0.0890    1.1750 cp        1 D2A      0.023000
      4 C4          1.4040   -0.1440    2.3800 ca        1 D2A     -0.110500
      5 C5          0.0130   -0.1210    2.4220 ca        1 D2A     -0.088000
      6 C6         -0.7120    0.1380    1.2530 ca        1 D2A     -0.266900
      7 C7          3.5480    0.0690    1.1350 cp        1 D2A     -0.047000
      8 C8          4.2190   -0.5230    0.0560 ca        1 D2A     -0.108500
      9 C9          5.6110   -0.5500    0.0170 ca        1 D2A     -0.088000
     10 C10         6.3520    0.0270    1.0580 ca        1 D2A     -0.117900
     11 C11         5.6870    0.6200    2.1390 ca        1 D2A     -0.088000
     12 C12         4.2950    0.6380    2.1770 ca        1 D2A     -0.108500
     13 C13         7.8160   -0.0190    1.0040 cc        1 D2A      0.508400
     14 N14         8.5460   -1.0050    0.4220 nd        1 D2A     -0.545100
     15 C15         9.8860   -0.6340    0.5920 ca        1 D2A      0.118400
     16 C16         9.9520    0.6340    1.3130 ca        1 D2A     -0.081200
     17 N17         8.6280    0.9950    1.5670 na        1 D2A     -0.265300
     18 C18        11.1750    1.2380    1.6130 ca        1 D2A     -0.075000
     19 C19        11.0750   -1.2610    0.1880 ca        1 D2A     -0.048000
     20 C20        12.2800   -0.6490    0.4920 ca        1 D2A     -0.136000
     21 C21        12.3280    0.5750    1.1920 ca        1 D2A     -0.253900
     22 C22        13.6390    1.2060    1.4460 ce        1 D2A      0.592800
     23 N23        14.4980    0.3630    2.3570 nz        1 D2A     -0.824600
     24 N24        14.1500    2.3030    1.0400 n2        1 D2A     -0.709100
     25 C25        -2.1860    0.2210    1.3150 ce        1 D2A      0.588800
     26 N26        -2.8420   -0.9390    0.6090 nz        1 D2A     -0.824600
     27 N27        -2.9680    1.0750    1.8510 n2        1 D2A     -0.702100
     28 H1         -0.6060    0.5990   -0.8740 ha        1 D2A      0.149500
     29 H2          1.8720    0.5420   -0.9410 ha        1 D2A      0.166000
     30 H4          1.9730   -0.3530    3.3010 ha        1 D2A      0.166000
     31 H5         -0.5070   -0.3010    3.3770 ha        1 D2A      0.149500
     32 H8          3.6460   -0.9840   -0.7650 ha        1 D2A      0.149000
     33 H9          6.1240   -1.0300   -0.8340 ha        1 D2A      0.157500
     34 H11         6.2500    1.0600    2.9770 ha        1 D2A      0.157500
     35 H12         3.7810    1.1090    3.0300 ha        1 D2A      0.149000
     36 H17         8.3150    1.8270    1.9950 hn        1 D2A      0.322700
     37 H18        11.2230    2.1950    2.1530 ha        1 D2A      0.153000
     38 H19        11.0410   -2.2140   -0.3660 ha        1 D2A      0.181000
     39 H20        13.2150   -1.1180    0.1450 ha        1 D2A      0.139000
     40 H231       14.0560    0.3330    3.2810 hn        1 D2A      0.471133
     41 H232       15.4520    0.7370    2.4460 hn        1 D2A      0.471133
     42 H24        13.6170    2.8800    0.4230 hn        1 D2A      0.490400
     43 H261       -3.8650   -0.8400    0.5690 hn        1 D2A      0.471800
     44 H262       -2.4630   -0.9890   -0.3430 hn        1 D2A      0.471800
     45 H27        -2.5730    1.8630    2.3230 hn        1 D2A      0.493400
     46 H233       14.5350   -0.5870    1.9700 hn        1 D2A      0.471133
     47 H263       -2.6040   -1.8000    1.1120 hn        1 D2A      0.471800
@<TRIPOS>BOND
     1    1    2 ar  
     2    1    6 ar  
     3    1   28 1   
     4    2    3 ar  
     5    2   29 1   
     6    3    4 ar  
     7    3    7 1   
     8    4    5 ar  
     9    4   30 1   
    10    5    6 ar  
    11    5   31 1   
    12    6   25 1   
    13    7    8 ar  
    14    7   12 ar  
    15    8    9 ar  
    16    8   32 1   
    17    9   10 ar  
    18    9   33 1   
    19   10   11 ar  
    20   10   13 1   
    21   11   12 ar  
    22   11   34 1   
    23   12   35 1   
    24   13   14 2   
    25   13   17 1   
    26   14   15 1   
    27   15   16 ar  
    28   15   19 ar  
    29   16   17 1   
    30   16   18 ar  
    31   17   36 1   
    32   18   21 ar  
    33   18   37 1   
    34   19   20 ar  
    35   19   38 1   
    36   20   21 ar  
    37   20   39 1   
    38   21   22 1   
    39   22   23 1   
    40   22   24 2   
    41   23   40 1   
    42   23   41 1   
    43   23   46 1   
    44   24   42 1   
    45   25   26 1   
    46   25   27 2   
    47   26   43 1   
    48   26   44 1   
    49   26   47 1   
    50   27   45 1   
@<TRIPOS>SUBSTRUCTURE
     1 D2A         1 TEMP              0 ****  ****    0 ROOT
