@<TRIPOS>MOLECULE
D2A
   47    50     1     0     0
SMALL
bcc


@<TRIPOS>ATOM
      1 C1         -0.0360   -0.2520    0.0060 ca        1 D2A     -0.087500
      2 C2          1.3540   -0.2070   -0.0240 ca        1 D2A     -0.110500
      3 C3          2.0890   -0.0570    1.1640 cp        1 D2A      0.023000
      4 C4          1.4030    0.0560    2.3830 ca        1 D2A     -0.110500
      5 C5          0.0120    0.0080    2.4200 ca        1 D2A     -0.087500
      6 C6         -0.7090   -0.1490    1.2310 ca        1 D2A     -0.264900
      7 C7          3.5510   -0.0420    1.1320 cp        1 D2A     -0.047000
      8 C8          4.2470   -0.9160    0.2850 ca        1 D2A     -0.108500
      9 C9          5.6400   -0.9230    0.2650 ca        1 D2A     -0.088000
     10 C10         6.3570   -0.0460    1.0910 ca        1 D2A     -0.117900
     11 C11         5.6670    0.8330    1.9370 ca        1 D2A     -0.088000
     12 C12         4.2740    0.8330    1.9570 ca        1 D2A     -0.108500
     13 C13         7.8220   -0.0850    1.0710 cc        1 D2A      0.508400
     14 N14         8.5700   -1.1850    0.7980 nd        1 D2A     -0.545100
     15 C15         9.9040   -0.7660    0.8770 ca        1 D2A      0.118400
     16 C16         9.9480    0.6530    1.2180 ca        1 D2A     -0.081200
     17 N17         8.6170    1.0550    1.3410 na        1 D2A     -0.266300
     18 C18        11.1610    1.3300    1.3580 ca        1 D2A     -0.075000
     19 C19        11.1030   -1.4680    0.6810 ca        1 D2A     -0.047000
     20 C20        12.2990   -0.7830    0.8220 ca        1 D2A     -0.137000
     21 C21        12.3260    0.5890    1.1560 ca        1 D2A     -0.253900
     22 C22        13.6290    1.2790    1.2470 ce        1 D2A      0.592800
     23 N23        14.4770    0.7270    2.3660 n4        1 D2A     -0.824600
     24 N24        14.1400    2.2280    0.5640 n2        1 D2A     -0.709100
     25 C25        -2.1800   -0.2720    1.2860 ce        1 D2A      0.588800
     26 N26        -2.8680    0.9040    0.6380 n4        1 D2A     -0.824600
     27 N27        -2.9390   -1.1720    1.7770 n2        1 D2A     -0.702100
     28 H1         -0.5940   -0.3960   -0.9320 ha        1 D2A      0.149000
     29 H2          1.8820   -0.2920   -0.9880 ha        1 D2A      0.166000
     30 H4          1.9690    0.1680    3.3230 ha        1 D2A      0.166000
     31 H5         -0.5110    0.0840    3.3870 ha        1 D2A      0.149000
     32 H8          3.6940   -1.6170   -0.3600 ha        1 D2A      0.149500
     33 H9          6.1720   -1.6270   -0.3970 ha        1 D2A      0.157500
     34 H11         6.2100    1.5160    2.6070 ha        1 D2A      0.157500
     35 H12         3.7410    1.5270    2.6250 ha        1 D2A      0.149500
     36 H17         8.2920    1.9700    1.5180 hn        1 D2A      0.322700
     37 H18        11.1940    2.3990    1.6110 ha        1 D2A      0.153000
     38 H19        11.0850   -2.5370    0.4130 ha        1 D2A      0.181000
     39 H20        13.2420   -1.3180    0.6330 ha        1 D2A      0.139000
     40 H231       14.0190    0.9450    3.2560 hn        1 D2A      0.471467
     41 H232       15.4270    1.1220    2.3640 hn        1 D2A      0.471467
     42 H24        13.6140    2.6090   -0.1960 hn        1 D2A      0.489400
     43 H261       -3.8870    0.7740    0.5840 hn        1 D2A      0.471467
     44 H262       -2.6620    1.7420    1.1910 hn        1 D2A      0.471467
     45 H27        -2.5240   -1.9730    2.2090 hn        1 D2A      0.493400
     46 H233       14.5280   -0.2920    2.2540 hn        1 D2A      0.471467
     47 H263       -2.4840    1.0180   -0.3050 hn        1 D2A      0.471467
@<TRIPOS>BOND
     1    1    2 ar  
     2    1    6 ar  
     3    1   28 1   
     4    2    3 ar  
     5    2   29 1   
     6    3    4 ar  
     7    3    7 1   
     8    4    5 ar  
     9    4   30 1   
    10    5    6 ar  
    11    5   31 1   
    12    6   25 1   
    13    7    8 ar  
    14    7   12 ar  
    15    8    9 ar  
    16    8   32 1   
    17    9   10 ar  
    18    9   33 1   
    19   10   11 ar  
    20   10   13 1   
    21   11   12 ar  
    22   11   34 1   
    23   12   35 1   
    24   13   14 2   
    25   13   17 1   
    26   14   15 1   
    27   15   16 ar  
    28   15   19 ar  
    29   16   17 1   
    30   16   18 ar  
    31   17   36 1   
    32   18   21 ar  
    33   18   37 1   
    34   19   20 ar  
    35   19   38 1   
    36   20   21 ar  
    37   20   39 1   
    38   21   22 1   
    39   22   23 1   
    40   22   24 2   
    41   23   40 1   
    42   23   41 1   
    43   23   46 1   
    44   24   42 1   
    45   25   26 1   
    46   25   27 2   
    47   26   43 1   
    48   26   44 1   
    49   26   47 1   
    50   27   45 1   
@<TRIPOS>SUBSTRUCTURE
     1 D2A         1 TEMP              0 ****  ****    0 ROOT
