@<TRIPOS>MOLECULE
D2A
   47    50     1     0     0
SMALL
bcc


@<TRIPOS>ATOM
      1 C1         -0.0360   -0.2730    0.0140 ca        1 D2A     -0.087500
      2 C2          1.3540   -0.2290   -0.0170 ca        1 D2A     -0.110500
      3 C3          2.0890   -0.0580    1.1680 cp        1 D2A      0.023000
      4 C4          1.4030    0.0790    2.3850 ca        1 D2A     -0.110500
      5 C5          0.0120    0.0310    2.4220 ca        1 D2A     -0.087500
      6 C6         -0.7090   -0.1470    1.2360 ca        1 D2A     -0.264900
      7 C7          3.5510   -0.0430    1.1360 cp        1 D2A     -0.047000
      8 C8          4.2470   -0.9320    0.3050 ca        1 D2A     -0.108500
      9 C9          5.6400   -0.9410    0.2860 ca        1 D2A     -0.088000
     10 C10         6.3570   -0.0490    1.0960 ca        1 D2A     -0.117900
     11 C11         5.6670    0.8460    1.9250 ca        1 D2A     -0.088000
     12 C12         4.2740    0.8460    1.9450 ca        1 D2A     -0.108500
     13 C13         7.8220   -0.0880    1.0760 cc        1 D2A      0.508400
     14 N14         8.5700   -1.1930    0.8230 nd        1 D2A     -0.545100
     15 C15         9.9040   -0.7720    0.8950 ca        1 D2A      0.118400
     16 C16         9.9480    0.6530    1.2100 ca        1 D2A     -0.081200
     17 N17         8.6170    1.0570    1.3260 na        1 D2A     -0.266300
     18 C18        11.1610    1.3320    1.3380 ca        1 D2A     -0.075000
     19 C19        11.1030   -1.4780    0.7110 ca        1 D2A     -0.047000
     20 C20        12.2990   -0.7900    0.8400 ca        1 D2A     -0.137000
     21 C21        12.3260    0.5870    1.1490 ca        1 D2A     -0.253900
     22 C22        13.6290    1.2790    1.2280 ce        1 D2A      0.592800
     23 N23        14.4780    0.7460    2.3560 n4        1 D2A     -0.824600
     24 N24        14.1400    2.2160    0.5280 n2        1 D2A     -0.709100
     25 C25        -2.1800   -0.2680    1.2930 ce        1 D2A      0.588800
     26 N26        -2.8670    0.8960    0.6240 n4        1 D2A     -0.824600
     27 N27        -2.9390   -1.1590    1.8000 n2        1 D2A     -0.702100
     28 H1         -0.5940   -0.4340   -0.9220 ha        1 D2A      0.149000
     29 H2          1.8820   -0.3320   -0.9800 ha        1 D2A      0.166000
     30 H4          1.9690    0.2070    3.3230 ha        1 D2A      0.166000
     31 H5         -0.5110    0.1250    3.3880 ha        1 D2A      0.149000
     32 H8          3.6940   -1.6450   -0.3270 ha        1 D2A      0.149500
     33 H9          6.1720   -1.6560   -0.3640 ha        1 D2A      0.157500
     34 H11         6.2100    1.5410    2.5830 ha        1 D2A      0.157500
     35 H12         3.7410    1.5530    2.6000 ha        1 D2A      0.149500
     36 H17         8.2920    1.9740    1.4860 hn        1 D2A      0.322700
     37 H18        11.1940    2.4050    1.5720 ha        1 D2A      0.153000
     38 H19        11.0850   -2.5520    0.4620 ha        1 D2A      0.181000
     39 H20        13.2420   -1.3290    0.6600 ha        1 D2A      0.139000
     40 H231       14.0200    0.9810    3.2420 hn        1 D2A      0.471467
     41 H232       14.5280   -0.2740    2.2630 hn        1 D2A      0.471467
     42 H24        13.6130    2.5830   -0.2390 hn        1 D2A      0.489400
     43 H261       -2.6620    1.7440    1.1620 hn        1 D2A      0.471467
     44 H262       -3.8860    0.7650    0.5710 hn        1 D2A      0.471467
     45 H27        -2.5250   -1.9520    2.2460 hn        1 D2A      0.493400
     46 H233       15.4270    1.1420    2.3470 hn        1 D2A      0.471467
     47 H263       -2.4830    0.9940   -0.3210 hn        1 D2A      0.471467
@<TRIPOS>BOND
     1    1    2 ar  
     2    1    6 ar  
     3    1   28 1   
     4    2    3 ar  
     5    2   29 1   
     6    3    4 ar  
     7    3    7 1   
     8    4    5 ar  
     9    4   30 1   
    10    5    6 ar  
    11    5   31 1   
    12    6   25 1   
    13    7    8 ar  
    14    7   12 ar  
    15    8    9 ar  
    16    8   32 1   
    17    9   10 ar  
    18    9   33 1   
    19   10   11 ar  
    20   10   13 1   
    21   11   12 ar  
    22   11   34 1   
    23   12   35 1   
    24   13   14 2   
    25   13   17 1   
    26   14   15 1   
    27   15   16 ar  
    28   15   19 ar  
    29   16   17 1   
    30   16   18 ar  
    31   17   36 1   
    32   18   21 ar  
    33   18   37 1   
    34   19   20 ar  
    35   19   38 1   
    36   20   21 ar  
    37   20   39 1   
    38   21   22 1   
    39   22   23 1   
    40   22   24 2   
    41   23   40 1   
    42   23   41 1   
    43   23   46 1   
    44   24   42 1   
    45   25   26 1   
    46   25   27 2   
    47   26   43 1   
    48   26   44 1   
    49   26   47 1   
    50   27   45 1   
@<TRIPOS>SUBSTRUCTURE
     1 D2A         1 TEMP              0 ****  ****    0 ROOT
