@<TRIPOS>MOLECULE
D2A
   45    33     1     0     0
SMALL
bcc


@<TRIPOS>ATOM
      1 C1         -5.6590    1.0950   -0.9230 c1        1 D2A     -0.117500
      2 C2         -4.2740    1.0440   -0.9300 c1        1 D2A     -0.106250
      3 C3         -3.6100    0.1210   -0.1360 c1        1 D2A     -0.030250
      4 C4         -4.3310   -0.7510    0.6640 c1        1 D2A     -0.118250
      5 C5         -5.7170   -0.7000    0.6710 c1        1 D2A     -0.118250
      6 C6         -6.3810    0.2220   -0.1230 c1        1 D2A     -0.104500
      7 C7         -2.2220    0.0970   -0.1120 c1        1 D2A     -0.030250
      8 C8         -1.5260   -0.6970   -1.0100 c1        1 D2A     -0.106250
      9 C9         -0.1400   -0.6820   -1.0200 c1        1 D2A     -0.106250
     10 C10         0.5510    0.1260   -0.1300 c1        1 D2A     -0.030250
     11 C11        -0.1440    0.9200    0.7690 c1        1 D2A     -0.118250
     12 C12        -1.5310    0.9060    0.7780 c1        1 D2A     -0.118250
     13 C13         1.9390    0.1030   -0.1060 c1        1 D2A      0.063000
     14 N14         2.6980    0.9690   -0.8290 n2        1 D2A     -0.131000
     15 C15         4.0020    0.6800   -0.5960 c1        1 D2A     -0.061000
     16 C16         4.0510   -0.3690    0.2750 c1        1 D2A     -0.030250
     17 N17         2.7770   -0.7220    0.5760 n1        1 D2A     -0.233000
     18 C18         5.2960   -0.8710    0.7030 c1        1 D2A     -0.106250
     19 C19         5.1960    1.2590   -1.0670 c1        1 D2A     -0.072000
     20 C20         6.4210    0.7650   -0.6460 c1        1 D2A     -0.117500
     21 C21         6.4700   -0.3000    0.2390 c1        1 D2A     -0.104500
     22 C22         7.8190   -0.8620    0.6390 c2        1 D2A      0.113500
     23 N23         8.4980   -0.3400    1.7700 n3        1 D2A     -0.331000
     24 N24         8.3570   -1.8280   -0.0580 n1        1 D2A     -0.300500
     25 C25        -7.8930    0.2900   -0.1020 c2        1 D2A      0.113500
     26 N26        -8.6490   -0.4260   -1.0660 n3        1 D2A     -0.331000
     27 N27        -8.5030    1.0080    0.8050 n1        1 D2A     -0.300500
     28 H1         -6.1260    1.7440   -1.4820 ha        1 D2A      0.146500
     29 H2         -3.7660    1.6580   -1.4930 ha        1 D2A      0.149500
     30 H4         -3.8640   -1.4010    1.2230 ha        1 D2A      0.138500
     31 H5         -6.2260   -1.3150    1.2350 ha        1 D2A      0.138500
     32 H8         -2.0130   -1.2660   -1.6370 ha        1 D2A      0.149500
     33 H9          0.3500   -1.2410   -1.6530 ha        1 D2A      0.149500
     34 H11         0.3420    1.4900    1.3950 ha        1 D2A      0.138500
     35 H12        -2.0210    1.4650    1.4110 ha        1 D2A      0.138500
     36 H17         2.5260   -1.3900    1.1450 DU        1 D2A      0.187333
     37 H18         5.3310   -1.6220    1.3270 ha        1 D2A      0.149500
     38 H19         5.1620    2.0090   -1.6910 ha        1 D2A      0.153000
     39 H20         7.2480    1.1670   -0.9720 ha        1 D2A      0.146500
     40 H231        9.1550   -0.8290    2.1750 hn        1 D2A      0.193250
     41 H232        8.2900    0.4930    2.0840 hn        1 D2A      0.193250
     42 H24         7.9200   -2.1640   -0.7870 DU        1 D2A      0.187333
     43 H261       -9.5260   -0.2140   -1.2080 hn        1 D2A      0.193250
     44 H262       -8.2620   -1.1100   -1.5330 hn        1 D2A      0.193250
     45 H27        -8.0160    1.4690    1.4260 DU        1 D2A      0.187333
@<TRIPOS>BOND
     1    1    6 1   
     2    1   28 1   
     3    2    3 1   
     4    2   29 1   
     5    4    5 1   
     6    4   30 1   
     7    5   31 1   
     8    6   25 1   
     9    7    8 1   
    10    8   32 1   
    11    9   10 1   
    12    9   33 1   
    13   11   12 1   
    14   11   34 1   
    15   12   35 1   
    16   13   14 1   
    17   13   17 1   
    18   14   15 1   
    19   15   19 1   
    20   16   18 1   
    21   18   37 1   
    22   19   38 1   
    23   20   21 1   
    24   20   39 1   
    25   21   22 1   
    26   22   23 1   
    27   22   24 1   
    28   23   40 1   
    29   23   41 1   
    30   25   26 1   
    31   25   27 1   
    32   26   43 1   
    33   26   44 1   
@<TRIPOS>SUBSTRUCTURE
     1 D2A         1 TEMP              0 ****  ****    0 ROOT
