@<TRIPOS>MOLECULE
D2A
   45    48     1     0     0
SMALL
bcc


@<TRIPOS>ATOM
      1 C1         -5.9540   -0.3980   -1.1350 ca        1 D2A     -0.100000
      2 C2         -4.5650   -0.5020   -1.1100 ca        1 D2A     -0.124500
      3 C3         -3.8300    0.0510   -0.0510 cp        1 D2A     -0.033000
      4 C4         -4.5100    0.7130    0.9800 ca        1 D2A     -0.124500
      5 C5         -5.8990    0.8180    0.9580 ca        1 D2A     -0.100000
      6 C6         -6.6240    0.2570   -0.0970 ca        1 D2A     -0.136900
      7 C7         -2.3730   -0.0590   -0.0280 cp        1 D2A     -0.022000
      8 C8         -1.7420   -1.2500   -0.4140 ca        1 D2A     -0.123500
      9 C9         -0.3540   -1.3560   -0.3930 ca        1 D2A     -0.100500
     10 C10         0.4270   -0.2650    0.0110 ca        1 D2A     -0.114900
     11 C11        -0.1970    0.9260    0.4040 ca        1 D2A     -0.100500
     12 C12        -1.5850    1.0260    0.3840 ca        1 D2A     -0.123500
     13 C13         1.8870   -0.3880    0.0260 cc        1 D2A      0.471400
     14 N14         2.5820   -1.5240    0.2750 nd        1 D2A     -0.560100
     15 C15         3.9380   -1.1670    0.1710 ca        1 D2A      0.077400
     16 C16         4.0430    0.2470   -0.1530 ca        1 D2A     -0.081200
     17 N17         2.7320    0.7210   -0.2240 na        1 D2A     -0.276300
     18 C18         5.2850    0.8720   -0.3160 ca        1 D2A     -0.091000
     19 C19         5.1090   -1.9250    0.3170 ca        1 D2A     -0.077000
     20 C20         6.3310   -1.2920    0.1530 ca        1 D2A     -0.135000
     21 C21         6.4190    0.0830   -0.1510 ca        1 D2A     -0.127900
     22 C22         7.7700    0.7140   -0.3120 ce        1 D2A      0.653800
     23 N23         8.6860    0.3940    0.7140 nh        1 D2A     -0.960800
     24 N24         7.9980    1.4270   -1.3740 n2        1 D2A     -0.829100
     25 C25        -8.1180    0.3720   -0.1170 ce        1 D2A      0.650800
     26 N26        -8.7890   -0.8370   -0.4040 nh        1 D2A     -0.958800
     27 N27        -8.6490    1.5450    0.0590 n2        1 D2A     -0.825100
     28 H1         -6.5170   -0.8210   -1.9810 ha        1 D2A      0.148000
     29 H2         -4.0400   -1.0110   -1.9320 ha        1 D2A      0.139000
     30 H4         -3.9420    1.1510    1.8160 ha        1 D2A      0.139000
     31 H5         -6.4220    1.3520    1.7660 ha        1 D2A      0.148000
     32 H8         -2.3490   -2.1120   -0.7280 ha        1 D2A      0.141500
     33 H9          0.1300   -2.3010   -0.6900 ha        1 D2A      0.146000
     34 H11         0.3980    1.7860    0.7460 ha        1 D2A      0.146000
     35 H12        -2.0690    1.9670    0.6890 ha        1 D2A      0.141500
     36 H17         2.4470    1.6160   -0.5180 hn        1 D2A      0.308700
     37 H18         5.3610    1.9360   -0.5780 ha        1 D2A      0.152000
     38 H19         5.0500   -2.9970    0.5520 ha        1 D2A      0.151000
     39 H20         7.2560   -1.8810    0.2470 ha        1 D2A      0.145000
     40 H231        8.2840    0.0600    1.5580 hn        1 D2A      0.399800
     41 H232        9.4550    1.0100    0.8380 hn        1 D2A      0.399800
     42 H24         8.9060    1.8330   -1.4510 hn        1 D2A      0.382400
     43 H261       -8.2650   -1.6650   -0.2430 hn        1 D2A      0.398800
     44 H262       -9.7420   -0.8960   -0.1300 hn        1 D2A      0.398800
     45 H27        -9.6450    1.5900    0.0400 hn        1 D2A      0.383400
@<TRIPOS>BOND
     1    1    2 ar  
     2    1    6 ar  
     3    1   28 1   
     4    2    3 ar  
     5    2   29 1   
     6    3    4 ar  
     7    3    7 1   
     8    4    5 ar  
     9    4   30 1   
    10    5    6 ar  
    11    5   31 1   
    12    6   25 1   
    13    7    8 ar  
    14    7   12 ar  
    15    8    9 ar  
    16    8   32 1   
    17    9   10 ar  
    18    9   33 1   
    19   10   11 ar  
    20   10   13 1   
    21   11   12 ar  
    22   11   34 1   
    23   12   35 1   
    24   13   14 2   
    25   13   17 1   
    26   14   15 1   
    27   15   16 ar  
    28   15   19 ar  
    29   16   17 1   
    30   16   18 ar  
    31   17   36 1   
    32   18   21 ar  
    33   18   37 1   
    34   19   20 ar  
    35   19   38 1   
    36   20   21 ar  
    37   20   39 1   
    38   21   22 1   
    39   22   23 1   
    40   22   24 2   
    41   23   40 1   
    42   23   41 1   
    43   24   42 1   
    44   25   26 1   
    45   25   27 2   
    46   26   43 1   
    47   26   44 1   
    48   27   45 1   
@<TRIPOS>SUBSTRUCTURE
     1 D2A         1 TEMP              0 ****  ****    0 ROOT
