@<TRIPOS>MOLECULE
D2B
   44    46     1     0     0
SMALL
bcc


@<TRIPOS>ATOM
      1 N1         -4.0880    0.8620    0.6870 nb        1 D2B     -0.833000
      2 C2         -4.5980   -0.2920    0.1050 ca        1 D2B      0.913900
      3 N3         -3.9250   -1.1690   -0.7480 nb        1 D2B     -0.762000
      4 C4         -2.6480   -0.7960   -0.9580 ca        1 D2B      0.643600
      5 C5         -1.9980    0.3700   -0.4290 ca        1 D2B     -0.428400
      6 C6         -2.7860    1.1950    0.4220 ca        1 D2B      0.756200
      7 CAB         1.4850   -0.9840    3.1480 c3        1 D2B      0.111700
      8 CAC         3.3030    2.2840    1.0400 c3        1 D2B     -0.089600
      9 NAD        -5.9010   -0.6480    0.4640 nh        1 D2B     -0.929500
     10 NAE        -2.2600    2.3680    0.9420 nh        1 D2B     -0.939500
     11 CAG         3.4220   -2.7270   -0.1250 ca        1 D2B     -0.093000
     12 CAH         3.4240   -2.0530   -1.3440 ca        1 D2B     -0.164000
     13 CAI         2.8500   -2.1410    1.0020 ca        1 D2B     -0.200000
     14 CAJ         2.8480   -0.7870   -1.4390 ca        1 D2B     -0.100000
     15 CAK        -0.5430   -0.7950   -1.7120 cc        1 D2B     -0.032900
     16 CAL         3.5740    2.4160   -1.4350 c3        1 D2B     -0.089600
     17 OAP        -1.7510   -1.5180   -1.7520 os        1 D2B     -0.305400
     18 CAQ         1.6610    1.1590   -0.4600 ce        1 D2B     -0.024400
     19 CAS        -0.6410    0.3440   -0.9420 cd        1 D2B     -0.038200
     20 CAU         2.2750   -0.8670    0.9050 ca        1 D2B      0.140100
     21 CAV         2.2620   -0.1730   -0.3270 ca        1 D2B     -0.077800
     22 CAY         2.5810    2.3370   -0.2920 c3        1 D2B     -0.025500
     23 HAB         0.9150   -0.2890    3.8170 h1        1 D2B      0.045033
     24 HABA        0.8750   -1.8880    2.9080 h1        1 D2B      0.045033
     25 HABB        2.4530   -1.2760    3.6230 h1        1 D2B      0.045033
     26 HAC         3.9080    3.2110    1.1840 hc        1 D2B      0.038867
     27 HACA        2.5670    2.1930    1.8760 hc        1 D2B      0.038867
     28 HACB        3.9830    1.3990    1.0810 hc        1 D2B      0.038867
     29 HNAD       -6.4720    0.0670    0.8490 hn        1 D2B      0.430300
     30 HNAA       -6.3550   -1.3210   -0.1090 hn        1 D2B      0.430300
     31 HNAE       -1.2690    2.3990    1.0030 hn        1 D2B      0.426300
     32 HNAB       -2.7650    2.8250    1.6650 hn        1 D2B      0.426300
     33 HAF        -0.0270    2.3930   -0.8130 ha        1 D2B      0.133000
     34 HAG         3.8730   -3.7280   -0.0480 ha        1 D2B      0.134000
     35 HAH         3.8780   -2.5160   -2.2310 ha        1 D2B      0.135000
     36 HAI         2.8560   -2.6830    1.9570 ha        1 D2B      0.139000
     37 HAJ         2.8520   -0.2530   -2.4030 ha        1 D2B      0.138000
     38 HAK         0.2550   -1.2570   -2.2890 h4        1 D2B      0.198000
     39 HAL         4.2200    1.5050   -1.4570 hc        1 D2B      0.038867
     40 HALA        3.0410    2.4970   -2.4120 hc        1 D2B      0.038867
     41 HALB        4.2280    3.3130   -1.3080 hc        1 D2B      0.038867
     42 HAY         1.9590    3.2800   -0.3100 hc        1 D2B      0.046700
     43 CAF         0.3560    1.3580   -0.7250 cf        1 D2B     -0.111000
     44 OAO         1.7200   -0.2010    1.9820 os        1 D2B     -0.324900
@<TRIPOS>BOND
     1    1    2 ar  
     2    1    6 ar  
     3    2    3 ar  
     4    2    9 1   
     5    3    4 ar  
     6    4    5 ar  
     7    4   17 1   
     8    5    6 ar  
     9    5   19 1   
    10    6   10 1   
    11    7   23 1   
    12    7   24 1   
    13    7   25 1   
    14    7   44 1   
    15    8   22 1   
    16    8   26 1   
    17    8   27 1   
    18    8   28 1   
    19    9   29 1   
    20    9   30 1   
    21   10   31 1   
    22   10   32 1   
    23   11   12 ar  
    24   11   13 ar  
    25   11   34 1   
    26   12   14 ar  
    27   12   35 1   
    28   13   20 ar  
    29   13   36 1   
    30   14   21 ar  
    31   14   37 1   
    32   15   17 1   
    33   15   19 2   
    34   15   38 1   
    35   16   22 1   
    36   16   39 1   
    37   16   40 1   
    38   16   41 1   
    39   18   21 1   
    40   18   22 1   
    41   18   43 2   
    42   19   43 1   
    43   20   21 ar  
    44   20   44 1   
    45   22   42 1   
    46   33   43 1   
@<TRIPOS>SUBSTRUCTURE
     1 D2B         1 TEMP              0 ****  ****    0 ROOT
