@<TRIPOS>MOLECULE
D2B
   44    35     1     0     0
SMALL
bcc


@<TRIPOS>ATOM
      1 N1          1.8280    1.6160   -4.0000 n1        1 D2B     -0.279500
      2 C2          3.1950    1.5910   -3.9650 c1        1 D2B      0.226000
      3 N3          3.8490    1.4890   -2.7640 n1        1 D2B     -0.279500
      4 C4          3.1440    1.4150   -1.6140 c1        1 D2B     -0.075500
      5 C5          1.7790    1.4400   -1.6480 c1        1 D2B     -0.075500
      6 C6          1.1230    1.5420   -2.8560 c1        1 D2B      0.226000
      7 CAB        -3.4040   -2.7820   -0.3320 c3        1 D2B     -0.076000
      8 CAC        -2.5850    1.2590    1.3050 c3        1 D2B     -0.205000
      9 NAD         3.9430    1.6010   -5.1930 n3        1 D2B     -0.339000
     10 NAE        -0.0430    1.9650   -3.5360 n3        1 D2B     -0.339000
     11 CAF         0.7590    0.0790    0.2870 c1        1 D2B     -0.106000
     12 CAG        -0.4680   -3.8360    2.5190 c1        1 D2B     -0.135750
     13 CAH         0.0800   -2.7820    3.2420 c1        1 D2B     -0.135750
     14 CAI        -1.2450   -3.5770    1.3910 c1        1 D2B     -0.135750
     15 CAJ        -0.1500   -1.4530    2.8350 c1        1 D2B     -0.135750
     16 CAK         2.4090    1.3620    0.5000 c1        1 D2B     -0.090000
     17 CAL        -0.7040    1.9180    2.7620 c3        1 D2B     -0.205000
     18 OAO        -2.2100   -1.9970   -0.2040 os        1 D2B     -0.228000
     19 OAP         3.5410    1.3660   -0.2820 o         1 D2B     -0.092000
     20 CAQ        -0.3700    0.1120    1.1020 c1        1 D2B     -0.041000
     21 CAS         1.3160    1.4080   -0.3360 c1        1 D2B     -0.052000
     22 CAU        -1.4730   -2.2580    0.9870 c1        1 D2B      0.086000
     23 CAV        -0.9200   -1.1970    1.7160 c1        1 D2B     -0.068000
     24 CAY        -1.0710    1.4480    1.3900 c2        1 D2B     -0.078000
     25 HAB        -3.1740   -3.6710   -0.6560 h1        1 D2B      0.085667
     26 HABA       -3.8390   -2.8540    0.5350 h1        1 D2B      0.085667
     27 HABB       -4.0210   -2.3450   -0.9770 h1        1 D2B      0.085667
     28 HAC        -2.8280    0.9660    0.4010 hc        1 D2B      0.076667
     29 HACA       -2.8670    0.5810    1.9540 hc        1 D2B      0.076667
     30 HACB       -3.0360    2.1160    1.5060 hc        1 D2B      0.076667
     31 HNAD        4.8490    1.4440   -5.1810 hn        1 D2B      0.231750
     32 HNAA        3.5180    1.7500   -5.9830 hn        1 D2B      0.231750
     33 HNAE       -0.0910    1.8970   -4.4430 hn        1 D2B      0.231750
     34 HNAB       -0.7320    2.3450   -3.0690 hn        1 D2B      0.231750
     35 HAF         1.2380   -0.7690    0.1450 ha        1 D2B      0.139000
     36 HAG        -0.3070   -4.7620    2.8030 ha        1 D2B      0.137750
     37 HAH         0.6370   -2.9670    4.0500 ha        1 D2B      0.137750
     38 HAI        -1.6330   -4.3210    0.8800 ha        1 D2B      0.137750
     39 HAJ         0.2370   -0.7070    3.3470 ha        1 D2B      0.137750
     40 HAK         2.3860    1.3980    1.4650 DU        1 D2B      0.194000
     41 HAL        -0.9330    2.8590    2.8540 hc        1 D2B      0.076667
     42 HALA        0.2590    1.8000    2.9020 hc        1 D2B      0.076667
     43 HALB       -1.1990    1.3940    3.4310 hc        1 D2B      0.076667
     44 HAY        -0.7870    2.1160    0.7280 ha        1 D2B      0.105000
@<TRIPOS>BOND
     1    1    6 1   
     2    2    3 1   
     3    2    9 1   
     4    4    5 1   
     5    6   10 1   
     6    7   18 1   
     7    7   25 1   
     8    7   26 1   
     9    7   27 1   
    10    8   24 1   
    11    8   28 1   
    12    8   29 1   
    13    8   30 1   
    14    9   31 1   
    15    9   32 1   
    16   10   33 1   
    17   10   34 1   
    18   11   20 1   
    19   11   35 1   
    20   12   14 1   
    21   12   36 1   
    22   13   15 1   
    23   13   37 1   
    24   14   38 1   
    25   15   39 1   
    26   16   19 1   
    27   16   21 1   
    28   17   24 1   
    29   17   41 1   
    30   17   42 1   
    31   17   43 1   
    32   18   22 1   
    33   20   23 1   
    34   22   23 1   
    35   24   44 1   
@<TRIPOS>SUBSTRUCTURE
     1 D2B         1 TEMP              0 ****  ****    0 ROOT
