@<TRIPOS>MOLECULE
D2B
   44    45     1     0     0
SMALL
bcc


@<TRIPOS>ATOM
      1 N1          0.0390   -0.3480   -0.0700 n2        1 D2B     -0.310000
      2 C2          1.2800    0.2700   -0.1430 c2        1 D2B      0.189000
      3 N3          1.9880    0.8600    0.9060 n2        1 D2B     -0.239000
      4 C4          1.2970    0.8380    2.0620 c2        1 D2B      0.141000
      5 C5         -0.0050    0.2700    2.2710 c2        1 D2B     -0.288000
      6 C6         -0.6020   -0.3580    1.1410 c2        1 D2B      0.242000
      7 CAB        -0.9090   -4.5590    6.1560 c3        1 D2B     -0.086000
      8 CAC        -3.8980   -1.5920    5.3480 c3        1 D2B     -0.177000
      9 NAD         1.8590    0.3590   -1.4150 nv        1 D2B     -0.324000
     10 NAE        -1.8010   -1.0320    1.2690 nv        1 D2B     -0.355000
     11 CAG         1.6520   -1.8210    7.9230 c2        1 D2B     -0.075000
     12 CAH         1.4960   -0.3740    7.6680 c3        1 D2B     -0.202000
     13 CAI         0.7980   -2.7200    7.3870 c2        1 D2B     -0.240000
     14 CAJ         0.3720    0.0380    6.8350 c1        1 D2B     -0.130000
     15 CAK         0.7600    1.1510    4.2120 c2        1 D2B     -0.062000
     16 CAL        -3.3710   -0.1090    7.2600 c2        1 D2B     -0.213000
     17 OAP         1.7730    1.3790    3.2600 os        1 D2B     -0.099000
     18 CAQ        -1.6670   -0.4620    5.5270 c2        1 D2B      0.023000
     19 CAS        -0.3220    0.4920    3.6690 c2        1 D2B     -0.065000
     20 CAU        -0.3060   -2.2770    6.5620 c2        1 D2B      0.207000
     21 CAV        -0.5230   -0.9170    6.3250 c2        1 D2B     -0.178000
     22 CAY        -3.0020   -0.6880    6.1120 c2        1 D2B     -0.079000
     23 HAB         0.0950   -4.8290    5.7500 h1        1 D2B      0.093333
     24 HABA       -1.7220   -5.0390    5.5510 h1        1 D2B      0.093333
     25 HABB       -0.9980   -4.8450    7.2310 h1        1 D2B      0.093333
     26 HAC        -4.9000   -1.6800    5.8340 hc        1 D2B      0.080000
     27 HACA       -4.0390   -1.2090    4.3060 hc        1 D2B      0.080000
     28 HACB       -3.4370   -2.6110    5.2870 hc        1 D2B      0.080000
     29 HNAD        1.5220   -0.2750   -2.1010 hn        1 D2B      0.220500
     30 HNAA        2.8320    0.5600   -1.4440 hn        1 D2B      0.220500
     31 HNAE       -2.2920   -1.3110    0.4550 hn        1 D2B      0.228500
     32 HNAB       -2.3180   -0.8730    2.1000 hn        1 D2B      0.228500
     33 HAF        -2.4670    0.4580    3.7940 ha        1 D2B      0.121000
     34 HAG         0.9220   -3.7970    7.5740 ha        1 D2B      0.141000
     35 HAH         2.4370    0.0230    7.1810 hc        1 D2B      0.161000
     36 HAI         2.4880   -2.1420    8.5650 ha        1 D2B      0.133000
     37 HAJ         1.3990    0.1770    8.6520 hc        1 D2B      0.161000
     38 HAK         0.9890    1.5250    5.2130 h4        1 D2B      0.230000
     39 HAL        -0.6580    1.5280    8.4360 ha        1 D2B      0.000500
     40 HALA       -0.9750    1.7240    9.0020 ha        1 D2B      0.000500
     41 HALB       -2.7000    0.5550    7.8220 ha        1 D2B      0.117500
     42 HAY        -4.3650   -0.2630    7.6990 ha        1 D2B      0.117500
     43 CAF        -1.5510    0.1480    4.3310 c2        1 D2B     -0.098000
     44 OAO        -1.1650   -3.1650    5.9850 os        1 D2B     -0.183000
@<TRIPOS>BOND
     1    1    2 1   
     2    1    6 1   
     3    2    3 1   
     4    2    9 1   
     5    3    4 1   
     6    4    5 1   
     7    4   17 1   
     8    5    6 1   
     9    5   19 1   
    10    6   10 1   
    11    7   23 1   
    12    7   24 1   
    13    7   25 1   
    14    7   44 1   
    15    8   22 1   
    16    8   26 1   
    17    8   27 1   
    18    8   28 1   
    19    9   29 1   
    20    9   30 1   
    21   10   31 1   
    22   10   32 1   
    23   11   12 1   
    24   11   13 1   
    25   11   36 1   
    26   12   14 1   
    27   12   35 1   
    28   12   37 1   
    29   13   20 1   
    30   13   34 1   
    31   14   21 1   
    32   15   17 1   
    33   15   19 1   
    34   15   38 1   
    35   16   22 1   
    36   16   41 1   
    37   16   42 1   
    38   18   21 1   
    39   18   22 1   
    40   18   43 1   
    41   19   43 1   
    42   20   21 1   
    43   20   44 1   
    44   33   43 1   
    45   39   40 1   
@<TRIPOS>SUBSTRUCTURE
     1 D2B         1 TEMP              0 ****  ****    0 ROOT
