@<TRIPOS>MOLECULE
D2D
   47    49     1     0     0
SMALL
bcc


@<TRIPOS>ATOM
      1 N1         -4.2330    1.7980    0.0400 nb        1 D2D     -0.836000
      2 C2         -5.0930    0.7210   -0.1290 ca        1 D2D      0.917900
      3 N3         -4.7350   -0.6140   -0.3320 nb        1 D2D     -0.764000
      4 C4         -3.4010   -0.7890   -0.3250 ca        1 D2D      0.646600
      5 C5         -2.4000    0.2280   -0.1630 ca        1 D2D     -0.435400
      6 C6         -2.8840    1.5550    0.0240 ca        1 D2D      0.763200
      7 CAA         1.4080   -4.0390    0.9310 c3        1 D2D     -0.093100
      8 CAB         3.0940    1.0310   -3.1070 c3        1 D2D      0.111700
      9 NAC        -6.4590    0.9910   -0.0220 nh        1 D2D     -0.930500
     10 NAD        -2.0030    2.6150    0.1380 nh        1 D2D     -0.945500
     11 CAF         4.8250    2.1170    0.5440 ca        1 D2D     -0.093000
     12 CAG         4.2520    1.6560    1.7270 ca        1 D2D     -0.164000
     13 CAH         4.2430    1.8080   -0.6840 ca        1 D2D     -0.205000
     14 CAI         3.0970    0.8770    1.6850 ca        1 D2D     -0.093000
     15 CAJ        -1.4010   -1.7870   -0.4170 cc        1 D2D     -0.040900
     16 CAL         1.3130   -1.5630    1.1980 c3        1 D2D     -0.045200
     17 OAP        -2.7860   -2.0360   -0.4820 os        1 D2D     -0.306400
     18 CAQ         1.2690   -0.2700    0.4560 ce        1 D2D     -0.033400
     19 CAS        -1.1180   -0.4500   -0.2340 cd        1 D2D     -0.036200
     20 CAU         3.0780    1.0310   -0.7230 ca        1 D2D      0.131100
     21 CAV         2.4910    0.5430    0.4690 ca        1 D2D     -0.081800
     22 HAA         0.2930   -4.1160    0.9240 hc        1 D2D      0.035367
     23 HAAA        1.8260   -4.8830    0.3320 hc        1 D2D      0.035367
     24 HAAB        1.7610   -4.1440    1.9850 hc        1 D2D      0.035367
     25 HAB         4.1060    0.5610   -3.1430 h1        1 D2D      0.045700
     26 HABA        2.4280    0.5960   -3.8950 h1        1 D2D      0.045700
     27 HABB        3.1700    2.1390   -3.2260 h1        1 D2D      0.045700
     28 HNAC       -6.7420    1.9370   -0.1240 hn        1 D2D      0.431300
     29 HNAA       -7.0830    0.2960   -0.3590 hn        1 D2D      0.431300
     30 HNAD       -2.3550    3.4960    0.4300 hn        1 D2D      0.430300
     31 HNAB       -1.0750    2.3860    0.4070 hn        1 D2D      0.430300
     32 HAE         0.2340    1.1440   -0.7300 ha        1 D2D      0.141000
     33 HAF         5.7390    2.7290    0.5740 ha        1 D2D      0.134000
     34 HAG         4.7090    1.9050    2.6950 ha        1 D2D      0.135000
     35 HAH         4.7020    2.1800   -1.6100 ha        1 D2D      0.139000
     36 HAI         2.6490    0.5210    2.6260 ha        1 D2D      0.138000
     37 HAJ        -0.7990   -2.6860   -0.5330 h4        1 D2D      0.199000
     38 C19         3.3650   -2.6660    0.2560 c3        1 D2D     -0.093100
     39 HAK         1.4330   -2.6170   -0.6910 hc        1 D2D      0.051700
     40 HAL         0.2730   -1.8240    1.5400 hc        1 D2D      0.052200
     41 HALA        1.9500   -1.4590    2.1170 hc        1 D2D      0.052200
     42 H20         3.8280   -2.8240    1.2600 hc        1 D2D      0.035367
     43 H21         3.7340   -3.4640   -0.4320 hc        1 D2D      0.035367
     44 H22         3.6950   -1.6720   -0.1350 hc        1 D2D      0.035367
     45 CAE         0.1680    0.1890   -0.1740 cf        1 D2D     -0.103000
     46 OAO         2.4230    0.7040   -1.8950 os        1 D2D     -0.322900
     47 CAK         1.8550   -2.7120    0.3500 c3        1 D2D     -0.063700
@<TRIPOS>BOND
     1    1    2 ar  
     2    1    6 ar  
     3    2    3 ar  
     4    2    9 1   
     5    3    4 ar  
     6    4    5 ar  
     7    4   17 1   
     8    5    6 ar  
     9    5   19 1   
    10    6   10 1   
    11    7   22 1   
    12    7   23 1   
    13    7   24 1   
    14    7   47 1   
    15    8   25 1   
    16    8   26 1   
    17    8   27 1   
    18    8   46 1   
    19    9   28 1   
    20    9   29 1   
    21   10   30 1   
    22   10   31 1   
    23   11   12 ar  
    24   11   13 ar  
    25   11   33 1   
    26   12   14 ar  
    27   12   34 1   
    28   13   20 ar  
    29   13   35 1   
    30   14   21 ar  
    31   14   36 1   
    32   15   17 1   
    33   15   19 2   
    34   15   37 1   
    35   16   18 1   
    36   16   40 1   
    37   16   41 1   
    38   16   47 1   
    39   18   21 1   
    40   18   45 2   
    41   19   45 1   
    42   20   21 ar  
    43   20   46 1   
    44   32   45 1   
    45   38   42 1   
    46   38   43 1   
    47   38   44 1   
    48   38   47 1   
    49   39   47 1   
@<TRIPOS>SUBSTRUCTURE
     1 D2D         1 TEMP              0 ****  ****    0 ROOT
