@<TRIPOS>MOLECULE
D2D
   47    49     1     0     0
SMALL
bcc


@<TRIPOS>ATOM
      1 N1          0.3390   -0.4930   -0.3190 nb        1 D2D     -0.832000
      2 C2          1.7010   -0.5810   -0.0580 ca        1 D2D      0.915900
      3 N3          2.3240   -0.4930    1.1890 nb        1 D2D     -0.762000
      4 C4          1.4390   -0.3360    2.1910 ca        1 D2D      0.644600
      5 C5          0.0120   -0.2330    2.0650 ca        1 D2D     -0.432400
      6 C6         -0.5090   -0.3180    0.7430 ca        1 D2D      0.756200
      7 CAA         1.7060    0.5930    7.6310 cx        1 D2D     -0.086000
      8 CAB        -2.3830    2.4840    9.9370 c3        1 D2D     -0.122800
      9 NAC         2.5290   -0.8460   -1.1520 nv        1 D2D     -0.930500
     10 NAD        -1.8680   -0.1660    0.5160 nv        1 D2D     -0.940500
     11 CAF        -6.0920   -0.9890    7.5330 cc        1 D2D      0.016000
     12 CAG        -5.5480   -1.3220    6.2480 cc        1 D2D     -0.170000
     13 CAH        -5.2080   -0.1120    7.0720 cd        1 D2D     -0.239300
     14 CAI        -4.8680   -1.3830    5.1120 c2        1 D2D     -0.174200
     15 CAJ         0.5950   -0.0860    4.2470 cc        1 D2D     -0.036900
     16 CAL        -1.9440   -1.5230    5.6280 c3        1 D2D     -0.069900
     17 OAP         1.8010   -0.2460    3.5380 os        1 D2D     -0.305400
     18 CAQ        -2.5450   -0.4850    4.7600 c2        1 D2D     -0.063400
     19 CAS        -0.5020   -0.0690    3.4120 cd        1 D2D     -0.040200
     20 CAU        -4.2100    0.7050    6.3560 c3        1 D2D      0.260400
     21 CAV        -3.9740   -0.1410    5.0190 c3        1 D2D      0.007700
     22 HAA         2.1030   -0.4390    7.6750 hc        1 D2D      0.054200
     23 HAAA        2.3060    1.2260    6.9500 hc        1 D2D      0.054200
     24 HAAB        1.1920    1.5970    9.7920 ha        1 D2D      0.195500
     25 HAB        -2.8780    3.2510    9.3020 hc        1 D2D      0.031200
     26 HABA       -3.1230    1.7040   10.2240 hc        1 D2D      0.031200
     27 HABB       -3.1980    1.3610    7.8610 ho        1 D2D      0.415000
     28 HNAC        3.5010   -0.6870   -1.0290 hn        1 D2D      0.431300
     29 HNAA        2.1560   -0.6660   -2.0540 hn        1 D2D      0.431300
     30 HNAD       -2.2240   -0.4090   -0.3790 hn        1 D2D      0.425800
     31 HNAB       -2.4540   -0.3540    1.2960 hn        1 D2D      0.425800
     32 HAE        -2.3970    0.8940    3.1460 ha        1 D2D      0.128000
     33 HAF        -6.7710   -1.3110    8.2990 ha        1 D2D      0.205000
     34 HAG        -4.8710   -2.1300    4.3230 ha        1 D2D      0.161000
     35 HAH        -4.6390    1.7100    6.0880 h1        1 D2D      0.059700
     36 HAI        -4.3690    0.5020    4.1830 hc        1 D2D      0.058700
     37 HAJ         0.7400    0.0150    5.3230 h4        1 D2D      0.206000
     38 C19         0.2490    0.8490    7.8120 cu        1 D2D     -0.205700
     39 HAK        -0.7160    0.7650    7.3500 ha        1 D2D      0.195500
     40 HAL        -2.6270   -2.4060    5.7080 hc        1 D2D      0.054033
     41 HALA       -0.9580   -1.8680    5.2300 hc        1 D2D      0.054033
     42 H20        -1.5460    2.0140    9.3710 hc        1 D2D      0.031200
     43 H21        -1.7880   -1.1060    6.6570 hc        1 D2D      0.054033
     44 H22        -1.9830    2.9680   10.8540 hc        1 D2D      0.031200
     45 CAE        -1.8820    0.1350    3.7640 cf        1 D2D     -0.133000
     46 OAO        -2.9960    0.8690    7.0520 oh        1 D2D     -0.585800
     47 CAK         1.0330    1.1910    8.8160 cu        1 D2D     -0.205700
@<TRIPOS>BOND
     1    1    2 ar  
     2    1    6 ar  
     3    2    3 ar  
     4    2    9 1   
     5    3    4 ar  
     6    4    5 ar  
     7    4   17 1   
     8    5    6 ar  
     9    5   19 1   
    10    6   10 1   
    11    7   22 1   
    12    7   23 1   
    13    7   38 1   
    14    7   47 1   
    15    8   25 1   
    16    8   26 1   
    17    8   42 1   
    18    8   44 1   
    19    9   28 1   
    20    9   29 1   
    21   10   30 1   
    22   10   31 1   
    23   11   12 1   
    24   11   13 2   
    25   11   33 1   
    26   12   13 1   
    27   12   14 2   
    28   13   20 1   
    29   14   21 1   
    30   14   34 1   
    31   15   17 1   
    32   15   19 2   
    33   15   37 1   
    34   16   18 1   
    35   16   40 1   
    36   16   41 1   
    37   16   43 1   
    38   18   21 1   
    39   18   45 2   
    40   19   45 1   
    41   20   21 1   
    42   20   35 1   
    43   20   46 1   
    44   21   36 1   
    45   24   47 1   
    46   27   46 1   
    47   32   45 1   
    48   38   39 1   
    49   38   47 2   
@<TRIPOS>SUBSTRUCTURE
     1 D2D         1 TEMP              0 ****  ****    0 ROOT
