@<TRIPOS>MOLECULE
D2E
   44    45     1     0     0
SMALL
bcc


@<TRIPOS>ATOM
      1 N1          0.5500   -0.3980    0.6620 nb        1 D2E     -0.663000
      2 C2          1.7800    0.1870    0.5130 ca        1 D2E      0.712900
      3 N3          2.4260    1.0740    1.3560 nb        1 D2E     -0.575000
      4 C4          1.6970    1.3650    2.4450 ca        1 D2E      0.614600
      5 C5          0.3690    0.8260    2.7370 ca        1 D2E     -0.229400
      6 C6         -0.1500   -0.0690    1.7880 ca        1 D2E      0.554200
      7 CAA        -6.7440    3.0760    7.0120 c3        1 D2E     -0.071900
      8 NAB         2.5350   -0.1710   -0.7230 n4        1 D2E     -0.810300
      9 NAC        -1.4740   -0.6680    2.0050 n4        1 D2E     -0.831300
     10 CAE        -5.9250    0.9810    6.0050 c1        1 D2E      0.031200
     11 CAF        -6.5030    1.6190    6.9840 c2        1 D2E     -0.139300
     12 CAG        -5.4400    0.3330    4.9780 ce        1 D2E     -0.289300
     13 CAH        -3.4130   -0.2220    7.1250 c2        1 D2E     -0.048000
     14 CAI         1.0080    2.2350    4.3860 cc        1 D2E      0.119100
     15 CAJ        -0.6920   -2.0780    5.6100 c3        1 D2E     -0.047900
     16 CAK         0.1730   -0.2670    7.0590 c2        1 D2E     -0.156000
     17 OAO         2.0740    2.2240    3.4700 os        1 D2E     -0.236400
     18 CAP        -1.6440    0.2310    5.4800 ce        1 D2E      0.075000
     19 CAR        -0.0350    1.4120    3.9910 cd        1 D2E     -0.066200
     20 CAT        -4.0290    0.0390    4.7360 c         1 D2E      0.646500
     21 CAU        -3.0530    0.0200    5.8540 ce        1 D2E     -0.233200
     22 CAX        -0.6580   -0.6730    6.0920 ce        1 D2E     -0.156200
     23 HAA        -6.2660    3.5220    7.9210 hc        1 D2E      0.068700
     24 HAAA       -6.3420    3.5910    6.1060 hc        1 D2E      0.068700
     25 HAAB       -7.8470    3.2670    7.0690 hc        1 D2E      0.068700
     26 HNAB        2.6990    0.6840   -1.2770 hn        1 D2E      0.497800
     27 HNAA        2.0040   -0.8500   -1.2880 hn        1 D2E      0.497800
     28 HNAC       -2.1810   -0.2110    1.4070 hn        1 D2E      0.501133
     29 HNAD       -1.4680   -1.6750    1.8030 hn        1 D2E      0.501133
     30 HAD        -2.1180    1.8760    4.2150 ha        1 D2E      0.170000
     31 HAE        -4.4600   -0.3950    7.4210 ha        1 D2E      0.151000
     32 HAF        -2.6740   -0.2620    7.9410 ha        1 D2E      0.151000
     33 HAG        -6.1200   -0.0140    4.1720 ha        1 D2E      0.180000
     34 HAH        -6.8580    1.0560    7.8720 ha        1 D2E      0.171000
     35 HAI         1.1910    2.8940    5.2450 h4        1 D2E      0.258000
     36 HAJ        -1.6420   -2.5750    5.9340 hc        1 D2E      0.046033
     37 HAJA       -0.6450   -2.1110    4.4920 hc        1 D2E      0.046033
     38 HAK         0.1780    0.7600    7.4480 ha        1 D2E      0.139000
     39 HAKA        0.1680   -2.6650    6.0170 hc        1 D2E      0.046033
     40 HAX         0.8860   -0.9530    7.5400 ha        1 D2E      0.139000
     41 CAD        -1.3290    1.1890    4.5820 cf        1 D2E     -0.216000
     42 HAB3        3.4450   -0.5810   -0.4570 hn        1 D2E      0.497800
     43 HAC3       -1.7700   -0.5150    3.0070 hn        1 D2E      0.501133
     44 OAN        -3.6400   -0.2180    3.5720 o         1 D2E     -0.685100
@<TRIPOS>BOND
     1    1    2 ar  
     2    1    6 ar  
     3    2    3 ar  
     4    2    8 1   
     5    3    4 ar  
     6    4    5 ar  
     7    4   17 1   
     8    5    6 ar  
     9    5   19 1   
    10    6    9 1   
    11    7   11 1   
    12    7   23 1   
    13    7   24 1   
    14    7   25 1   
    15    8   26 1   
    16    8   27 1   
    17    8   42 1   
    18    9   28 1   
    19    9   29 1   
    20    9   43 1   
    21   10   11 2   
    22   10   12 2   
    23   11   34 1   
    24   12   20 1   
    25   12   33 1   
    26   13   21 2   
    27   13   31 1   
    28   13   32 1   
    29   14   17 1   
    30   14   19 2   
    31   14   35 1   
    32   15   22 1   
    33   15   36 1   
    34   15   37 1   
    35   15   39 1   
    36   16   22 2   
    37   16   38 1   
    38   16   40 1   
    39   18   21 1   
    40   18   22 1   
    41   18   41 2   
    42   19   41 1   
    43   20   21 1   
    44   20   44 2   
    45   30   41 1   
@<TRIPOS>SUBSTRUCTURE
     1 D2E         1 TEMP              0 ****  ****    0 ROOT
