@<TRIPOS>MOLECULE
D2E
   42    34     1     0     0
SMALL
bcc


@<TRIPOS>ATOM
      1 N1          2.8190   -3.8110   -1.4270 n1        1 D2E     -0.601800
      2 C2          2.5650   -4.7950   -0.5070 c1        1 D2E      0.606600
      3 N3          1.7930   -4.5250    0.5920 n1        1 D2E     -0.601800
      4 C4          1.2740   -3.2750    0.7720 c1        1 D2E     -0.074500
      5 C5          1.5250   -2.2970   -0.1410 c1        1 D2E     -0.074500
      6 C6          2.3070   -2.5730   -1.2520 c1        1 D2E      0.606600
      7 CAA        -2.1930    3.1150    3.1800 c3        1 D2E      0.112700
      8 NAB         3.0980   -6.1120   -0.7020 n3        1 D2E     -0.807900
      9 NAC         2.6720   -2.6790   -2.6290 n3        1 D2E     -0.807900
     10 CAD        -0.5520   -0.7670   -0.1590 c1        1 D2E     -0.056500
     11 CAE         0.6800    4.2980    0.5150 c1        1 D2E     -0.078000
     12 CAF         1.3730    3.3550   -0.2400 c1        1 D2E     -0.078000
     13 CAG        -0.3960    3.9030    1.3040 c1        1 D2E     -0.078000
     14 CAH         0.9880    2.0130   -0.2060 c1        1 D2E     -0.078000
     15 CAI         0.2340   -1.4140    1.4700 c1        1 D2E      0.183900
     16 CAJ        -3.0900    0.3410   -1.7810 cx        1 D2E     -0.126400
     17 CAK        -2.7380    1.8140   -1.7030 cx        1 D2E     -0.126400
     18 OAN        -1.8270    2.1410    2.2170 os        1 D2E     -0.312400
     19 OAO         0.4690   -2.7300    1.7790 o         1 D2E     -0.345900
     20 CAP        -1.0100    0.5330   -0.0200 c1        1 D2E      0.027900
     21 CAR         0.8800   -1.1320    0.2860 c1        1 D2E     -0.055000
     22 CAT        -0.7820    2.5600    1.3380 c1        1 D2E      0.116600
     23 CAU        -0.0880    1.6170    0.5820 c1        1 D2E     -0.071000
     24 CAX        -2.4880    0.9100   -0.4790 cx        1 D2E     -0.122600
     25 HAA        -3.1680    3.1440    3.2600 h1        1 D2E      0.045033
     26 HAAA       -1.7990    2.8810    4.0490 h1        1 D2E      0.045033
     27 HAAB       -1.8610    3.9950    2.8970 h1        1 D2E      0.045033
     28 HNAB        3.6590   -6.4780   -0.0740 hn        1 D2E      0.433300
     29 HNAA        2.8700   -6.5940   -1.4550 hn        1 D2E      0.433300
     30 HNAC        2.0410   -2.9280   -3.2550 hn        1 D2E      0.433300
     31 HNAD        3.5310   -2.5090   -2.8880 hn        1 D2E      0.433300
     32 HAD        -1.1360   -1.4540   -0.5410 ha        1 D2E      0.069500
     33 HAE         0.9530    5.2470    0.4910 ha        1 D2E      0.080000
     34 HAF         2.1300    3.6330   -0.7940 ha        1 D2E      0.080000
     35 HAG        -0.8850    4.5680    1.8360 ha        1 D2E      0.080000
     36 HAH         1.4770    1.3490   -0.7380 ha        1 D2E      0.080000
     37 HAI        -0.2880   -0.7830    2.0050 DU        1 D2E      0.199000
     38 HAJ        -2.4870   -0.2120   -2.3220 hc        1 D2E      0.069450
     39 HAJA       -4.0500    0.1300   -1.7490 hc        1 D2E      0.069450
     40 HAK        -3.5010    2.4310   -1.6280 hc        1 D2E      0.069450
     41 HAKA       -1.9370    2.0880   -2.2010 hc        1 D2E      0.069450
     42 HAX        -3.0640    1.0050    0.3180 hc        1 D2E      0.106700
@<TRIPOS>BOND
     1    1    6 3   
     2    2    3 3   
     3    2    8 1   
     4    4    5 1   
     5    6    9 1   
     6    7   18 1   
     7    7   25 1   
     8    7   26 1   
     9    7   27 1   
    10    8   28 1   
    11    8   29 1   
    12    9   30 1   
    13    9   31 1   
    14   10   20 3   
    15   10   32 1   
    16   11   13 3   
    17   11   33 1   
    18   12   14 3   
    19   12   34 1   
    20   13   35 1   
    21   14   36 1   
    22   15   19 1   
    23   15   21 3   
    24   16   17 1   
    25   16   24 1   
    26   16   38 1   
    27   16   39 1   
    28   17   24 1   
    29   17   40 1   
    30   17   41 1   
    31   18   22 1   
    32   20   24 1   
    33   22   23 3   
    34   24   42 1   
@<TRIPOS>SUBSTRUCTURE
     1 D2E         1 TEMP              0 ****  ****    0 ROOT
