@<TRIPOS>MOLECULE
D2E
   42    45     1     0     0
SMALL
bcc


@<TRIPOS>ATOM
      1 N1         -3.6440   -1.7650    0.4120 nb        1 D2E     -0.839000
      2 C2         -4.6710   -0.8320    0.3500 ca        1 D2E      0.917900
      3 N3         -4.5660    0.5140   -0.0130 nb        1 D2E     -0.766000
      4 C4         -3.2970    0.8670   -0.2900 ca        1 D2E      0.647600
      5 C5         -2.1470    0.0100   -0.2680 ca        1 D2E     -0.439400
      6 C6         -2.3750   -1.3460    0.1050 ca        1 D2E      0.769200
      7 CAA         2.0820   -3.0540    1.1070 c3        1 D2E      0.112700
      8 NAB        -5.9350   -1.2700    0.7520 nh        1 D2E     -0.930500
      9 NAC        -1.3330   -2.2510    0.1110 nh        1 D2E     -0.951500
     10 CAE         5.2030   -1.0610   -0.8410 ca        1 D2E     -0.094000
     11 CAF         5.0220    0.2700   -1.2090 ca        1 D2E     -0.159000
     12 CAG         4.1550   -1.7780   -0.2660 ca        1 D2E     -0.198000
     13 CAH         3.7940    0.8930   -0.9940 ca        1 D2E     -0.093000
     14 CAI        -1.5150    2.1030   -0.8470 cc        1 D2E     -0.038900
     15 CAJ         1.8620    3.3830    0.3180 cx        1 D2E     -0.126400
     16 CAK         2.5590    2.6110    1.3950 cx        1 D2E     -0.126400
     17 OAO        -2.9100    2.1630   -0.6510 os        1 D2E     -0.307400
     18 CAP         1.4310    0.8630   -0.1920 ce        1 D2E     -0.007400
     19 CAR        -1.0150    0.8380   -0.6370 cd        1 D2E     -0.039200
     20 CAT         2.9200   -1.1520   -0.0590 ca        1 D2E      0.131100
     21 CAU         2.7250    0.2050   -0.4090 ca        1 D2E     -0.072800
     22 CAX         1.3520    2.0180    0.7170 cx        1 D2E     -0.091500
     23 HAA         2.3710   -3.8290    0.3550 h1        1 D2E      0.045367
     24 HAAA        2.8760   -2.9430    1.8840 h1        1 D2E      0.045367
     25 HAAB        1.1000   -3.3140    1.5790 h1        1 D2E      0.045367
     26 HNAB       -6.0880   -2.2510    0.7720 hn        1 D2E      0.430300
     27 HNAA       -6.7090   -0.7010    0.5010 hn        1 D2E      0.430300
     28 HNAC       -1.4740   -3.1420    0.5230 hn        1 D2E      0.437800
     29 HNAD       -0.4110   -1.8750    0.1290 hn        1 D2E      0.437800
     30 HAD         0.4300   -0.5360   -1.4370 ha        1 D2E      0.142000
     31 HAE         6.1720   -1.5540   -1.0060 ha        1 D2E      0.135000
     32 HAF         5.8470    0.8320   -1.6700 ha        1 D2E      0.137000
     33 HAG         4.3070   -2.8290    0.0150 ha        1 D2E      0.138000
     34 HAH         3.6560    1.9450   -1.2890 ha        1 D2E      0.140000
     35 HAI        -1.0840    3.0580   -1.1370 h4        1 D2E      0.196000
     36 HAJ         1.2580    4.2670    0.5910 hc        1 D2E      0.072700
     37 HAJA        2.3560    3.5130   -0.6610 hc        1 D2E      0.072700
     38 HAK         3.5570    2.1840    1.1890 hc        1 D2E      0.072700
     39 HAKA        2.4610    2.9410    2.4450 hc        1 D2E      0.072700
     40 HAX         0.4060    1.9980    1.3040 hc        1 D2E      0.093700
     41 CAD         0.3310    0.3550   -0.7870 cf        1 D2E     -0.100000
     42 OAN         1.8190   -1.8120    0.4610 os        1 D2E     -0.342900
@<TRIPOS>BOND
     1    1    2 ar  
     2    1    6 ar  
     3    2    3 ar  
     4    2    8 1   
     5    3    4 ar  
     6    4    5 ar  
     7    4   17 1   
     8    5    6 ar  
     9    5   19 1   
    10    6    9 1   
    11    7   23 1   
    12    7   24 1   
    13    7   25 1   
    14    7   42 1   
    15    8   26 1   
    16    8   27 1   
    17    9   28 1   
    18    9   29 1   
    19   10   11 ar  
    20   10   12 ar  
    21   10   31 1   
    22   11   13 ar  
    23   11   32 1   
    24   12   20 ar  
    25   12   33 1   
    26   13   21 ar  
    27   13   34 1   
    28   14   17 1   
    29   14   19 2   
    30   14   35 1   
    31   15   16 1   
    32   15   22 1   
    33   15   36 1   
    34   15   37 1   
    35   16   22 1   
    36   16   38 1   
    37   16   39 1   
    38   18   21 1   
    39   18   22 1   
    40   18   41 2   
    41   19   41 1   
    42   20   21 ar  
    43   20   42 1   
    44   22   40 1   
    45   30   41 1   
@<TRIPOS>SUBSTRUCTURE
     1 D2E         1 TEMP              0 ****  ****    0 ROOT
