@<TRIPOS>MOLECULE
D2F
   47    39     1     0     0
SMALL
bcc


@<TRIPOS>ATOM
      1 N1          2.1590   -0.9520   -4.4790 n1        1 D2F     -0.277000
      2 C2          3.5330   -1.0070   -4.5010 c1        1 D2F      0.225000
      3 N3          4.2420   -0.9800   -3.3250 n1        1 D2F     -0.277000
      4 C4          3.5820   -0.8980   -2.1290 c1        1 D2F     -0.074000
      5 C5          2.2200   -0.8430   -2.1050 c1        1 D2F     -0.074000
      6 C6          1.5030   -0.8700   -3.3000 c1        1 D2F      0.225000
      7 CAA        -4.3360   -1.0410   -0.1840 c3        1 D2F     -0.210000
      8 CAB        -2.9610    2.9270    1.8730 c3        1 D2F     -0.077000
      9 NAC         4.2270   -1.0710   -5.7540 n3        1 D2F     -0.339500
     10 NAD         0.3990   -1.3290   -4.0910 n3        1 D2F     -0.339500
     11 CAE         1.3870    0.1640    0.3720 c1        1 D2F     -0.105000
     12 CAF         0.4420    2.5860    4.2850 c1        1 D2F     -0.135750
     13 CAG         1.0430    1.3360    4.2350 c1        1 D2F     -0.135750
     14 CAH        -0.4750    2.9590    3.3040 c1        1 D2F     -0.135750
     15 CAI         0.7290    0.4550    3.2050 c1        1 D2F     -0.135750
     16 CAJ         2.9480   -0.7720    0.0190 c1        1 D2F     -0.091000
     17 CAK        -2.9890   -1.7620   -0.0440 c3        1 D2F     -0.159000
     18 CAL        -2.1180   -1.0250    0.9870 c3        1 D2F     -0.153000
     19 CAM        -0.6250   -1.3400    0.7210 c3        1 D2F     -0.128000
     20 OAP        -1.7630    2.4290    1.3150 os        1 D2F     -0.226000
     21 OAQ         4.0400   -0.8540   -0.8070 o         1 D2F     -0.092000
     22 CAR         0.2380   -0.1010    1.0790 c2        1 D2F     -0.042000
     23 CAT         1.8160   -0.7640   -0.7710 c1        1 D2F     -0.046000
     24 CAV        -0.7900    2.0760    2.2730 c1        1 D2F      0.086000
     25 CAW        -0.1900    0.8270    2.2230 c1        1 D2F     -0.064000
     26 HAA        -4.8580   -1.4570   -0.9090 hc        1 D2F      0.072000
     27 HAAA       -4.8360   -1.1110    0.6620 hc        1 D2F      0.072000
     28 HAAB       -4.1800   -0.0900   -0.3950 hc        1 D2F      0.072000
     29 HAB        -2.8260    3.8510    2.1620 h1        1 D2F      0.084667
     30 HABA       -3.2150    2.3770    2.6440 h1        1 D2F      0.084667
     31 HABB       -3.6760    2.8950    1.1980 h1        1 D2F      0.084667
     32 HNAC        5.1170   -0.8460   -5.7990 hn        1 D2F      0.229750
     33 HNAA        3.7760   -1.3200   -6.5180 hn        1 D2F      0.229750
     34 HNAD        0.4640   -1.3410   -5.0070 hn        1 D2F      0.229750
     35 HNAB       -0.3850   -1.5740   -3.6840 hn        1 D2F      0.229750
     36 HAE         1.9360    0.9530    0.6000 ha        1 D2F      0.144000
     37 HAF         0.6640    3.2080    5.0120 ha        1 D2F      0.137000
     38 HAG         1.6880    1.0740    4.9250 ha        1 D2F      0.137000
     39 HAH        -0.8990    3.8420    3.3400 ha        1 D2F      0.137000
     40 HAI         1.1520   -0.4250    3.1700 ha        1 D2F      0.137000
     41 HAJ         2.9700   -0.6780    0.9940 DU        1 D2F      0.194000
     42 HAK        -3.1420   -2.6890    0.2570 hc        1 D2F      0.078500
     43 HAKA       -2.5330   -1.7710   -0.9090 hc        1 D2F      0.078500
     44 HAL        -2.2670   -0.0610    0.9110 hc        1 D2F      0.085000
     45 HALA       -2.3600   -1.3230    1.8950 hc        1 D2F      0.085000
     46 HAM        -0.3490   -2.1020    1.2740 hc        1 D2F      0.090000
     47 HAMA       -0.5020   -1.5610   -0.2260 hc        1 D2F      0.090000
@<TRIPOS>BOND
     1    1    6 1   
     2    2    3 1   
     3    2    9 1   
     4    4    5 1   
     5    6   10 1   
     6    7   17 1   
     7    7   26 1   
     8    7   27 1   
     9    7   28 1   
    10    8   20 1   
    11    8   29 1   
    12    8   30 1   
    13    8   31 1   
    14    9   32 1   
    15    9   33 1   
    16   10   34 1   
    17   10   35 1   
    18   11   22 1   
    19   11   36 1   
    20   12   14 1   
    21   12   37 1   
    22   13   15 1   
    23   13   38 1   
    24   14   39 1   
    25   15   40 1   
    26   16   21 1   
    27   16   23 1   
    28   17   18 1   
    29   17   42 1   
    30   17   43 1   
    31   18   19 1   
    32   18   44 1   
    33   18   45 1   
    34   19   22 1   
    35   19   46 1   
    36   19   47 1   
    37   20   24 1   
    38   22   25 1   
    39   24   25 1   
@<TRIPOS>SUBSTRUCTURE
     1 D2F         1 TEMP              0 ****  ****    0 ROOT
