@<TRIPOS>MOLECULE
D2F
   47    46     1     0     0
SMALL
bcc


@<TRIPOS>ATOM
      1 N1          0.3110   -0.2860    0.2240 n2        1 D2F     -0.303000
      2 C2          1.5500    0.3160    0.3220 c2        1 D2F      0.212000
      3 N3          2.2520    0.6100    1.5150 n2        1 D2F     -0.215000
      4 C4          1.5940    0.1920    2.5940 c2        1 D2F      0.120000
      5 C5          0.3380   -0.4740    2.6360 c2        1 D2F     -0.376000
      6 C6         -0.2940   -0.7060    1.3910 c2        1 D2F      0.247000
      7 CAA         0.5320    1.9740    7.9040 c1        1 D2F      0.107000
      8 CAB        -3.1880    3.2020    7.9760 c3        1 D2F      0.011000
      9 NAC         2.1920    0.6430   -0.8620 nh        1 D2F     -0.338000
     10 NAD        -1.4920   -1.3920    1.3350 nh        1 D2F     -0.338000
     11 CAF        -4.4470    1.1010    8.4490 c2        1 D2F     -0.449000
     12 CAG        -5.1360    1.5850    9.4610 c1        1 D2F      0.199000
     13 CAH        -3.5510    1.8050    7.5540 c2        1 D2F     -0.054000
     14 CAI        -4.5130   -0.6060    5.7940 c2        1 D2F     -0.211000
     15 CAJ         1.2070   -0.1580    4.7970 c1        1 D2F      0.074000
     16 CAK         1.4750    1.0800    7.8510 c2        1 D2F     -0.538000
     17 CAM        -1.8360   -2.1030    6.0690 c3        1 D2F     -0.128000
     18 OAQ         2.0680    0.3580    3.9460 os        1 D2F     -0.061000
     19 CAR        -2.0820   -0.7710    5.4450 c2        1 D2F     -0.049000
     20 CAT         0.0100   -0.7830    4.0600 c3        1 D2F     -0.112000
     21 CAV        -3.0540    1.2790    6.4200 c2        1 D2F     -0.131000
     22 CAW        -3.2940   -0.0580    5.8940 c2        1 D2F     -0.044000
     23 HAA        -0.1650    2.5380    5.7180 ha        1 D2F      0.007500
     24 HAAA        0.0780    1.9290    5.5310 ha        1 D2F      0.007500
     25 HAAB        1.6880    0.5150    6.9140 ha        1 D2F      0.210000
     26 HAB        -3.0230    3.2270    9.0880 h1        1 D2F      0.093000
     27 HABA       -4.0270    3.9040    7.7090 h1        1 D2F      0.093000
     28 HABB       -1.2850    3.2080    7.5850 ho        1 D2F      0.234000
     29 HNAC        2.9940    1.2250   -0.8210 hn        1 D2F      0.241000
     30 HNAA        1.6780    0.6040   -1.7080 hn        1 D2F      0.241000
     31 HNAD       -2.0190   -1.4120    2.1770 hn        1 D2F      0.227500
     32 HNAB       -1.9980   -1.4040    0.4810 hn        1 D2F      0.227500
     33 HAE        -1.5180    0.7750    4.0970 ha        1 D2F      0.137000
     34 HAF        -4.5540    0.0080    8.2490 ha        1 D2F      0.200000
     35 HAG        -4.6740   -1.6090    5.3770 ha        1 D2F      0.120500
     36 HAH        -2.3540    1.8940    5.8180 ha        1 D2F      0.153000
     37 HAI        -5.4200   -0.0710    6.1050 ha        1 D2F      0.120500
     38 HAJ         0.0510   -1.8960    4.2450 hc        1 D2F      0.148000
     39 HAK        -1.1350   -1.4100    8.0040 hc        1 D2F      0.082667
     40 HAKA        2.1350    0.7940    8.6820 ha        1 D2F      0.210000
     41 HAL         0.1610   -1.5860    6.7510 hc        1 D2F      0.082667
     42 HALA       -0.5600   -3.0620    7.5300 hc        1 D2F      0.082667
     43 HAM        -2.7920   -2.4990    6.5060 hc        1 D2F      0.085000
     44 HAMA       -1.5140   -2.8350    5.2780 hc        1 D2F      0.085000
     45 CAE        -1.2680   -0.2070    4.5360 c2        1 D2F     -0.160000
     46 OAP        -2.0630    3.7190    7.3010 oh        1 D2F     -0.340000
     47 CAL        -0.7830   -2.0370    7.1500 c3        1 D2F     -0.214000
@<TRIPOS>BOND
     1    1    2 1   
     2    1    6 1   
     3    2    3 1   
     4    2    9 1   
     5    3    4 1   
     6    4    5 1   
     7    4   18 1   
     8    5    6 1   
     9    5   20 1   
    10    6   10 1   
    11    7   16 1   
    12    8   13 1   
    13    8   26 1   
    14    8   27 1   
    15    8   46 1   
    16    9   29 1   
    17    9   30 1   
    18   10   31 1   
    19   10   32 1   
    20   11   12 1   
    21   11   13 1   
    22   11   34 1   
    23   13   21 1   
    24   14   22 1   
    25   14   35 1   
    26   14   37 1   
    27   15   18 1   
    28   15   20 1   
    29   16   25 1   
    30   16   40 1   
    31   17   19 1   
    32   17   43 1   
    33   17   44 1   
    34   17   47 1   
    35   19   22 1   
    36   19   45 1   
    37   20   38 1   
    38   20   45 1   
    39   21   22 1   
    40   21   36 1   
    41   23   24 1   
    42   28   46 1   
    43   33   45 1   
    44   39   47 1   
    45   41   47 1   
    46   42   47 1   
@<TRIPOS>SUBSTRUCTURE
     1 D2F         1 TEMP              0 ****  ****    0 ROOT
