@<TRIPOS>MOLECULE
D2F
   47    46     1     0     0
SMALL
bcc


@<TRIPOS>ATOM
      1 N1         -0.0850   -0.4180    0.1340 n2        1 D2F     -0.305000
      2 C2          1.1580    0.1760    0.0390 c2        1 D2F      0.213000
      3 N3          2.0140    0.5180    1.1130 n2        1 D2F     -0.216000
      4 C4          1.5040    0.1580    2.2880 c2        1 D2F      0.120000
      5 C5          0.2620   -0.4910    2.5280 c2        1 D2F     -0.379000
      6 C6         -0.5300   -0.7750    1.3900 c2        1 D2F      0.249000
      7 CAA         3.6570    0.6940    8.1870 c1        1 D2F      0.135000
      8 CAB        -5.4470    3.6470    7.8450 c3        1 D2F      0.017000
      9 NAC         1.6370    0.4440   -1.2340 nv        1 D2F     -0.341000
     10 NAD        -1.7280   -1.4490    1.5270 nv        1 D2F     -0.342000
     11 CAF        -4.9440    3.1350    6.5390 c2        1 D2F     -0.152000
     12 CAG        -5.0280   -1.2530    6.9570 c2        1 D2F     -0.166000
     13 CAH        -3.9310    2.3330    6.3840 c1        1 D2F     -0.155000
     14 CAI        -3.9890   -0.5850    6.5690 c1        1 D2F     -0.135000
     15 CAJ         1.4120   -0.0880    4.5380 c1        1 D2F      0.084000
     16 CAK         3.7760    0.3720    6.9310 c2        1 D2F     -0.561000
     17 CAM        -1.2680   -1.7730    6.4760 c3        1 D2F     -0.129000
     18 OAQ         2.1560    0.3780    3.5560 os        1 D2F     -0.063000
     19 CAR        -1.7200   -0.5860    5.6940 c2        1 D2F     -0.035000
     20 CAT         0.1230   -0.7270    3.9970 c3        1 D2F     -0.112000
     21 CAV        -2.8960    1.5590    6.1960 c2        1 D2F     -0.070000
     22 CAW        -2.9340    0.0990    6.1780 c2        1 D2F     -0.002000
     23 HAA         1.4520    1.2850    8.7300 ha        1 D2F      0.007000
     24 HAAA        1.3030    0.7780    8.3030 ha        1 D2F      0.007000
     25 HAAB        2.9190    0.2740    6.2320 ha        1 D2F      0.202500
     26 HAB        -6.4430    3.1670    8.0630 h1        1 D2F      0.093500
     27 HABA       -5.5810    4.7640    7.7940 h1        1 D2F      0.093500
     28 HABB       -4.2960    2.5260    8.9280 ho        1 D2F      0.204000
     29 HNAC        2.4440    1.0120   -1.3280 hn        1 D2F      0.241500
     30 HNAA        1.0180    0.3640   -2.0030 hn        1 D2F      0.241500
     31 HNAD       -2.1320   -1.4410    2.4340 hn        1 D2F      0.229000
     32 HNAB       -2.3410   -1.5060    0.7500 hn        1 D2F      0.229000
     33 HAE        -1.4810    0.7550    4.0610 ha        1 D2F      0.135000
     34 HAF        -5.5180    3.4860    5.6620 ha        1 D2F      0.145000
     35 HAG        -5.8360   -1.5390    6.2650 ha        1 D2F      0.137500
     36 HAH        -1.8950    2.0080    6.0440 ha        1 D2F      0.155000
     37 HAI        -5.1670   -1.5730    8.0010 ha        1 D2F      0.137500
     38 HAJ         0.1850   -1.8310    4.2290 hc        1 D2F      0.149000
     39 HAK        -0.4130   -0.6880    8.1530 hc        1 D2F      0.085000
     40 HAKA        4.7390    0.1720    6.4370 ha        1 D2F      0.202500
     41 HAL         0.7440   -1.0160    6.7960 hc        1 D2F      0.085000
     42 HALA        0.2400   -2.3610    7.9110 hc        1 D2F      0.085000
     43 HAM        -2.1210   -2.1700    7.0910 hc        1 D2F      0.087000
     44 HAMA       -0.9660   -2.5950    5.7710 hc        1 D2F      0.087000
     45 CAE        -1.0930   -0.1300    4.5940 c2        1 D2F     -0.160000
     46 OAP        -4.5780    3.4500    8.9410 oh        1 D2F     -0.320000
     47 CAL        -0.1090   -1.4400    7.3850 c3        1 D2F     -0.217000
@<TRIPOS>BOND
     1    1    2 1   
     2    1    6 1   
     3    2    3 1   
     4    2    9 1   
     5    3    4 1   
     6    4    5 1   
     7    4   18 1   
     8    5    6 1   
     9    5   20 1   
    10    6   10 1   
    11    7   16 1   
    12    8   11 1   
    13    8   26 1   
    14    8   27 1   
    15    8   46 1   
    16    9   29 1   
    17    9   30 1   
    18   10   31 1   
    19   10   32 1   
    20   11   13 1   
    21   11   34 1   
    22   12   14 1   
    23   12   35 1   
    24   12   37 1   
    25   13   21 1   
    26   14   22 1   
    27   15   18 1   
    28   15   20 1   
    29   16   25 1   
    30   16   40 1   
    31   17   19 1   
    32   17   43 1   
    33   17   44 1   
    34   17   47 1   
    35   19   22 1   
    36   19   45 1   
    37   20   38 1   
    38   20   45 1   
    39   21   22 1   
    40   21   36 1   
    41   23   24 1   
    42   28   46 1   
    43   33   45 1   
    44   39   47 1   
    45   41   47 1   
    46   42   47 1   
@<TRIPOS>SUBSTRUCTURE
     1 D2F         1 TEMP              0 ****  ****    0 ROOT
