@<TRIPOS>MOLECULE
D2F
   47    49     1     0     0
SMALL
bcc


@<TRIPOS>ATOM
      1 N1         -4.2640   -1.9400   -0.1460 nb        1 D2F     -0.836000
      2 C2         -5.1340   -0.8870    0.1010 ca        1 D2F      0.917900
      3 N3         -4.7900    0.4290    0.4210 nb        1 D2F     -0.765000
      4 C4         -3.4570    0.6150    0.4440 ca        1 D2F      0.646600
      5 C5         -2.4480   -0.3780    0.2060 ca        1 D2F     -0.436400
      6 C6         -2.9180   -1.6890   -0.0940 ca        1 D2F      0.764200
      7 CAA         2.6630    4.9370   -0.3500 c3        1 D2F     -0.092100
      8 CAB         3.0460   -1.1470    3.1430 c3        1 D2F      0.111700
      9 NAC        -6.4970   -1.1560   -0.0460 nh        1 D2F     -0.930500
     10 NAD        -2.0240   -2.7280   -0.2800 nh        1 D2F     -0.946500
     11 CAF         4.8600   -2.0530   -0.5160 ca        1 D2F     -0.093000
     12 CAG         4.2800   -1.5820   -1.6920 ca        1 D2F     -0.164000
     13 CAH         4.2480   -1.8130    0.7120 ca        1 D2F     -0.204000
     14 CAI         3.0890   -0.8600   -1.6410 ca        1 D2F     -0.092000
     15 CAJ        -1.4650    1.6130    0.6410 cc        1 D2F     -0.039900
     16 CAK         1.9430    3.8570   -1.1150 c3        1 D2F     -0.082400
     17 CAM         1.2010    1.4700   -1.1270 c3        1 D2F     -0.047200
     18 OAQ        -2.8530    1.8470    0.7140 os        1 D2F     -0.306400
     19 CAR         1.2000    0.1700   -0.3970 ce        1 D2F     -0.034400
     20 CAT        -1.1720    0.2990    0.3440 cd        1 D2F     -0.036200
     21 CAV         3.0460   -1.0940    0.7600 ca        1 D2F      0.133100
     22 CAW         2.4520   -0.5940   -0.4230 ca        1 D2F     -0.082800
     23 HAA         3.7230    4.6440   -0.1570 hc        1 D2F      0.033367
     24 HAAA        2.6610    5.8910   -0.9310 hc        1 D2F      0.033367
     25 HAAB        2.1660    5.1220    0.6330 hc        1 D2F      0.033367
     26 HAB         2.3540   -0.7630    3.9350 h1        1 D2F      0.045700
     27 HABA        3.1860   -2.2510    3.2460 h1        1 D2F      0.045700
     28 HABB        4.0300   -0.6200    3.1900 h1        1 D2F      0.045700
     29 HNAC       -6.7740   -2.1090   -0.0270 hn        1 D2F      0.431300
     30 HNAA       -7.1310   -0.4960    0.3400 hn        1 D2F      0.431300
     31 HNAD       -2.3600   -3.5870   -0.6470 hn        1 D2F      0.431300
     32 HNAB       -1.0920   -2.4700   -0.5030 hn        1 D2F      0.431300
     33 HAE         0.2090   -1.2880    0.7800 ha        1 D2F      0.142000
     34 HAF         5.8020   -2.6190   -0.5530 ha        1 D2F      0.134000
     35 HAG         4.7610   -1.7770   -2.6610 ha        1 D2F      0.135000
     36 HAH         4.7130   -2.1930    1.6330 ha        1 D2F      0.139000
     37 HAI         2.6370   -0.4970   -2.5770 ha        1 D2F      0.137000
     38 HAJ        -0.8710    2.5000    0.8440 h4        1 D2F      0.197000
     39 HAK         0.8880    4.1790   -1.3210 hc        1 D2F      0.038700
     40 HAKA        2.4410    3.7040   -2.1090 hc        1 D2F      0.038700
     41 HAL         2.9850    2.2200   -0.1490 hc        1 D2F      0.045200
     42 HALA        1.4360    2.7000    0.6450 hc        1 D2F      0.045200
     43 HAM         0.1440    1.8020   -1.3180 hc        1 D2F      0.051200
     44 HAMA        1.6920    1.3420   -2.1290 hc        1 D2F      0.051200
     45 CAE         0.1200   -0.3230    0.2430 cf        1 D2F     -0.103000
     46 OAP         2.3620   -0.8420    1.9340 os        1 D2F     -0.322900
     47 CAL         1.9320    2.5500   -0.3500 c3        1 D2F     -0.074400
@<TRIPOS>BOND
     1    1    2 ar  
     2    1    6 ar  
     3    2    3 ar  
     4    2    9 1   
     5    3    4 ar  
     6    4    5 ar  
     7    4   18 1   
     8    5    6 ar  
     9    5   20 1   
    10    6   10 1   
    11    7   16 1   
    12    7   23 1   
    13    7   24 1   
    14    7   25 1   
    15    8   26 1   
    16    8   27 1   
    17    8   28 1   
    18    8   46 1   
    19    9   29 1   
    20    9   30 1   
    21   10   31 1   
    22   10   32 1   
    23   11   12 ar  
    24   11   13 ar  
    25   11   34 1   
    26   12   14 ar  
    27   12   35 1   
    28   13   21 ar  
    29   13   36 1   
    30   14   22 ar  
    31   14   37 1   
    32   15   18 1   
    33   15   20 2   
    34   15   38 1   
    35   16   39 1   
    36   16   40 1   
    37   16   47 1   
    38   17   19 1   
    39   17   43 1   
    40   17   44 1   
    41   17   47 1   
    42   19   22 1   
    43   19   45 2   
    44   20   45 1   
    45   21   22 ar  
    46   21   46 1   
    47   33   45 1   
    48   41   47 1   
    49   42   47 1   
@<TRIPOS>SUBSTRUCTURE
     1 D2F         1 TEMP              0 ****  ****    0 ROOT
