@<TRIPOS>MOLECULE
D2G
   26    20     1     0     0
SMALL
bcc


@<TRIPOS>ATOM
      1 C_1         0.7960    0.8450    1.8540 c1        1 D2G     -0.066000
      2 C_2         0.3510    0.0800    2.8940 c1        1 D2G     -0.069000
      3 C_3         1.0520    0.0500    4.0710 c1        1 D2G     -0.069000
      4 C_4         2.2140    0.7980    4.2050 c1        1 D2G      0.315300
      5 N_1         2.6590    1.5630    3.1650 n1        1 D2G     -0.461800
      6 C_5         1.9610    1.5940    1.9910 c1        1 D2G      0.002500
      7 C_6         0.0990    0.8580    0.6520 c1        1 D2G     -0.008400
      8 C_7        -0.8620    1.7740    0.2830 cg        1 D2G     -0.180000
      9 C_8        -1.3560    1.3990   -0.9410 cg        1 D2G     -0.180000
     10 C_9        -0.6970    0.2460   -1.3320 c1        1 D2G     -0.008400
     11 O_1         0.1980   -0.0830   -0.3490 os        1 D2G     -0.165200
     12 C10        -0.8060   -0.4270   -2.7100 c2        1 D2G      0.300100
     13 N_2        -1.2270   -1.8490   -2.5420 nh        1 D2G     -0.378100
     14 C11        -0.8000   -2.6200   -3.7100 c3        1 D2G     -0.032400
     15 H_2        -0.4610   -0.4420    2.7990 ha        1 D2G      0.091500
     16 H_3         0.7380   -0.4910    4.8060 ha        1 D2G      0.091500
     17 H_4         2.7170    0.7760    5.0500 ha        1 D2G      0.103500
     18 H_5         2.2820    2.1440    1.2430 ha        1 D2G      0.104500
     19 H_7        -1.1440    2.5560    0.8050 DU        1 D2G      0.163500
     20 H_8        -2.0480    1.8630   -1.4460 DU        1 D2G      0.163500
     21 H101        0.0680   -0.3970   -3.1570 h4        1 D2G     -0.018200
     22 H102       -1.4750    0.0530   -3.2600 h4        1 D2G     -0.018200
     23 H1         -2.1440   -1.8930   -2.4640 hn        1 D2G      0.214700
     24 H111       -1.1570   -2.2080   -4.5200 h1        1 D2G      0.034033
     25 H112        0.1840   -2.6320   -3.7540 h1        1 D2G      0.034033
     26 H113       -1.1410   -3.5540   -3.6350 h1        1 D2G      0.034033
@<TRIPOS>BOND
     1    1    6 3   
     2    2    3 3   
     3    2   15 1   
     4    3   16 1   
     5    4    5 3   
     6    4   17 1   
     7    6   18 1   
     8    7    8 3   
     9    7   11 1   
    10    8    9 1   
    11    9   10 3   
    12   10   11 1   
    13   12   13 2   
    14   12   21 1   
    15   12   22 1   
    16   13   14 1   
    17   13   23 1   
    18   14   24 1   
    19   14   25 1   
    20   14   26 1   
@<TRIPOS>SUBSTRUCTURE
     1 D2G         1 TEMP              0 ****  ****    0 ROOT
