@<TRIPOS>MOLECULE
D2G
   26    27     1     0     0
SMALL
bcc


@<TRIPOS>ATOM
      1 C_1        -1.5320    0.1350    0.0610 ca        1 D2G     -0.237800
      2 C_2        -1.6540   -1.2560   -0.0860 ca        1 D2G     -0.073000
      3 C_3        -2.9200   -1.8350   -0.0200 ca        1 D2G     -0.245300
      4 C_4        -4.0320   -1.0010    0.1930 ca        1 D2G      0.397200
      5 N_1        -3.9400    0.3360    0.3370 nb        1 D2G     -0.662000
      6 C_5        -2.7150    0.8850    0.2720 ca        1 D2G      0.411200
      7 C_6        -0.2590    0.8000    0.0040 cc        1 D2G      0.304200
      8 C_7         0.1230    2.1290    0.1080 cd        1 D2G     -0.237300
      9 C_8         1.5590    2.1660   -0.0290 cd        1 D2G     -0.245300
     10 C_9         1.9740    0.8610   -0.2140 cc        1 D2G      0.252000
     11 O_1         0.8750   -0.0050   -0.1970 os        1 D2G     -0.368800
     12 C10         3.2990    0.2390   -0.4500 c3        1 D2G      0.132500
     13 N_2         3.6610   -0.7600    0.5390 n3        1 D2G     -0.821200
     14 C11         4.7280   -1.6250    0.1120 c3        1 D2G      0.150100
     15 H_2        -0.7560   -1.8710   -0.2510 ha        1 D2G      0.151000
     16 H_3        -3.0510   -2.9190   -0.1310 ha        1 D2G      0.146000
     17 H_4        -5.0530   -1.4200    0.2520 h4        1 D2G      0.024100
     18 H_5        -2.6700    1.9830    0.3940 h4        1 D2G      0.026100
     19 H_7        -0.5210    2.9900    0.2650 ha        1 D2G      0.163000
     20 H_8         2.1790    3.0570    0.0130 ha        1 D2G      0.165000
     21 H101        4.0800    1.0530   -0.4100 h1        1 D2G      0.051700
     22 H102        3.2970   -0.1820   -1.5030 h1        1 D2G      0.051700
     23 H1          2.8560   -1.2910    0.8170 hn        1 D2G      0.370800
     24 H111        4.9580   -2.3410    0.9440 h1        1 D2G      0.032033
     25 H112        4.4930   -2.2170   -0.8160 h1        1 D2G      0.032033
     26 H113        5.6420   -1.0060   -0.0930 h1        1 D2G      0.032033
@<TRIPOS>BOND
     1    1    2 ar  
     2    1    6 ar  
     3    1    7 1   
     4    2    3 ar  
     5    2   15 1   
     6    3    4 ar  
     7    3   16 1   
     8    4    5 ar  
     9    4   17 1   
    10    5    6 ar  
    11    6   18 1   
    12    7    8 2   
    13    7   11 1   
    14    8    9 1   
    15    8   19 1   
    16    9   10 2   
    17    9   20 1   
    18   10   11 1   
    19   10   12 1   
    20   12   13 1   
    21   12   21 1   
    22   12   22 1   
    23   13   14 1   
    24   13   23 1   
    25   14   24 1   
    26   14   25 1   
    27   14   26 1   
@<TRIPOS>SUBSTRUCTURE
     1 D2G         1 TEMP              0 ****  ****    0 ROOT
