@<TRIPOS>MOLECULE
D2G
   27    28     1     0     0
SMALL
bcc


@<TRIPOS>ATOM
      1 C_1        -0.1170   -0.0300   -0.1180 ca        1 D2G     -0.304800
      2 C_2         1.1690   -0.5960   -0.1860 ca        1 D2G     -0.054000
      3 C_3         2.0060   -0.5040    0.9220 ca        1 D2G     -0.245300
      4 C_4         1.5300    0.1540    2.0740 ca        1 D2G      0.437200
      5 N_1         0.3020    0.7030    2.1600 nb        1 D2G     -0.649000
      6 C_5        -0.5000    0.6100    1.0870 ca        1 D2G      0.444200
      7 C_6        -1.0420   -0.0950   -1.2150 cc        1 D2G      0.411200
      8 C_7        -2.4050    0.1750   -1.3200 cd        1 D2G     -0.273300
      9 C_8        -2.7790   -0.0640   -2.6860 cd        1 D2G     -0.122300
     10 C_9        -1.6330   -0.4700   -3.3490 cc        1 D2G      0.074000
     11 O_1        -0.5400   -0.4980   -2.4590 os        1 D2G     -0.379800
     12 C10        -1.3460   -0.9330   -4.7080 c3        1 D2G      0.116500
     13 N_2        -0.4410    0.0430   -5.4200 ny        1 D2G     -0.768000
     14 C11        -0.0990   -0.4080   -6.7850 c3        1 D2G      0.076100
     15 H_2         1.4990   -1.1080   -1.1020 ha        1 D2G      0.143000
     16 H_3         3.0150   -0.9380    0.9080 ha        1 D2G      0.162000
     17 H_4         2.1620    0.2470    2.9790 h4        1 D2G      0.045100
     18 H_5        -1.5010    1.0700    1.1910 h4        1 D2G      0.034100
     19 H_7        -3.0740    0.4960   -0.5230 ha        1 D2G      0.192000
     20 H_8        -3.7810    0.0470   -3.0990 ha        1 D2G      0.181000
     21 H101       -2.3010   -1.0270   -5.3000 hx        1 D2G      0.118700
     22 H102       -0.8120   -1.9290   -4.6910 hx        1 D2G      0.118700
     23 H1         -0.9040    0.9590   -5.4600 hn        1 D2G      0.457300
     24 H111        0.4310   -1.3980   -6.7340 hx        1 D2G      0.109033
     25 H112        0.5720    0.3510   -7.2720 hx        1 D2G      0.109033
     26 H113       -1.0390   -0.5210   -7.3910 hx        1 D2G      0.109033
     27 H_22        0.4160    0.1520   -4.8610 hn        1 D2G      0.457300
@<TRIPOS>BOND
     1    1    2 ar  
     2    1    6 ar  
     3    1    7 1   
     4    2    3 ar  
     5    2   15 1   
     6    3    4 ar  
     7    3   16 1   
     8    4    5 ar  
     9    4   17 1   
    10    5    6 ar  
    11    6   18 1   
    12    7    8 2   
    13    7   11 1   
    14    8    9 1   
    15    8   19 1   
    16    9   10 2   
    17    9   20 1   
    18   10   11 1   
    19   10   12 1   
    20   12   13 1   
    21   12   21 1   
    22   12   22 1   
    23   13   14 1   
    24   13   23 1   
    25   13   27 1   
    26   14   24 1   
    27   14   25 1   
    28   14   26 1   
@<TRIPOS>SUBSTRUCTURE
     1 D2G         1 TEMP              0 ****  ****    0 ROOT
