@<TRIPOS>MOLECULE
D2G
   27    28     1     0     0
SMALL
bcc


@<TRIPOS>ATOM
      1 C_1        -0.0950    0.0320   -0.1270 ca        1 D2G     -0.304800
      2 C_2         1.1640   -0.5910   -0.1820 ca        1 D2G     -0.054000
      3 C_3         2.0120   -0.4990    0.9180 ca        1 D2G     -0.245300
      4 C_4         1.5730    0.2180    2.0490 ca        1 D2G      0.437200
      5 N_1         0.3710    0.8230    2.1220 nb        1 D2G     -0.649000
      6 C_5        -0.4420    0.7290    1.0570 ca        1 D2G      0.444200
      7 C_6        -1.0290   -0.0300   -1.2160 cc        1 D2G      0.411200
      8 C_7        -2.3800    0.2950   -1.3230 cd        1 D2G     -0.273300
      9 C_8        -2.7730    0.0270   -2.6780 cd        1 D2G     -0.122300
     10 C_9        -1.6500   -0.4510   -3.3330 cc        1 D2G      0.074000
     11 O_1        -0.5530   -0.4960   -2.4480 os        1 D2G     -0.379800
     12 C10        -1.3920   -0.9710   -4.6770 c3        1 D2G      0.116500
     13 N_2        -0.4500   -0.0610   -5.4270 n4        1 D2G     -0.768000
     14 C11        -0.1380   -0.5720   -6.7770 c3        1 D2G      0.076100
     15 H_2         1.4660   -1.1490   -1.0820 ha        1 D2G      0.143000
     16 H_3         3.0010   -0.9770    0.9140 ha        1 D2G      0.162000
     17 H_4         2.2150    0.3150    2.9470 h4        1 D2G      0.045100
     18 H_5        -1.4210    1.2360    1.1500 h4        1 D2G      0.034100
     19 H_7        -3.0290    0.6720   -0.5340 ha        1 D2G      0.192000
     20 H_8        -3.7720    0.1680   -3.0900 ha        1 D2G      0.181000
     21 H101       -2.3550   -1.0430   -5.2610 hx        1 D2G      0.118700
     22 H102       -0.9030   -1.9880   -4.6290 hx        1 D2G      0.118700
     23 H1         -0.8730    0.8730   -5.4950 hn        1 D2G      0.457300
     24 H111        0.3500   -1.5810   -6.6950 hx        1 D2G      0.109033
     25 H112        0.5620    0.1410   -7.2930 hx        1 D2G      0.109033
     26 H113       -1.0850   -0.6640   -7.3740 hx        1 D2G      0.109033
     27 H_22        0.4140    0.0310   -4.8760 hn        1 D2G      0.457300
@<TRIPOS>BOND
     1    1    2 ar  
     2    1    6 ar  
     3    1    7 1   
     4    2    3 ar  
     5    2   15 1   
     6    3    4 ar  
     7    3   16 1   
     8    4    5 ar  
     9    4   17 1   
    10    5    6 ar  
    11    6   18 1   
    12    7    8 2   
    13    7   11 1   
    14    8    9 1   
    15    8   19 1   
    16    9   10 2   
    17    9   20 1   
    18   10   11 1   
    19   10   12 1   
    20   12   13 1   
    21   12   21 1   
    22   12   22 1   
    23   13   14 1   
    24   13   23 1   
    25   13   27 1   
    26   14   24 1   
    27   14   25 1   
    28   14   26 1   
@<TRIPOS>SUBSTRUCTURE
     1 D2G         1 TEMP              0 ****  ****    0 ROOT
