@<TRIPOS>MOLECULE
D2H
   47    38     1     0     0
SMALL
bcc


@<TRIPOS>ATOM
      1 N1          1.1780    0.6610   -4.7400 n1        1 D2H     -0.598800
      2 C2          2.5380    0.5440   -4.8810 c1        1 D2H      0.599600
      3 N3          3.3340    0.4270   -3.7730 n1        1 D2H     -0.598800
      4 C4          2.7770    0.4280   -2.5300 c1        1 D2H     -0.071500
      5 C5          1.4280    0.5440   -2.3900 c1        1 D2H     -0.071500
      6 C6          0.6240    0.6620   -3.5130 c1        1 D2H      0.599600
      7 CAA        -0.2320    1.1880    4.8040 c3        1 D2H     -0.092100
      8 CAB         0.1090   -3.9910    1.7760 c3        1 D2H      0.110700
      9 CAC        -0.9910    2.7300    2.1350 c3        1 D2H     -0.088100
     10 NAD         3.1210    0.5260   -6.1820 n3        1 D2H     -0.800900
     11 NAE        -0.5400    0.9120   -4.3150 n3        1 D2H     -0.800900
     12 CAF         0.7000    1.1720    0.2990 c1        1 D2H     -0.047500
     13 CAG        -3.2410   -2.2860    0.1700 c1        1 D2H     -0.078500
     14 CAH        -3.2640   -0.9470   -0.2030 c1        1 D2H     -0.078500
     15 CAI        -2.0950   -2.8300    0.7450 c1        1 D2H     -0.078500
     16 CAJ        -2.1400   -0.1490   -0.0020 c1        1 D2H     -0.078500
     17 CAK         2.3210    0.3810   -0.3360 c1        1 D2H      0.187900
     18 CAL         0.3670    1.0830    3.3950 c3        1 D2H     -0.078400
     19 OAO         0.2200   -2.6050    1.4680 os        1 D2H     -0.310400
     20 OAP         3.3390    0.3260   -1.2520 o         1 D2H     -0.346900
     21 CAQ        -0.3050    0.6030    1.0550 c1        1 D2H     -0.011100
     22 CAS         1.1330    0.5160   -1.0250 c1        1 D2H     -0.057000
     23 CAU        -0.9730   -2.0330    0.9460 c1        1 D2H      0.110600
     24 CAV        -0.9950   -0.6910    0.5730 c1        1 D2H     -0.068000
     25 CAY        -0.7320    1.2510    2.3630 c3        1 D2H     -0.059600
     26 HAA         0.3420    0.7070    5.4410 hc        1 D2H      0.032367
     27 HAAA       -1.1320    0.7910    4.8080 hc        1 D2H      0.032367
     28 HAAB       -0.2900    2.1340    5.0650 hc        1 D2H      0.032367
     29 HAB         0.9380   -4.2980    2.2070 h1        1 D2H      0.045700
     30 HABA       -0.6490   -4.1310    2.3860 h1        1 D2H      0.045700
     31 HABB       -0.0380   -4.4990    0.9490 h1        1 D2H      0.045700
     32 HAC        -1.7170    3.0310    2.7280 hc        1 D2H      0.034033
     33 HACA       -0.1740    3.2400    2.3310 hc        1 D2H      0.034033
     34 HACB       -1.2520    2.8760    1.1990 hc        1 D2H      0.034033
     35 HNAD        4.0270    0.4310   -6.2760 hn        1 D2H      0.429550
     36 HNAA        2.5890    0.6060   -6.9230 hn        1 D2H      0.429550
     37 HNAE       -0.5030    1.5220   -5.0000 hn        1 D2H      0.429550
     38 HNAB       -1.3170    0.4530   -4.1510 hn        1 D2H      0.429550
     39 HAF         1.1400    1.9960    0.6060 ha        1 D2H      0.076500
     40 HAG        -4.0340   -2.8490    0.0270 ha        1 D2H      0.078500
     41 HAH        -4.0710   -0.5640   -0.6080 ha        1 D2H      0.078500
     42 HAI        -2.0800   -3.7730    1.0080 ha        1 D2H      0.078500
     43 HAJ        -2.1560    0.7930   -0.2640 ha        1 D2H      0.078500
     44 HAK         2.4170    0.3040    0.6360 DU        1 D2H      0.201000
     45 HAL         0.7890    0.2010    3.2840 hc        1 D2H      0.049700
     46 HALA        1.0420    1.7860    3.2730 hc        1 D2H      0.049700
     47 HAY        -1.5540    0.8210    2.6870 hc        1 D2H      0.060700
@<TRIPOS>BOND
     1    1    6 3   
     2    2    3 3   
     3    2   10 1   
     4    4    5 1   
     5    6   11 1   
     6    7   18 1   
     7    7   26 1   
     8    7   27 1   
     9    7   28 1   
    10    8   19 1   
    11    8   29 1   
    12    8   30 1   
    13    8   31 1   
    14    9   25 1   
    15    9   32 1   
    16    9   33 1   
    17    9   34 1   
    18   10   35 1   
    19   10   36 1   
    20   11   37 1   
    21   11   38 1   
    22   12   21 3   
    23   12   39 1   
    24   13   15 3   
    25   13   40 1   
    26   14   16 3   
    27   14   41 1   
    28   15   42 1   
    29   16   43 1   
    30   17   20 1   
    31   17   22 3   
    32   18   25 1   
    33   18   45 1   
    34   18   46 1   
    35   19   23 1   
    36   21   25 1   
    37   23   24 3   
    38   25   47 1   
@<TRIPOS>SUBSTRUCTURE
     1 D2H         1 TEMP              0 ****  ****    0 ROOT
