@<TRIPOS>MOLECULE
D2H
   47    49     1     0     0
SMALL
bcc


@<TRIPOS>ATOM
      1 N1         -3.6930   -1.8370   -0.0430 nb        1 D2H     -0.839000
      2 C2         -4.7360   -0.9210   -0.0040 ca        1 D2H      0.918900
      3 N3         -4.6510    0.4620   -0.1830 nb        1 D2H     -0.767000
      4 C4         -3.3840    0.8720   -0.3800 ca        1 D2H      0.648600
      5 C5         -2.2190    0.0380   -0.4440 ca        1 D2H     -0.439400
      6 C6         -2.4260   -1.3590   -0.2620 ca        1 D2H      0.770200
      7 CAB         2.0360   -3.1960    0.5450 c3        1 D2H      0.111700
      8 CAC         1.7100    3.2450    0.5450 c3        1 D2H     -0.089100
      9 NAD        -5.9990   -1.4310    0.3070 nh        1 D2H     -0.930500
     10 NAE        -1.3650   -2.2380   -0.3560 nh        1 D2H     -0.951500
     11 CAG         5.1390   -0.8810   -1.0440 ca        1 D2H     -0.095000
     12 CAH         4.9360    0.4850   -1.2220 ca        1 D2H     -0.159000
     13 CAI         4.1030   -1.6900   -0.5800 ca        1 D2H     -0.199000
     14 CAJ         3.6970    1.0520   -0.9250 ca        1 D2H     -0.091000
     15 CAK        -1.6150    2.2000   -0.7260 cc        1 D2H     -0.044900
     16 CAL         2.0140    1.4270    2.2210 c3        1 D2H     -0.071400
     17 OAP        -3.0150    2.2100   -0.5570 os        1 D2H     -0.306400
     18 CAQ         1.3360    0.8730   -0.1380 ce        1 D2H     -0.026400
     19 CAS        -1.0950    0.9260   -0.6730 cd        1 D2H     -0.035200
     20 CAU         2.8580   -1.1190   -0.2900 ca        1 D2H      0.128100
     21 CAV         2.6420    0.2720   -0.4420 ca        1 D2H     -0.071800
     22 CAY         1.2450    1.8670    0.9810 c3        1 D2H     -0.031500
     23 HAA         0.3410    0.4680    3.2170 hc        1 D2H      0.036033
     24 HAAA        1.3470   -0.6330    2.1870 hc        1 D2H      0.036033
     25 HAAB        1.9760   -0.0600    3.7910 hc        1 D2H      0.036033
     26 HAB         2.3350   -3.8210   -0.3320 h1        1 D2H      0.045367
     27 HABA        2.8260   -3.2200    1.3330 h1        1 D2H      0.045367
     28 HABB        1.0540   -3.5430    0.9580 h1        1 D2H      0.045367
     29 HAC         2.8240    3.2910    0.4860 hc        1 D2H      0.035700
     30 HACA        1.2860    3.5050   -0.4540 hc        1 D2H      0.035700
     31 HACB        1.3710    4.0090    1.2860 hc        1 D2H      0.035700
     32 HNAD       -6.1330   -2.4080    0.1940 hn        1 D2H      0.430300
     33 HNAA       -6.7790   -0.8470    0.1170 hn        1 D2H      0.430300
     34 HNAE       -1.4950   -3.1780   -0.0700 hn        1 D2H      0.438300
     35 HNAB       -0.4520   -1.8500   -0.2710 hn        1 D2H      0.438300
     36 HAF         0.3900   -0.2680   -1.6550 ha        1 D2H      0.141000
     37 HAG         6.1170   -1.3300   -1.2740 ha        1 D2H      0.135000
     38 HAH         5.7510    1.1200   -1.5980 ha        1 D2H      0.136000
     39 HAI         4.2720   -2.7680   -0.4520 ha        1 D2H      0.138000
     40 HAJ         3.5400    2.1310   -1.0790 ha        1 D2H      0.142000
     41 HAK        -1.1960    3.1910   -0.8760 h4        1 D2H      0.195000
     42 HAL         2.0470    2.2870    2.9420 hc        1 D2H      0.041700
     43 HALA        3.0730    1.1880    1.9370 hc        1 D2H      0.041700
     44 HAY         0.1530    1.9540    1.2670 hc        1 D2H      0.064700
     45 CAF         0.2630    0.4860   -0.8540 cf        1 D2H     -0.109000
     46 CAA         1.3830    0.2350    2.8920 c3        1 D2H     -0.096100
     47 OAO         1.7660   -1.8600    0.1340 os        1 D2H     -0.343900
@<TRIPOS>BOND
     1    1    2 ar  
     2    1    6 ar  
     3    2    3 ar  
     4    2    9 1   
     5    3    4 ar  
     6    4    5 ar  
     7    4   17 1   
     8    5    6 ar  
     9    5   19 1   
    10    6   10 1   
    11    7   26 1   
    12    7   27 1   
    13    7   28 1   
    14    7   47 1   
    15    8   22 1   
    16    8   29 1   
    17    8   30 1   
    18    8   31 1   
    19    9   32 1   
    20    9   33 1   
    21   10   34 1   
    22   10   35 1   
    23   11   12 ar  
    24   11   13 ar  
    25   11   37 1   
    26   12   14 ar  
    27   12   38 1   
    28   13   20 ar  
    29   13   39 1   
    30   14   21 ar  
    31   14   40 1   
    32   15   17 1   
    33   15   19 2   
    34   15   41 1   
    35   16   22 1   
    36   16   42 1   
    37   16   43 1   
    38   16   46 1   
    39   18   21 1   
    40   18   22 1   
    41   18   45 2   
    42   19   45 1   
    43   20   21 ar  
    44   20   47 1   
    45   22   44 1   
    46   23   46 1   
    47   24   46 1   
    48   25   46 1   
    49   36   45 1   
@<TRIPOS>SUBSTRUCTURE
     1 D2H         1 TEMP              0 ****  ****    0 ROOT
