@<TRIPOS>MOLECULE
D2H
   47    46     1     0     0
SMALL
bcc


@<TRIPOS>ATOM
      1 N1         -0.1530    0.2050    0.1600 n2        1 D2H     -0.313000
      2 C2          1.1850   -0.1660    0.1370 c2        1 D2H      0.208000
      3 N3          1.9630   -0.5810    1.2240 n2        1 D2H     -0.243000
      4 C4          1.2720   -0.5620    2.3780 c2        1 D2H      0.153000
      5 C5         -0.1060   -0.1970    2.5450 c2        1 D2H     -0.306000
      6 C6         -0.8080    0.1910    1.3650 c2        1 D2H      0.249000
      7 CAB        -4.9040    1.9820    2.9020 c1        1 D2H     -0.023000
      8 CAC        -0.8090    1.5160    7.6020 c3        1 D2H     -0.183000
      9 NAD         1.8390   -0.0600   -1.0880 nh        1 D2H     -0.332000
     10 NAE        -2.1520    0.4930    1.4190 nh        1 D2H     -0.337000
     11 CAG        -5.4270   -1.2320    6.6590 c2        1 D2H     -0.542000
     12 CAH        -4.8060   -0.4230    7.6410 c1        1 D2H     -0.037000
     13 CAI        -6.3690   -2.1090    6.9840 c1        1 D2H      0.378000
     14 CAJ        -3.7480    0.5260    7.3520 c3        1 D2H     -0.179000
     15 CAK         0.7770   -0.7610    4.5530 c2        1 D2H     -0.088000
     16 CAL        -1.0950    3.1190    5.7820 c1        1 D2H     -0.061000
     17 OAP         1.8200   -0.9120    3.6180 os        1 D2H     -0.089000
     18 CAQ        -1.9990    0.7640    5.5110 c2        1 D2H     -0.082000
     19 CAS        -0.3920   -0.3410    3.9580 c2        1 D2H     -0.063000
     20 CAU        -4.3870    1.2130    5.0850 c2        1 D2H     -0.180000
     21 CAV        -3.4030    0.8640    5.9380 c2        1 D2H     -0.053000
     22 CAY        -0.9860    1.7000    6.1040 c3        1 D2H     -0.121000
     23 HAA        -0.8200    3.9650    3.9140 hc        1 D2H      0.108667
     24 HAAA       -2.2980    4.5250    4.7930 hc        1 D2H      0.108667
     25 HAAB       -2.3000    2.8990    3.9650 hc        1 D2H      0.108667
     26 HAB        -4.4770    3.7930    4.8420 ha        1 D2H      0.003750
     27 HABA       -5.9220    2.2720    3.2450 ha        1 D2H      0.032000
     28 HABB       -4.8730    4.1000    4.3850 ha        1 D2H      0.003750
     29 HAC         0.0980    2.0750    7.9380 hc        1 D2H      0.080667
     30 HACA       -0.6820    0.4350    7.8520 hc        1 D2H      0.080667
     31 HACB       -1.6880    1.9240    8.1570 hc        1 D2H      0.080667
     32 HNAD        1.2780    0.0140   -1.9040 hn        1 D2H      0.231000
     33 HNAA        2.7200   -0.5080   -1.1780 hn        1 D2H      0.231000
     34 HNAE       -2.5240    0.7400    2.3080 hn        1 D2H      0.235500
     35 HNAB       -2.5860    0.9000    0.6230 hn        1 D2H      0.235500
     36 HAF        -2.4860   -0.7610    4.1150 ha        1 D2H      0.138000
     37 HAG        -5.1250   -1.1630    5.5870 ha        1 D2H      0.176000
     38 HAH        -2.8450    0.0860    7.8780 hc        1 D2H      0.157500
     39 HAI        -5.4460    1.3290    5.3520 h4        1 D2H      0.149000
     40 HAJ        -3.9970    1.4820    7.9050 hc        1 D2H      0.157500
     41 HAK         1.0730   -1.0180    5.5660 h4        1 D2H      0.196000
     42 HAL        -3.2340    3.4170    6.8870 ha        1 D2H      0.003750
     43 HALA       -2.8470    3.8310    7.2640 ha        1 D2H      0.003750
     44 HAY         0.0280    1.4500    5.6280 hc        1 D2H      0.153000
     45 CAF        -1.6880   -0.1280    4.5490 c2        1 D2H     -0.089000
     46 CAA        -1.6770    3.6190    4.5580 c3        1 D2H     -0.277000
     47 OAO        -4.0740    1.4540    3.7220 os        1 D2H     -0.064000
@<TRIPOS>BOND
     1    1    2 1   
     2    1    6 1   
     3    2    3 1   
     4    2    9 1   
     5    3    4 1   
     6    4    5 1   
     7    4   17 1   
     8    5    6 1   
     9    5   19 1   
    10    6   10 1   
    11    7   27 1   
    12    7   47 1   
    13    8   22 1   
    14    8   29 1   
    15    8   30 1   
    16    8   31 1   
    17    9   32 1   
    18    9   33 1   
    19   10   34 1   
    20   10   35 1   
    21   11   12 1   
    22   11   13 1   
    23   11   37 1   
    24   12   14 1   
    25   14   21 1   
    26   14   38 1   
    27   14   40 1   
    28   15   17 1   
    29   15   19 1   
    30   15   41 1   
    31   16   22 1   
    32   16   46 1   
    33   18   21 1   
    34   18   22 1   
    35   18   45 1   
    36   19   45 1   
    37   20   21 1   
    38   20   39 1   
    39   20   47 1   
    40   22   44 1   
    41   23   46 1   
    42   24   46 1   
    43   25   46 1   
    44   26   28 1   
    45   36   45 1   
    46   42   43 1   
@<TRIPOS>SUBSTRUCTURE
     1 D2H         1 TEMP              0 ****  ****    0 ROOT
