@<TRIPOS>MOLECULE
D2H
   47    48     1     0     0
SMALL
bcc


@<TRIPOS>ATOM
      1 N1          0.3040    0.8410    0.1150 nb        1 D2H     -0.838000
      2 C2          1.6210    0.4050    0.1960 ca        1 D2H      0.917900
      3 N3          2.2370   -0.2170    1.2860 nb        1 D2H     -0.766000
      4 C4          1.4040   -0.3450    2.3350 ca        1 D2H      0.648600
      5 C5          0.0290    0.0580    2.3860 ca        1 D2H     -0.438400
      6 C6         -0.4990    0.6690    1.2120 ca        1 D2H      0.767200
      7 CAB        -5.0240    2.3040    2.5320 c3        1 D2H      0.110700
      8 CAC        -1.0260    0.5490    7.4290 c3        1 D2H     -0.089100
      9 NAD         2.4340    0.6730   -0.9070 nv        1 D2H     -0.930500
     10 NAE        -1.8290    1.0400    1.1590 nv        1 D2H     -0.948500
     11 CAG        -5.7120    0.1690    8.5990 cg        1 D2H     -0.170300
     12 CAH        -5.2370    0.6990    7.3900 ce        1 D2H     -0.045700
     13 CAI        -6.1350   -0.2680    9.6310 c1        1 D2H     -0.141500
     14 CAJ        -4.1390    0.2410    6.7610 cf        1 D2H     -0.079000
     15 CAK         0.6230   -0.8430    4.3740 cd        1 D2H     -0.043900
     16 CAL        -1.6770    2.7490    6.4590 c3        1 D2H     -0.071400
     17 OAP         1.7750   -0.9060    3.5620 os        1 D2H     -0.306400
     18 CAQ        -2.2010    0.6220    5.2310 cf        1 D2H     -0.034200
     19 CAS        -0.4470   -0.2820    3.7130 cc        1 D2H     -0.035200
     20 CAU        -4.5000    1.2820    4.5860 c2        1 D2H      0.029100
     21 CAV        -3.6430    0.7560    5.4950 cf        1 D2H     -0.102000
     22 CAY        -1.2400    1.3250    6.1420 c3        1 D2H     -0.031500
     23 HAA        -0.6120    3.7040    4.8270 hc        1 D2H      0.035367
     24 HAAA       -1.9830    4.6700    5.5110 hc        1 D2H      0.035367
     25 HAAB       -2.3220    3.2360    4.4500 hc        1 D2H      0.035367
     26 HAB        -5.8360    1.5660    2.3220 h1        1 D2H      0.046033
     27 HABA       -5.4440    3.2220    3.0090 h1        1 D2H      0.046033
     28 HABB       -4.4710    2.5620    1.5940 h1        1 D2H      0.046033
     29 HAC        -0.1600    0.9770    7.9890 hc        1 D2H      0.036700
     30 HACA       -1.9290    0.6080    8.0840 hc        1 D2H      0.036700
     31 HACB       -0.8130   -0.5240    7.2080 hc        1 D2H      0.036700
     32 HNAD        1.9790    0.8800   -1.7650 hn        1 D2H      0.431300
     33 HNAA        3.2940    0.1790   -0.9640 hn        1 D2H      0.431300
     34 HNAE       -2.2980    1.1400    2.0320 hn        1 D2H      0.435300
     35 HNAB       -2.1300    1.6190    0.4120 hn        1 D2H      0.435300
     36 HAF        -2.5610   -0.5720    3.5150 ha        1 D2H      0.139000
     37 HAG        -6.5090   -0.6530   10.5450 ha        1 D2H      0.166500
     38 HAH        -3.5410   -0.5820    7.1940 ha        1 D2H      0.143000
     39 HAI        -5.5830    1.3780    4.7560 h4        1 D2H      0.141000
     40 HAJ        -5.8290    1.5390    6.9820 ha        1 D2H      0.133000
     41 HAK         0.7780   -1.2540    5.3680 h4        1 D2H      0.195000
     42 HAL        -2.7130    2.7320    6.8920 hc        1 D2H      0.041700
     43 HALA       -0.9930    3.1650    7.2460 hc        1 D2H      0.041700
     44 HAY        -0.2440    1.3810    5.6080 hc        1 D2H      0.063700
     45 CAF        -1.8010   -0.0920    4.1610 ce        1 D2H     -0.114000
     46 CAA        -1.6450    3.6390    5.2440 c3        1 D2H     -0.096100
     47 OAO        -4.0220    1.7240    3.3660 os        1 D2H     -0.344900
@<TRIPOS>BOND
     1    1    2 ar  
     2    1    6 ar  
     3    2    3 ar  
     4    2    9 1   
     5    3    4 ar  
     6    4    5 ar  
     7    4   17 1   
     8    5    6 ar  
     9    5   19 1   
    10    6   10 1   
    11    7   26 1   
    12    7   27 1   
    13    7   28 1   
    14    7   47 1   
    15    8   22 1   
    16    8   29 1   
    17    8   30 1   
    18    8   31 1   
    19    9   32 1   
    20    9   33 1   
    21   10   34 1   
    22   10   35 1   
    23   11   12 1   
    24   11   13 3   
    25   12   14 2   
    26   12   40 1   
    27   13   37 1   
    28   14   21 1   
    29   14   38 1   
    30   15   17 1   
    31   15   19 2   
    32   15   41 1   
    33   16   22 1   
    34   16   42 1   
    35   16   43 1   
    36   16   46 1   
    37   18   21 1   
    38   18   22 1   
    39   18   45 2   
    40   19   45 1   
    41   20   21 2   
    42   20   39 1   
    43   20   47 1   
    44   22   44 1   
    45   23   46 1   
    46   24   46 1   
    47   25   46 1   
    48   36   45 1   
@<TRIPOS>SUBSTRUCTURE
     1 D2H         1 TEMP              0 ****  ****    0 ROOT
