@<TRIPOS>MOLECULE
D2J
   57    53     1     0     0
SMALL
bcc


@<TRIPOS>ATOM
      1 N1          2.6250    0.8990   -6.7230 n1        1 D2J     -0.279500
      2 C2          3.8930    1.3880   -6.6270 c1        1 D2J      0.207000
      3 N3          4.3930    1.7540   -5.4140 n1        1 D2J     -0.279500
      4 C4          3.6180    1.6310   -4.2830 c1        1 D2J      0.121000
      5 C5          2.3590    1.1450   -4.3770 c1        1 D2J     -0.249000
      6 C6          1.8560    0.7750   -5.6080 c1        1 D2J      0.207000
      7 CAA         4.1840    1.2480    2.2480 c3        1 D2J     -0.074000
      8 CAB         0.3030    1.8960   -3.4650 c3        1 D2J     -0.207000
      9 NAC         4.7050    1.5610   -7.8370 n3        1 D2J     -0.337500
     10 NAD         0.5290    0.2960   -5.7130 n3        1 D2J     -0.337500
     11 OAE        -8.5910   -2.0460    4.8150 o         1 D2J     -0.585000
     12 OAF        -7.6410   -2.2040    6.7730 o         1 D2J     -0.585000
     13 CAG         0.9170   -0.2870    2.7490 c1        1 D2J     -0.132000
     14 CAH         2.2620   -0.2900    2.4140 c1        1 D2J     -0.160000
     15 CAI         3.3720    1.8850   -1.9060 c1        1 D2J     -0.004000
     16 CAJ         0.3230   -0.0260    0.4260 c1        1 D2J     -0.184000
     17 CAK        -4.2130   -1.9400    3.7030 c3        1 D2J     -0.157000
     18 CAL        -3.0960   -0.8970    3.8380 c3        1 D2J     -0.163000
     19 CAM        -5.3760   -1.5770    4.6370 c3        1 D2J     -0.144000
     20 CAN        -2.0850   -1.0890    2.6960 c3        1 D2J     -0.024000
     21 CAO        -6.2660   -2.8090    4.8400 c3        1 D2J     -0.225000
     22 CAP         2.1030   -0.0730   -1.4020 c3        1 D2J     -0.064000
     23 NAQ         4.1370    2.0090   -3.0240 n1        1 D2J     -0.145000
     24 OAT         4.0100    0.1580    1.3340 os        1 D2J     -0.225000
     25 OAU        -1.1240   -0.0010    2.7080 os        1 D2J     -0.210000
     26 CAV        -7.6040   -2.3790    5.5240 c2        1 D2J      0.328000
     27 CAY         1.5640    1.0160   -3.2170 c2        1 D2J      0.034000
     28 CAZ        -0.0580   -0.1540    1.7470 c1        1 D2J      0.073000
     29 CBA         2.0680    1.3830   -2.0010 c2        1 D2J     -0.161000
     30 CBB         1.6890   -0.0290    0.0810 c2        1 D2J     -0.058000
     31 CBC         2.6500   -0.1600    1.0700 c2        1 D2J      0.037000
     32 HAA         4.9520    1.7780    1.9780 h1        1 D2J      0.081333
     33 HAAA        4.3300    0.8970    3.1470 h1        1 D2J      0.081333
     34 HAAB        3.3860    1.8060    2.2430 h1        1 D2J      0.081333
     35 HAB         0.4770    2.5200   -4.2170 hc        1 D2J      0.098333
     36 HABA       -0.4490    1.3270   -3.6860 hc        1 D2J      0.098333
     37 HABB        0.0990    2.4060   -2.6590 hc        1 D2J      0.098333
     38 HNAC        5.4540    2.1170   -7.8210 hn        1 D2J      0.221750
     39 HNAA        4.4640    1.1430   -8.6100 hn        1 D2J      0.221750
     40 HNAD        0.2750   -0.1940   -6.4460 hn        1 D2J      0.221750
     41 HNAB       -0.0690    0.4300   -5.0150 hn        1 D2J      0.221750
     42 HAG         0.6570   -0.3270    3.6550 ha        1 D2J      0.152000
     43 HAH         2.9380   -0.4970    3.1030 ha        1 D2J      0.136000
     44 HAI         3.7390    2.1380   -1.0290 ha        1 D2J      0.175000
     45 HAJ        -0.3600    0.0670   -0.2740 ha        1 D2J      0.141000
     46 HAK        -3.8680   -2.8150    3.9400 hc        1 D2J      0.066000
     47 HAKA       -4.5290   -1.9550    2.7890 hc        1 D2J      0.066000
     48 HAL        -3.4750   -0.0080    3.7890 hc        1 D2J      0.095500
     49 HALA       -2.6480   -1.0110    4.6890 hc        1 D2J      0.095500
     50 HAM        -5.0240   -1.2830    5.5020 hc        1 D2J      0.087500
     51 HAMA       -5.9030   -0.8550    4.2360 hc        1 D2J      0.087500
     52 HAN        -2.5570   -1.0950    1.8440 h1        1 D2J      0.072500
     53 HANA       -1.6270   -1.9200    2.8120 h1        1 D2J      0.072500
     54 HAO        -6.4600   -3.2200    3.9680 hc        1 D2J      0.058500
     55 HAOA       -5.7920   -3.4700    5.4210 hc        1 D2J      0.058500
     56 HAP         1.4910   -0.6340   -1.8890 hc        1 D2J      0.096500
     57 HAPA        2.9930   -0.4290   -1.4770 hc        1 D2J      0.096500
@<TRIPOS>BOND
     1    1    6 1   
     2    2    3 1   
     3    2    9 1   
     4    4    5 1   
     5    4   23 1   
     6    5   27 1   
     7    6   10 1   
     8    7   24 1   
     9    7   32 1   
    10    7   33 1   
    11    7   34 1   
    12    8   27 1   
    13    8   35 1   
    14    8   36 1   
    15    8   37 1   
    16    9   38 1   
    17    9   39 1   
    18   10   40 1   
    19   10   41 1   
    20   11   26 1   
    21   12   26 1   
    22   13   28 1   
    23   13   42 1   
    24   14   31 1   
    25   14   43 1   
    26   15   29 1   
    27   15   44 1   
    28   16   30 1   
    29   16   45 1   
    30   17   18 1   
    31   17   19 1   
    32   17   46 1   
    33   17   47 1   
    34   18   20 1   
    35   18   48 1   
    36   18   49 1   
    37   19   21 1   
    38   19   50 1   
    39   19   51 1   
    40   20   25 1   
    41   20   52 1   
    42   20   53 1   
    43   21   26 1   
    44   21   54 1   
    45   21   55 1   
    46   22   29 1   
    47   22   30 1   
    48   22   56 1   
    49   22   57 1   
    50   24   31 1   
    51   25   28 1   
    52   27   29 1   
    53   30   31 1   
@<TRIPOS>SUBSTRUCTURE
     1 D2J         1 TEMP              0 ****  ****    0 ROOT
