@<TRIPOS>MOLECULE
D2J
   57    58     1     0     0
SMALL
bcc


@<TRIPOS>ATOM
      1 N1         -2.9090   -1.8590    2.9300 nb        1 D2J     -0.854000
      2 C2         -4.0060   -2.5440    3.4810 ca        1 D2J      0.959900
      3 N3         -4.1920   -2.7270    4.8560 nb        1 D2J     -0.859000
      4 C4         -3.3490   -2.0490    5.6730 ca        1 D2J      0.758200
      5 C5         -2.3290   -1.1390    5.2040 ca        1 D2J     -0.498400
      6 C6         -2.1000   -1.1870    3.7770 ca        1 D2J      0.742200
      7 NAC        -4.9340   -3.0520    2.6310 nv        1 D2J     -0.874500
      8 NAD        -1.0070   -0.5150    3.2140 nv        1 D2J     -0.939500
      9 OAE        -6.6570   -5.1450    1.9320 o         1 D2J     -0.858800
     10 OAF        -5.4830   -4.3580    0.2110 o         1 D2J     -0.858800
     11 CAG         3.5710   -0.6970    8.9150 ca        1 D2J     -0.150000
     12 CAH         2.5230    0.1660    8.6340 ca        1 D2J     -0.149000
     13 CAI        -2.5980   -1.6970    7.9760 cc        1 D2J      0.222000
     14 CAJ         2.0010   -2.5560    9.0740 ca        1 D2J     -0.150000
     15 CAK        -7.4910   -8.1300   -1.4450 c3        1 D2J     -0.070400
     16 CAL        -6.9410   -9.5110   -1.6960 c3        1 D2J     -0.094100
     17 CAM        -6.6170   -7.3470   -0.4850 c3        1 D2J     -0.153300
     18 CAN         4.2050   -4.2310    9.5160 c3        1 D2J      0.115700
     19 CAO        -7.1240   -6.0090   -0.2220 c1        1 D2J     -0.031100
     20 NAQ        -3.4940   -2.2440    7.0430 na        1 D2J     -0.740700
     21 CAV        -6.3710   -5.1350    0.6910 c         1 D2J      0.815600
     22 CAY        -1.6770   -0.2990    6.1640 cd        1 D2J      0.109600
     23 CAZ         3.3060   -2.0610    9.1390 ca        1 D2J      0.078100
     24 CBA        -1.7650   -0.5850    7.5050 cc        1 D2J     -0.260200
     25 CBB         0.9470   -1.6890    8.7840 ca        1 D2J     -0.149000
     26 CBC         1.2060   -0.3320    8.5670 ca        1 D2J      0.101100
     27 HAA        -3.2230   -3.0260    9.5550 ha        1 D2J      0.114000
     28 HAAA       -1.1840   -0.1480    9.5640 h1        1 D2J      0.055200
     29 HAAB       -1.9250   -1.8120   10.0240 ha        1 D2J      0.114000
     30 HAB        -1.4440    1.3650    4.8070 hc        1 D2J      0.051700
     31 HABA       -0.9980    1.7180    6.5160 hc        1 D2J      0.051700
     32 HABB        0.1100    0.7100    5.5200 hc        1 D2J      0.051700
     33 HNAC       -4.7630   -3.0960    1.6380 hn        1 D2J      0.493300
     34 HNAA       -5.6400   -3.6960    2.9540 hn        1 D2J      0.493300
     35 HNAD       -0.2030   -0.4890    3.7990 hn        1 D2J      0.405300
     36 HNAB       -0.8120   -0.7270    2.2590 hn        1 D2J      0.405300
     37 HAG         4.6060   -0.3320    8.9690 ha        1 D2J      0.139000
     38 HAH         2.7050    1.2340    8.4540 ha        1 D2J      0.155500
     39 HAI        -4.1580   -2.9130    7.3680 hn        1 D2J      0.453800
     40 HAJ         1.7870   -3.6210    9.2400 ha        1 D2J      0.139000
     41 HAK        -5.9170   -9.4530   -2.1370 hc        1 D2J      0.021367
     42 HAKA       -7.5700   -7.5700   -2.4130 hc        1 D2J      0.042700
     43 HAL         3.7660   -4.6250    8.5680 h1        1 D2J      0.039367
     44 HALA        5.2300   -4.6480    9.6800 h1        1 D2J      0.039367
     45 HAM        -6.8770  -10.0890   -0.7430 hc        1 D2J      0.021367
     46 HAMA       -8.5270   -8.2040   -1.0230 hc        1 D2J      0.042700
     47 HAN         3.5410   -4.4730   10.3820 h1        1 D2J      0.039367
     48 HANA       -7.5980  -10.0710   -2.4040 hc        1 D2J      0.021367
     49 HAO        -5.5720   -7.2690   -0.9050 hc        1 D2J      0.069200
     50 HAOA       -6.5340   -7.9060    0.4920 hc        1 D2J      0.069200
     51 HAP        -1.6040    1.3010    8.5330 h1        1 D2J      0.055200
     52 HAPA       -0.0820   -2.0790    8.7140 ha        1 D2J      0.155500
     53 CAB        -0.9690    0.9300    5.7200 c3        1 D2J     -0.070900
     54 CAP        -1.1210    0.2800    8.5320 c3        1 D2J      0.198600
     55 CAA        -2.5760   -2.1990    9.2390 c2        1 D2J     -0.404000
     56 OAU         4.4230   -2.8290    9.4310 os        1 D2J     -0.335900
     57 OAT         0.2480    0.6090    8.2460 os        1 D2J     -0.342900
@<TRIPOS>BOND
     1    1    2 ar  
     2    1    6 ar  
     3    2    3 ar  
     4    2    7 1   
     5    3    4 ar  
     6    4    5 ar  
     7    4   20 1   
     8    5    6 ar  
     9    5   22 1   
    10    6    8 1   
    11    7   33 1   
    12    7   34 1   
    13    8   35 1   
    14    8   36 1   
    15    9   21 1   
    16   10   21 1   
    17   11   12 ar  
    18   11   23 ar  
    19   11   37 1   
    20   12   26 ar  
    21   12   38 1   
    22   13   20 1   
    23   13   24 1   
    24   13   55 2   
    25   14   23 ar  
    26   14   25 ar  
    27   14   40 1   
    28   15   16 1   
    29   15   17 1   
    30   15   42 1   
    31   15   46 1   
    32   16   41 1   
    33   16   45 1   
    34   16   48 1   
    35   17   19 1   
    36   17   49 1   
    37   17   50 1   
    38   18   43 1   
    39   18   44 1   
    40   18   47 1   
    41   18   56 1   
    42   19   21 3   
    43   20   39 1   
    44   22   24 2   
    45   22   53 1   
    46   23   56 1   
    47   24   54 1   
    48   25   26 ar  
    49   25   52 1   
    50   26   57 1   
    51   27   55 1   
    52   28   54 1   
    53   29   55 1   
    54   30   53 1   
    55   31   53 1   
    56   32   53 1   
    57   51   54 1   
    58   54   57 1   
@<TRIPOS>SUBSTRUCTURE
     1 D2J         1 TEMP              0 ****  ****    0 ROOT
