@<TRIPOS>MOLECULE
D2J
   57    57     1     0     0
SMALL
bcc


@<TRIPOS>ATOM
      1 N1         -2.2050   -0.8430    3.7690 nc        1 D2J     -0.845000
      2 C2         -1.7870   -1.3400    2.5360 cc        1 D2J      0.851300
      3 N3         -0.7440   -2.2880    2.3860 nc        1 D2J     -0.788000
      4 C4         -0.3860   -2.9670    3.4770 cd        1 D2J      0.779500
      5 C5         -0.9910   -2.7380    4.8130 cd        1 D2J     -0.417200
      6 C6         -1.7930   -1.4890    4.8850 cd        1 D2J      0.804500
      7 NAC        -2.2600   -0.7350    1.3910 nh        1 D2J     -0.400100
      8 NAD        -2.0980   -0.9630    6.0990 nh        1 D2J     -0.870800
      9 OAE        -3.8240   -2.5710    0.0590 o         1 D2J     -0.869300
     10 OAF        -3.5340   -3.0690    2.2090 o         1 D2J     -0.869300
     11 CAG         0.3340   -0.6470    8.4130 ca        1 D2J     -0.066500
     12 CAH         0.9820   -1.8160    8.7310 ca        1 D2J     -0.339500
     13 CAI         0.7660   -4.9350    4.3470 cc        1 D2J      0.156000
     14 CAJ        -1.5470   -1.2900    9.8200 ca        1 D2J     -0.066500
     15 CAK        -6.5730   -6.1810    0.7380 c3        1 D2J     -0.070400
     16 CAL        -8.0630   -6.2750    0.9460 c3        1 D2J     -0.094100
     17 CAM        -6.0580   -4.7830    1.0200 c3        1 D2J     -0.153300
     18 CAN        -1.4660    1.8690    9.2680 c3        1 D2J      0.121700
     19 CAO        -4.6210   -4.6640    0.8390 c1        1 D2J     -0.026100
     20 NAQ         0.5860   -3.9540    3.3510 na        1 D2J     -0.679000
     21 CAV        -3.9780   -3.3610    1.0480 c         1 D2J      0.819600
     22 CAY        -0.8180   -3.6550    5.8100 cc        1 D2J      0.157800
     23 CAZ        -0.9570   -0.3980    8.9090 ca        1 D2J     -0.164900
     24 CBA         0.2810   -4.6170    5.7040 cc        1 D2J     -0.139000
     25 CBB        -0.9090   -2.4630   10.1500 ca        1 D2J     -0.339500
     26 CBC         0.3790   -2.8080    9.5920 ca        1 D2J      0.540700
     27 HAA         1.7590   -6.3700    3.0760 ha        1 D2J      0.126500
     28 HAAA        1.7680   -5.7620    6.7320 ha        1 D2J      0.159000
     29 HAAB        1.5480   -6.8560    4.8530 ha        1 D2J      0.126500
     30 HAB        -2.7170   -3.4180    6.8020 hc        1 D2J      0.090700
     31 HABA       -1.7290   -4.8330    7.3430 hc        1 D2J      0.090700
     32 HABB       -1.2470   -3.1710    7.8670 hc        1 D2J      0.090700
     33 HNAC       -3.1440   -0.2770    1.4980 hn        1 D2J      0.301700
     34 HNAA       -2.2320   -1.3170    0.5620 hn        1 D2J      0.301700
     35 HNAD       -1.6610   -1.3110    6.9300 hn        1 D2J      0.469800
     36 HNAB       -2.5410   -0.0740    6.1710 hn        1 D2J      0.469800
     37 HAG         0.8060    0.1010    7.7570 ha        1 D2J      0.104000
     38 HAH         1.9880   -2.0240    8.3480 ha        1 D2J      0.115500
     39 HAI         0.8660   -4.2100    2.4240 hn        1 D2J      0.454800
     40 HAJ        -2.5300   -1.0420   10.2480 ha        1 D2J      0.104000
     41 HAK        -8.3310   -6.0190    2.0000 hc        1 D2J      0.023367
     42 HAKA       -6.0480   -6.9100    1.4090 hc        1 D2J      0.043700
     43 HAL        -0.3880    2.1630    9.2640 h1        1 D2J      0.019700
     44 HALA       -2.0920    2.6620    8.7900 h1        1 D2J      0.019700
     45 HAM        -8.6010   -5.5690    0.2690 hc        1 D2J      0.023367
     46 HAMA       -6.3170   -6.4630   -0.3170 hc        1 D2J      0.043700
     47 HAN        -1.8030    1.6790   10.3160 h1        1 D2J      0.019700
     48 HANA       -8.4230   -7.3100    0.7330 hc        1 D2J      0.023367
     49 HAO        -6.3130   -4.4930    2.0810 hc        1 D2J      0.071700
     50 HAOA       -6.5830   -4.0450    0.3470 hc        1 D2J      0.071700
     51 HAP         0.5810   -4.8430    7.8330 ha        1 D2J      0.159000
     52 HAPA       -1.3590   -3.1690   10.8580 ha        1 D2J      0.115500
     53 CAB        -1.6750   -3.7660    7.0070 c3        1 D2J     -0.128900
     54 CAP         0.8880   -5.1060    6.8010 c2        1 D2J     -0.097000
     55 CAA         1.3880   -6.1050    4.0730 c2        1 D2J     -0.291000
     56 OAU        -1.6700    0.7140    8.4620 os        1 D2J     -0.362900
     57 OAT         0.9250   -3.9320    9.8050 o         1 D2J     -0.791700
@<TRIPOS>BOND
     1    1    2 1   
     2    1    6 2   
     3    2    3 1   
     4    2    7 2   
     5    3    4 2   
     6    4    5 1   
     7    4   20 1   
     8    5    6 1   
     9    5   22 2   
    10    6    8 1   
    11    7   33 1   
    12    7   34 1   
    13    8   35 1   
    14    8   36 1   
    15    9   21 1   
    16   10   21 1   
    17   11   12 ar  
    18   11   23 ar  
    19   11   37 1   
    20   12   26 ar  
    21   12   38 1   
    22   13   20 1   
    23   13   24 1   
    24   13   55 2   
    25   14   23 ar  
    26   14   25 ar  
    27   14   40 1   
    28   15   16 1   
    29   15   17 1   
    30   15   42 1   
    31   15   46 1   
    32   16   41 1   
    33   16   45 1   
    34   16   48 1   
    35   17   19 1   
    36   17   49 1   
    37   17   50 1   
    38   18   43 1   
    39   18   44 1   
    40   18   47 1   
    41   18   56 1   
    42   19   21 3   
    43   20   39 1   
    44   22   24 1   
    45   22   53 1   
    46   23   56 1   
    47   24   54 2   
    48   25   26 ar  
    49   25   52 1   
    50   26   57 1   
    51   27   55 1   
    52   28   54 1   
    53   29   55 1   
    54   30   53 1   
    55   31   53 1   
    56   32   53 1   
    57   51   54 1   
@<TRIPOS>SUBSTRUCTURE
     1 D2J         1 TEMP              0 ****  ****    0 ROOT
