@<TRIPOS>MOLECULE
D2J
   57    59     1     0     0
SMALL
bcc


@<TRIPOS>ATOM
      1 N1         -4.7680   -3.5680   -0.3640 nb        1 D2J     -0.836000
      2 C2         -5.9000   -2.9040   -0.8460 ca        1 D2J      0.902900
      3 N3         -6.0330   -1.5520   -0.9750 nb        1 D2J     -0.767000
      4 C4         -5.0350   -0.7820   -0.4150 ca        1 D2J      0.710300
      5 C5         -3.9320   -1.3600    0.3200 ca        1 D2J     -0.376600
      6 C6         -3.7960   -2.8080    0.1860 ca        1 D2J      0.739200
      7 NAC        -6.9890   -3.7100   -1.2180 nh        1 D2J     -0.917500
      8 NAD        -2.6520   -3.4630    0.6190 nh        1 D2J     -0.947500
      9 OAE         8.3940   -3.2280   -0.3050 o         1 D2J     -0.850300
     10 OAF        10.1690   -1.8830   -0.1390 o         1 D2J     -0.850300
     11 CAG         1.2650    2.7190   -0.6270 ca        1 D2J     -0.175000
     12 CAH         0.1090    3.4490   -0.9050 ca        1 D2J     -0.163000
     13 CAI        -4.2310    1.3480    0.0080 ca        1 D2J      0.459200
     14 CAJ         0.0480    1.4720    1.0740 ca        1 D2J     -0.137000
     15 CAK         5.7750    0.1380   -0.3230 c3        1 D2J     -0.078400
     16 CAL         4.4810    0.0680    0.4600 c3        1 D2J     -0.084400
     17 CAM         6.7510   -0.9240    0.1370 c3        1 D2J     -0.065400
     18 CAN         3.4990    1.1040   -0.0560 c3        1 D2J      0.127400
     19 CAO         8.0500   -0.8600   -0.6290 c3        1 D2J     -0.196400
     20 NAQ        -5.1310    0.5980   -0.5920 nb        1 D2J     -0.667000
     21 CAV         8.9350   -2.0840   -0.3290 c         1 D2J      0.908600
     22 CAY        -3.0850   -0.4950    1.0770 ca        1 D2J      0.029700
     23 CAZ         1.2350    1.7310    0.3610 ca        1 D2J      0.115100
     24 CBA        -3.2090    0.8740    0.8920 ca        1 D2J     -0.234600
     25 CBB        -1.1110    2.1890    0.7960 ca        1 D2J     -0.069300
     26 CBC        -1.0700    3.1880   -0.2030 ca        1 D2J      0.083100
     27 HAA        -3.2900    5.2550   -1.4310 h1        1 D2J      0.041700
     28 HAAA       -1.5180    5.6740   -1.1780 h1        1 D2J      0.041700
     29 HAAB       -1.9920    4.4080   -2.4200 h1        1 D2J      0.041700
     30 HAB        -1.1500   -1.2630    1.6270 hc        1 D2J      0.057700
     31 HABA       -1.9510   -0.2710    2.8980 hc        1 D2J      0.057700
     32 HABB       -2.5520   -1.9330    2.5980 hc        1 D2J      0.057700
     33 HNAC       -6.7750   -4.6590   -1.4220 hn        1 D2J      0.418800
     34 HNAA       -7.6530   -3.2820   -1.8240 hn        1 D2J      0.418800
     35 HNAD       -1.8130   -2.9330    0.6240 hn        1 D2J      0.429300
     36 HNAB       -2.5570   -4.4280    0.3950 hn        1 D2J      0.429300
     37 HAG         2.1850    2.9320   -1.1890 ha        1 D2J      0.144000
     38 HAH         0.1440    4.2250   -1.6830 ha        1 D2J      0.135000
     39 HAI        -4.2960    2.4380   -0.1920 h4        1 D2J      0.036100
     40 HAJ         0.0510    0.6950    1.8530 ha        1 D2J      0.148000
     41 HAK         5.5610    0.0020   -1.4160 hc        1 D2J      0.028700
     42 HAKA        6.2350    1.1530   -0.1990 hc        1 D2J      0.028700
     43 HAL         4.0300   -0.9540    0.3660 hc        1 D2J      0.054200
     44 HALA        4.6770    0.2460    1.5490 hc        1 D2J      0.054200
     45 HAM         6.9550   -0.7970    1.2320 hc        1 D2J      0.047200
     46 HAMA        6.3040   -1.9460   -0.0010 hc        1 D2J      0.047200
     47 HAN         3.8960    2.1440    0.0810 h1        1 D2J      0.035200
     48 HANA        3.2600    0.9310   -1.1380 h1        1 D2J      0.035200
     49 HAO         7.8460   -0.8500   -1.7300 hc        1 D2J      0.019200
     50 HAOA        8.6090    0.0740   -0.3740 hc        1 D2J      0.019200
     51 HAP        -2.9580    2.8670    1.6340 hc        1 D2J      0.060200
     52 HAPA       -2.1090    1.6080    2.6040 hc        1 D2J      0.060200
     53 CAB        -2.1410   -1.0240    2.0920 c3        1 D2J     -0.077800
     54 CAP        -2.3670    1.9110    1.5540 c3        1 D2J      0.026200
     55 CAA        -2.2420    4.8620   -1.4300 c3        1 D2J      0.115700
     56 OAU         2.3070    0.9490    0.7310 os        1 D2J     -0.331900
     57 OAT        -2.2610    3.8710   -0.4110 os        1 D2J     -0.338900
@<TRIPOS>BOND
     1    1    2 ar  
     2    1    6 ar  
     3    2    3 ar  
     4    2    7 1   
     5    3    4 ar  
     6    4    5 ar  
     7    4   20 ar  
     8    5    6 ar  
     9    5   22 ar  
    10    6    8 1   
    11    7   33 1   
    12    7   34 1   
    13    8   35 1   
    14    8   36 1   
    15    9   21 1   
    16   10   21 1   
    17   11   12 ar  
    18   11   23 ar  
    19   11   37 1   
    20   12   26 ar  
    21   12   38 1   
    22   13   20 ar  
    23   13   24 ar  
    24   13   39 1   
    25   14   23 ar  
    26   14   25 ar  
    27   14   40 1   
    28   15   16 1   
    29   15   17 1   
    30   15   41 1   
    31   15   42 1   
    32   16   18 1   
    33   16   43 1   
    34   16   44 1   
    35   17   19 1   
    36   17   45 1   
    37   17   46 1   
    38   18   47 1   
    39   18   48 1   
    40   18   56 1   
    41   19   21 1   
    42   19   49 1   
    43   19   50 1   
    44   22   24 ar  
    45   22   53 1   
    46   23   56 1   
    47   24   54 1   
    48   25   26 ar  
    49   25   54 1   
    50   26   57 1   
    51   27   55 1   
    52   28   55 1   
    53   29   55 1   
    54   30   53 1   
    55   31   53 1   
    56   32   53 1   
    57   51   54 1   
    58   52   54 1   
    59   55   57 1   
@<TRIPOS>SUBSTRUCTURE
     1 D2J         1 TEMP              0 ****  ****    0 ROOT
