@<TRIPOS>MOLECULE
D2K
   58    54     1     0     0
SMALL
bcc


@<TRIPOS>ATOM
      1 N1          3.5460    2.4760   -5.7940 n1        1 D2K     -0.274000
      2 C2          4.7880    1.8800   -5.5780 c1        1 D2K      0.206500
      3 N3          5.1690    1.5270   -4.3040 n1        1 D2K     -0.274000
      4 C4          4.3020    1.7670   -3.2140 c1        1 D2K      0.123000
      5 C5          3.0850    2.3510   -3.4260 c1        1 D2K     -0.250000
      6 C6          2.6990    2.7120   -4.7330 c1        1 D2K      0.206500
      7 CAA        -8.8360   -4.0460    4.0480 c3        1 D2K     -0.218000
      8 CAB         4.6390    0.1780    2.8280 c3        1 D2K     -0.076000
      9 CAC         1.2820    3.7610   -2.3760 c3        1 D2K     -0.201000
     10 NAD         5.7140    1.7100   -6.6920 n3        1 D2K     -0.337500
     11 NAE         1.7660    3.3480   -5.7020 n3        1 D2K     -0.337500
     12 OAF        -6.1250   -2.4130    1.3370 o         1 D2K     -0.351000
     13 CAG         0.9390   -1.5810    1.8400 c1        1 D2K     -0.170000
     14 CAH         2.2090   -1.0530    2.0820 c1        1 D2K     -0.166000
     15 CAI         3.8720    1.6310   -0.8450 c1        1 D2K     -0.006000
     16 CAJ         0.3790    0.3410    0.5630 c1        1 D2K     -0.127000
     17 CAK        -7.9840   -3.3550    2.9880 c3        1 D2K     -0.012000
     18 CAL        -3.4310   -2.0500    1.5540 c3        1 D2K     -0.165000
     19 CAM        -1.9300   -1.9070    1.9060 c3        1 D2K     -0.020000
     20 CAN        -4.1930   -2.8010    2.7500 c3        1 D2K     -0.156000
     21 CAO         1.9950    2.2820    0.3700 c3        1 D2K     -0.069000
     22 NAP         4.6980    1.4000   -1.8810 n1        1 D2K     -0.136000
     23 OAS         3.3950    0.8700    2.5330 os        1 D2K     -0.217000
     24 OAT        -6.5660   -3.4910    3.3450 os        1 D2K     -0.282000
     25 OAU        -1.2290   -1.3200    0.7860 os        1 D2K     -0.213000
     26 CAV        -5.6860   -2.8640    2.4400 c2        1 D2K      0.303000
     27 CAX         0.0370   -0.8820    1.0850 c1        1 D2K      0.051000
     28 CAZ         2.2180    2.5940   -2.3450 c2        1 D2K      0.038000
     29 CBA         2.5960    2.2440   -1.0700 c2        1 D2K     -0.169000
     30 CBB         1.6700    0.8800    0.8080 c2        1 D2K     -0.057000
     31 CBC         2.5590    0.1880    1.5540 c2        1 D2K      0.054000
     32 HAA        -8.6860   -5.0800    3.9960 hc        1 D2K      0.088000
     33 HAAA       -8.5710   -3.7170    4.9530 hc        1 D2K      0.088000
     34 HAAB       -9.6830   -3.8660    3.9080 hc        1 D2K      0.088000
     35 HAB         4.5440   -0.3030    3.5980 h1        1 D2K      0.085000
     36 HABA        5.3930    0.8590    2.9420 h1        1 D2K      0.085000
     37 HABB        4.8370   -0.3740    2.1580 h1        1 D2K      0.085000
     38 HAC         1.0340    3.9770   -1.5190 hc        1 D2K      0.095000
     39 HACA        1.7650    4.5860   -2.8220 hc        1 D2K      0.095000
     40 HACB        0.4470    3.5180   -2.9230 hc        1 D2K      0.095000
     41 HNAD        5.4970    2.0030   -7.4820 hn        1 D2K      0.222750
     42 HNAA        6.5670    1.4430   -6.5330 hn        1 D2K      0.222750
     43 HNAE        1.7640    3.0890   -6.5270 hn        1 D2K      0.222750
     44 HNAB        1.1220    3.9110   -5.4050 hn        1 D2K      0.222750
     45 HAG         0.7010   -2.4310    2.2040 ha        1 D2K      0.138000
     46 HAH         2.8660   -1.5650    2.6340 ha        1 D2K      0.140000
     47 HAI         4.1430    1.4080    0.0400 ha        1 D2K      0.174000
     48 HAJ        -0.2060    0.7920    0.0750 ha        1 D2K      0.149000
     49 HAK        -8.1300   -3.7370    2.1930 h1        1 D2K      0.091500
     50 HAKA       -8.2290   -2.3720    2.9370 h1        1 D2K      0.091500
     51 HAL        -3.5230   -2.5650    0.7390 hc        1 D2K      0.113500
     52 HALA       -3.8000   -1.2160    1.4320 hc        1 D2K      0.113500
     53 HAM        -1.5350   -2.8390    2.1100 h1        1 D2K      0.079000
     54 HAMA       -1.8320   -1.3370    2.6870 h1        1 D2K      0.079000
     55 HAN        -3.8330   -3.7230    2.8410 hc        1 D2K      0.118500
     56 HANA       -4.0590   -2.3300    3.5560 hc        1 D2K      0.118500
     57 HAO         1.1840    2.8230    0.3710 hc        1 D2K      0.102500
     58 HAOA        2.6460    2.6700    0.9810 hc        1 D2K      0.102500
@<TRIPOS>BOND
     1    1    6 1   
     2    2    3 1   
     3    2   10 1   
     4    4    5 1   
     5    4   22 1   
     6    5   28 1   
     7    6   11 1   
     8    7   17 1   
     9    7   32 1   
    10    7   33 1   
    11    7   34 1   
    12    8   23 1   
    13    8   35 1   
    14    8   36 1   
    15    8   37 1   
    16    9   28 1   
    17    9   38 1   
    18    9   39 1   
    19    9   40 1   
    20   10   41 1   
    21   10   42 1   
    22   11   43 1   
    23   11   44 1   
    24   12   26 1   
    25   13   27 1   
    26   13   45 1   
    27   14   31 1   
    28   14   46 1   
    29   15   29 1   
    30   15   47 1   
    31   16   30 1   
    32   16   48 1   
    33   17   24 1   
    34   17   49 1   
    35   17   50 1   
    36   18   19 1   
    37   18   20 1   
    38   18   51 1   
    39   18   52 1   
    40   19   25 1   
    41   19   53 1   
    42   19   54 1   
    43   20   26 1   
    44   20   55 1   
    45   20   56 1   
    46   21   29 1   
    47   21   30 1   
    48   21   57 1   
    49   21   58 1   
    50   23   31 1   
    51   24   26 1   
    52   25   27 1   
    53   28   29 1   
    54   30   31 1   
@<TRIPOS>SUBSTRUCTURE
     1 D2K         1 TEMP              0 ****  ****    0 ROOT
