@<TRIPOS>MOLECULE
D2K
   58    54     1     0     0
SMALL
bcc


@<TRIPOS>ATOM
      1 N1         -2.2760   -0.5310    0.1580 n2        1 D2K     -0.295000
      2 C2         -1.2090    0.2760    0.5090 c2        1 D2K      0.190000
      3 N3         -0.6740    0.3940    1.7780 n2        1 D2K     -0.284000
      4 C4         -1.2250   -0.3910    2.7480 c2        1 D2K      0.149000
      5 C5         -2.2910   -1.2940    2.4940 c2        1 D2K     -0.221000
      6 C6         -2.7880   -1.3320    1.1400 c2        1 D2K      0.201000
      7 CAA        -8.8910   -6.0490    3.9850 c1        1 D2K     -0.230000
      8 NAD        -0.5860    0.9960   -0.5210 nh        1 D2K     -0.323000
      9 NAE        -3.7920   -2.2250    0.8020 nh        1 D2K     -0.346000
     10 OAF        -4.8540   -5.6100    5.3540 o         1 D2K     -0.383000
     11 CAG        -0.7730   -4.7270    8.4410 ca        1 D2K     -0.132500
     12 CAH         0.2110   -3.9000    8.9800 ca        1 D2K     -0.111500
     13 CAI         0.3530    0.1740    4.4220 c1        1 D2K      0.086000
     14 CAJ        -0.9600   -3.2330    6.5070 ca        1 D2K     -0.132500
     15 CAK        -7.8840   -5.5300    4.3680 c1        1 D2K     -0.230000
     16 CAL        -6.1440   -2.4540    5.6630 c3        1 D2K     -0.278000
     17 CAM        -2.2810   -6.4820    6.7090 c2        1 D2K      0.060000
     18 CAN        -3.2840   -7.2580    6.2550 c2        1 D2K     -0.262000
     19 NAP        -0.7590   -0.3010    4.0960 n2        1 D2K     -0.098000
     20 OAS         1.6290   -1.9070    8.7600 os        1 D2K     -0.036000
     21 OAT        -5.4550   -7.7340    5.4550 oh        1 D2K     -0.318000
     22 CAV        -4.5240   -6.7590    5.6780 c2        1 D2K      0.359000
     23 CAX        -1.3430   -4.3860    7.2100 ca        1 D2K      0.034000
     24 CAZ        -2.8710   -2.1050    3.5480 c2        1 D2K     -0.112000
     25 CBA         1.4460    0.6030    4.9130 c1        1 D2K     -0.234000
     26 CBB         0.0180   -2.4070    7.0530 ca        1 D2K     -0.111500
     27 CBC         0.5910   -2.7520    8.2820 ca        1 D2K     -0.078000
     28 HAA        -9.7840   -6.5090    3.6450 ha        1 D2K      0.230000
     29 HAAA       -7.1620   -9.4740    5.0100 ha        1 D2K      0.003000
     30 HAAB       -6.6340   -9.7900    5.2920 ha        1 D2K      0.003000
     31 HAB         1.0990   -2.0240   10.7670 ha        1 D2K      0.031000
     32 HABA        2.9100   -3.6810   10.6060 ha        1 D2K      0.003000
     33 HABB        3.4410   -3.2600   10.5710 ha        1 D2K      0.003000
     34 HAC        -2.6670   -4.0450    2.6650 ha        1 D2K      0.130500
     35 HACA       -3.4590   -3.9940    4.3440 ha        1 D2K      0.130500
     36 HACB        3.3700    1.4460    4.8410 ha        1 D2K      0.133500
     37 HNAD       -0.0240    1.7660   -0.2400 hn        1 D2K      0.219500
     38 HNAA       -1.1150    1.1210   -1.3530 hn        1 D2K      0.219500
     39 HNAE       -4.2530   -2.1130   -0.0690 hn        1 D2K      0.226000
     40 HNAB       -4.3210   -2.6020    1.5540 hn        1 D2K      0.226000
     41 HAG        -1.1010   -5.6250    8.9840 ha        1 D2K      0.163500
     42 HAH         0.6840   -4.1510    9.9410 ha        1 D2K      0.157500
     43 HAI        -3.2010   -1.5360    4.4380 ha        1 D2K      0.136000
     44 HAJ        -1.4430   -2.9870    5.5440 ha        1 D2K      0.163500
     45 HAK        -6.9880   -5.0590    4.7080 ha        1 D2K      0.230000
     46 HAKA       -6.2570   -7.3350    5.0710 ho        1 D2K      0.250000
     47 HAL        -1.3480   -6.8950    7.1290 h4        1 D2K      0.153000
     48 HALA       -6.3680   -2.1890    6.7190 hc        1 D2K      0.069500
     49 HAM        -5.5680   -1.6300    5.1890 hc        1 D2K      0.069500
     50 HAMA       -5.5400   -3.3900    5.6350 hc        1 D2K      0.069500
     51 HAN        -7.0950   -2.6100    5.1100 hc        1 D2K      0.069500
     52 HANA       -3.1910   -8.3550    6.3070 ha        1 D2K      0.170000
     53 HAO         2.7250    1.0060    6.5370 ha        1 D2K      0.133500
     54 HAOA        0.3400   -1.4940    6.5250 ha        1 D2K      0.157500
     55 CAC        -3.0040   -3.4320    3.5110 c2        1 D2K     -0.231000
     56 CAO         2.5490    1.0330    5.4500 c2        1 D2K     -0.036000
     57 OAU        -2.3960   -5.1110    6.6440 os        1 D2K     -0.133000
     58 CAB         1.7900   -1.6210    9.9950 c1        1 D2K     -0.015000
@<TRIPOS>BOND
     1    1    2 1   
     2    1    6 1   
     3    2    3 1   
     4    2    8 1   
     5    3    4 1   
     6    4    5 1   
     7    4   19 1   
     8    5    6 1   
     9    5   24 1   
    10    6    9 1   
    11    7   15 1   
    12    7   28 1   
    13    8   37 1   
    14    8   38 1   
    15    9   39 1   
    16    9   40 1   
    17   10   22 1   
    18   11   12 1   
    19   11   23 1   
    20   11   41 1   
    21   12   27 1   
    22   12   42 1   
    23   13   19 1   
    24   13   25 1   
    25   14   23 1   
    26   14   26 1   
    27   14   44 1   
    28   15   45 1   
    29   16   48 1   
    30   16   49 1   
    31   16   50 1   
    32   16   51 1   
    33   17   18 1   
    34   17   47 1   
    35   17   57 1   
    36   18   22 1   
    37   18   52 1   
    38   20   27 1   
    39   20   58 1   
    40   21   22 1   
    41   21   46 1   
    42   23   57 1   
    43   24   43 1   
    44   24   55 1   
    45   25   56 1   
    46   26   27 1   
    47   26   54 1   
    48   29   30 1   
    49   31   58 1   
    50   32   33 1   
    51   34   55 1   
    52   35   55 1   
    53   36   56 1   
    54   53   56 1   
@<TRIPOS>SUBSTRUCTURE
     1 D2K         1 TEMP              0 ****  ****    0 ROOT
