@<TRIPOS>MOLECULE
D2K
   58    60     1     0     0
SMALL
bcc


@<TRIPOS>ATOM
      1 N1         -5.0260   -3.4220   -0.1900 nb        1 D2K     -0.834000
      2 C2         -6.1150   -2.6670   -0.6340 ca        1 D2K      0.912900
      3 N3         -6.1280   -1.3080   -0.7830 nb        1 D2K     -0.765000
      4 C4         -5.0430   -0.6260   -0.2800 ca        1 D2K      0.714300
      5 C5         -3.9630   -1.2910    0.4170 ca        1 D2K     -0.380600
      6 C6         -3.9670   -2.7460    0.3070 ca        1 D2K      0.736200
      7 CAA        10.4140   -1.3040   -0.0230 c3        1 D2K     -0.101100
      8 NAD        -7.2840   -3.3710   -0.9430 nh        1 D2K     -0.923500
      9 NAE        -2.8710   -3.4990    0.7090 nh        1 D2K     -0.946500
     10 OAF         6.5220   -2.4970   -0.3520 o         1 D2K     -0.540000
     11 CAG         1.4340    2.5100   -0.8710 ca        1 D2K     -0.171000
     12 CAH         0.3120    3.3240   -1.0350 ca        1 D2K     -0.166000
     13 CAI        -4.0420    1.4310    0.0810 ca        1 D2K      0.459200
     14 CAJ         0.2580    1.2680    0.8640 ca        1 D2K     -0.127000
     15 CAK         9.0640   -1.9720   -0.1060 c3        1 D2K      0.138400
     16 CAL         4.5870   -0.2910   -0.0240 c3        1 D2K     -0.086400
     17 CAM         3.6170    0.7890   -0.4710 c3        1 D2K      0.130400
     18 CAN         5.8940   -0.1500   -0.7730 c3        1 D2K     -0.127400
     19 NAP        -5.0240    0.7560   -0.4740 nb        1 D2K     -0.662000
     20 OAS        -1.9810    3.8720   -0.3530 os        1 D2K     -0.332900
     21 OAT         8.1110   -0.9250   -0.3630 os        1 D2K     -0.443900
     22 CAV         6.8030   -1.3030   -0.4780 c         1 D2K      0.632100
     23 CAX         1.4040    1.4860    0.0770 ca        1 D2K      0.096100
     24 CAZ        -3.0110   -0.4950    1.1230 ca        1 D2K      0.030700
     25 CBA        -3.0250    0.8780    0.9280 ca        1 D2K     -0.241600
     26 CBB        -0.8660    2.0710    0.7030 ca        1 D2K     -0.064300
     27 CBC        -0.8280    3.1100   -0.2580 ca        1 D2K      0.098100
     28 HAA        10.6540   -0.7840   -0.9810 hc        1 D2K      0.048700
     29 HAAA       10.4290   -0.5490    0.7990 hc        1 D2K      0.048700
     30 HAAB       11.1910   -2.0790    0.1770 hc        1 D2K      0.048700
     31 HAB        -1.1610    5.6710   -1.0520 h1        1 D2K      0.045700
     32 HABA       -1.8140    4.5310   -2.3360 h1        1 D2K      0.045700
     33 HABB       -2.9730    5.3930   -1.1990 h1        1 D2K      0.045700
     34 HAC        -1.1310   -1.4350    1.5900 hc        1 D2K      0.055367
     35 HACA       -1.7690   -0.3560    2.8830 hc        1 D2K      0.055367
     36 HACB       -2.5370   -1.9550    2.6410 hc        1 D2K      0.055367
     37 HNAD       -7.1860   -4.3450   -1.1120 hn        1 D2K      0.427300
     38 HNAA       -7.9540   -2.8930   -1.5000 hn        1 D2K      0.427300
     39 HNAE       -1.9870   -3.0530    0.6410 hn        1 D2K      0.424300
     40 HNAB       -2.8810   -4.4730    0.5030 hn        1 D2K      0.424300
     41 HAG         2.3230    2.6910   -1.4900 ha        1 D2K      0.138000
     42 HAH         0.3440    4.1300   -1.7820 ha        1 D2K      0.140000
     43 HAI        -4.0240    2.5220   -0.1250 h4        1 D2K      0.037100
     44 HAJ         0.2600    0.4550    1.6070 ha        1 D2K      0.150000
     45 HAK         9.0130   -2.7170   -0.9430 h1        1 D2K      0.052200
     46 HAKA        8.7870   -2.4810    0.8540 h1        1 D2K      0.052200
     47 HAL         4.7610   -0.2040    1.0810 hc        1 D2K      0.074200
     48 HALA        4.1420   -1.3040   -0.2110 hc        1 D2K      0.074200
     49 HAM         4.0430    1.8130   -0.2990 h1        1 D2K      0.039200
     50 HAMA        3.3500    0.6690   -1.5540 h1        1 D2K      0.039200
     51 HAN         5.7120   -0.1430   -1.8820 hc        1 D2K      0.079200
     52 HANA        6.4040    0.8120   -0.5020 hc        1 D2K      0.079200
     53 HAO        -2.6060    2.8340    1.6860 hc        1 D2K      0.063700
     54 HAOA       -1.7610    1.5100    2.5680 hc        1 D2K      0.063700
     55 CAC        -2.0690   -1.0960    2.1000 c3        1 D2K     -0.075800
     56 CAO        -2.0780    1.8480    1.5450 c3        1 D2K      0.024200
     57 OAU         2.4480    0.6150    0.3370 os        1 D2K     -0.329900
     58 CAB        -1.9590    4.9300   -1.3030 c3        1 D2K      0.113700
@<TRIPOS>BOND
     1    1    2 ar  
     2    1    6 ar  
     3    2    3 ar  
     4    2    8 1   
     5    3    4 ar  
     6    4    5 ar  
     7    4   19 ar  
     8    5    6 ar  
     9    5   24 ar  
    10    6    9 1   
    11    7   15 1   
    12    7   28 1   
    13    7   29 1   
    14    7   30 1   
    15    8   37 1   
    16    8   38 1   
    17    9   39 1   
    18    9   40 1   
    19   10   22 2   
    20   11   12 ar  
    21   11   23 ar  
    22   11   41 1   
    23   12   27 ar  
    24   12   42 1   
    25   13   19 ar  
    26   13   25 ar  
    27   13   43 1   
    28   14   23 ar  
    29   14   26 ar  
    30   14   44 1   
    31   15   21 1   
    32   15   45 1   
    33   15   46 1   
    34   16   17 1   
    35   16   18 1   
    36   16   47 1   
    37   16   48 1   
    38   17   49 1   
    39   17   50 1   
    40   17   57 1   
    41   18   22 1   
    42   18   51 1   
    43   18   52 1   
    44   20   27 1   
    45   20   58 1   
    46   21   22 1   
    47   23   57 1   
    48   24   25 ar  
    49   24   55 1   
    50   25   56 1   
    51   26   27 ar  
    52   26   56 1   
    53   31   58 1   
    54   32   58 1   
    55   33   58 1   
    56   34   55 1   
    57   35   55 1   
    58   36   55 1   
    59   53   56 1   
    60   54   56 1   
@<TRIPOS>SUBSTRUCTURE
     1 D2K         1 TEMP              0 ****  ****    0 ROOT
