@<TRIPOS>MOLECULE
D2M
   40    41     1     0     0
SMALL
bcc


@<TRIPOS>ATOM
      1 O29        -0.0290    0.1640    0.2360 oh        1 D2M     -0.477100
      2 C28         1.3360    0.1000    0.0740 ca        1 D2M      0.049100
      3 C26         2.1350    0.0780    1.2410 ca        1 D2M      0.122100
      4 O32         1.4380    0.0980    2.4310 os        1 D2M     -0.322900
      5 C34         2.2290    0.1020    3.6150 c3        1 D2M      0.116200
      6 C23         3.5270    0.0350    1.1460 ca        1 D2M     -0.239000
      7 C21         4.1190    0.0110   -0.1270 ca        1 D2M      0.166100
      8 C22         3.3590    0.0300   -1.2980 ca        1 D2M     -0.239000
      9 C24         1.9650    0.0780   -1.1850 ca        1 D2M      0.122100
     10 O31         1.0970    0.1170   -2.2640 os        1 D2M     -0.322900
     11 C33         1.6810   -0.1090   -3.5410 c3        1 D2M      0.116200
     12 O20         5.5100   -0.0400   -0.1030 os        1 D2M     -0.215200
     13 C3          6.1540   -0.0110   -1.3320 ca        1 D2M      0.018100
     14 C4          6.5370   -1.2170   -1.9600 ca        1 D2M      0.155600
     15 O10         6.0750   -2.3660   -1.3590 os        1 D2M     -0.304400
     16 C11         6.5070   -3.5950   -1.9360 c3        1 D2M      0.110700
     17 C5          7.3300   -1.1890   -3.1150 ca        1 D2M     -0.237500
     18 C6          7.7360    0.0340   -3.6400 ca        1 D2M     -0.058000
     19 C1          7.3700    1.2360   -3.0400 ca        1 D2M     -0.237500
     20 C2          6.5790    1.2180   -1.8830 ca        1 D2M      0.155600
     21 O15         6.1620    2.3420   -1.2070 os        1 D2M     -0.304400
     22 C16         6.5930    3.5920   -1.7360 c3        1 D2M      0.110700
     23 HO29       -0.4310    0.0450   -0.6380 ho        1 D2M      0.426000
     24 H34         2.8830    1.0070    3.6520 h1        1 D2M      0.045200
     25 H34A        2.8430   -0.8280    3.6830 h1        1 D2M      0.045200
     26 H34B        1.4640    0.1330    4.4330 h1        1 D2M      0.045200
     27 H23         4.1700    0.0180    2.0360 ha        1 D2M      0.154500
     28 H22         3.8510    0.0120   -2.2780 ha        1 D2M      0.154500
     29 H33         2.3680    0.7300   -3.8080 h1        1 D2M      0.045200
     30 H33A        0.7980   -0.1310   -4.2300 h1        1 D2M      0.045200
     31 H33B        2.2250   -1.0840   -3.5620 h1        1 D2M      0.045200
     32 H11         7.6210   -3.6730   -1.9130 h1        1 D2M      0.047700
     33 H11A        6.1270   -3.6950   -2.9810 h1        1 D2M      0.047700
     34 H11B        6.0420   -4.3660   -1.2700 h1        1 D2M      0.047700
     35 H5          7.6350   -2.1230   -3.6070 ha        1 D2M      0.143000
     36 H6          8.3610    0.0520   -4.5470 ha        1 D2M      0.136000
     37 H1          7.7080    2.1870   -3.4720 ha        1 D2M      0.143000
     38 H16         6.1450    4.3360   -1.0290 h1        1 D2M      0.047700
     39 H16A        7.7080    3.6610   -1.7270 h1        1 D2M      0.047700
     40 H16B        6.1970    3.7410   -2.7690 h1        1 D2M      0.047700
@<TRIPOS>BOND
     1    1    2 1   
     2    1   23 1   
     3    2    3 ar  
     4    2    9 ar  
     5    3    4 1   
     6    3    6 ar  
     7    4    5 1   
     8    5   24 1   
     9    5   25 1   
    10    5   26 1   
    11    6    7 ar  
    12    6   27 1   
    13    7    8 ar  
    14    7   12 1   
    15    8    9 ar  
    16    8   28 1   
    17    9   10 1   
    18   10   11 1   
    19   11   29 1   
    20   11   30 1   
    21   11   31 1   
    22   12   13 1   
    23   13   14 ar  
    24   13   20 ar  
    25   14   15 1   
    26   14   17 ar  
    27   15   16 1   
    28   16   32 1   
    29   16   33 1   
    30   16   34 1   
    31   17   18 ar  
    32   17   35 1   
    33   18   19 ar  
    34   18   36 1   
    35   19   20 ar  
    36   19   37 1   
    37   20   21 1   
    38   21   22 1   
    39   22   38 1   
    40   22   39 1   
    41   22   40 1   
@<TRIPOS>SUBSTRUCTURE
     1 D2M         1 TEMP              0 ****  ****    0 ROOT
