@<TRIPOS>MOLECULE
D2M
   40    37     1     0     0
SMALL
bcc


@<TRIPOS>ATOM
      1 O29        -4.5950   -0.3660    0.0360 oh        1 D2M     -0.261000
      2 C28        -3.1880   -0.5940    0.0110 c2        1 D2M     -0.029000
      3 C26        -2.4290   -0.1700   -1.0950 c2        1 D2M      0.109000
      4 O32        -3.0650    0.5060   -2.1840 os        1 D2M     -0.209000
      5 C34        -2.9680    1.9580   -2.1150 c3        1 D2M     -0.066000
      6 C23        -1.0620   -0.4630   -1.1580 c1        1 D2M     -0.204000
      7 C21        -0.4500   -1.1800   -0.1190 c1        1 D2M      0.108000
      8 C22        -1.2060   -1.6030    0.9820 c1        1 D2M     -0.216000
      9 C24        -2.5730   -1.3110    1.0490 c1        1 D2M      0.053000
     10 O31        -3.3610   -1.8190    2.1370 os        1 D2M     -0.232000
     11 C33        -3.2870   -1.0260    3.3400 c3        1 D2M     -0.068000
     12 O20         0.9240   -1.5060   -0.2010 os        1 D2M     -0.149000
     13 C3          1.7030   -0.2880   -0.3360 c2        1 D2M     -0.022000
     14 C4          2.2360    0.0650   -1.5790 c2        1 D2M      0.088000
     15 O10         2.1170   -0.8090   -2.6610 os        1 D2M     -0.219000
     16 C11         3.3620   -1.3240   -3.1310 c3        1 D2M     -0.074000
     17 C5          2.9030    1.2550   -1.7300 c1        1 D2M     -0.171000
     18 C6          3.0500    2.1100   -0.6480 c1        1 D2M     -0.146500
     19 C1          2.5180    1.7600    0.5960 c1        1 D2M     -0.146500
     20 C2          1.8470    0.5610    0.7450 c1        1 D2M      0.093000
     21 O15         1.4280    0.1360    2.0420 os        1 D2M     -0.192000
     22 C16         2.4770    0.1030    3.0040 c3        1 D2M     -0.078000
     23 HO29       -4.9650   -0.8430    0.7020 ho        1 D2M      0.233000
     24 H34        -2.6890    2.3100   -2.9940 h1        1 D2M      0.088000
     25 H34A       -2.3140    2.2070   -1.4450 h1        1 D2M      0.088000
     26 H34B       -3.8610    2.3430   -1.8690 h1        1 D2M      0.088000
     27 H23        -0.5240   -0.1640   -1.9400 ha        1 D2M      0.169000
     28 H22        -0.7720   -2.1080    1.7140 ha        1 D2M      0.156000
     29 H33        -4.0780   -0.4330    3.3920 h1        1 D2M      0.086333
     30 H33A       -3.2690   -1.6420    4.1510 h1        1 D2M      0.086333
     31 H33B       -2.4410   -0.4630    3.3250 h1        1 D2M      0.086333
     32 H11         3.2070   -1.8770   -3.8950 h1        1 D2M      0.087000
     33 H11A        3.9680   -0.5580   -3.3880 h1        1 D2M      0.087000
     34 H11B        3.7960   -1.8680   -2.4060 h1        1 D2M      0.087000
     35 H5          3.2810    1.5040   -2.6160 ha        1 D2M      0.153000
     36 H6          3.5130    2.9360   -0.7540 ha        1 D2M      0.140000
     37 H1          2.6210    2.3650    1.3640 ha        1 D2M      0.140000
     38 H16         2.5800    0.9890    3.4040 h1        1 D2M      0.086667
     39 H16A        3.3040   -0.1530    2.5710 h1        1 D2M      0.086667
     40 H16B        2.2620   -0.5430    3.6990 h1        1 D2M      0.086667
@<TRIPOS>BOND
     1    1    2 1   
     2    1   23 1   
     3    2    3 1   
     4    2    9 1   
     5    3    4 1   
     6    3    6 1   
     7    4    5 1   
     8    5   24 1   
     9    5   25 1   
    10    5   26 1   
    11    6   27 1   
    12    7    8 1   
    13    7   12 1   
    14    8   28 1   
    15    9   10 1   
    16   10   11 1   
    17   11   29 1   
    18   11   30 1   
    19   11   31 1   
    20   12   13 1   
    21   13   14 1   
    22   13   20 1   
    23   14   15 1   
    24   14   17 1   
    25   15   16 1   
    26   16   32 1   
    27   16   33 1   
    28   16   34 1   
    29   17   35 1   
    30   18   19 1   
    31   18   36 1   
    32   19   37 1   
    33   20   21 1   
    34   21   22 1   
    35   22   38 1   
    36   22   39 1   
    37   22   40 1   
@<TRIPOS>SUBSTRUCTURE
     1 D2M         1 TEMP              0 ****  ****    0 ROOT
