@<TRIPOS>MOLECULE
D2M
   40    41     1     0     0
SMALL
bcc


@<TRIPOS>ATOM
      1 O29        -0.0310    0.1870    0.2260 oh        1 D2M     -0.477100
      2 C28         1.3340    0.1130    0.0670 ca        1 D2M      0.049100
      3 C26         2.1310    0.0890    1.2360 ca        1 D2M      0.122100
      4 O32         1.4320    0.1170    2.4250 os        1 D2M     -0.322900
      5 C34         2.2200    0.1190    3.6100 c3        1 D2M      0.116200
      6 C23         3.5230    0.0380    1.1440 ca        1 D2M     -0.239000
      7 C21         4.1170    0.0080   -0.1280 ca        1 D2M      0.166100
      8 C22         3.3590    0.0290   -1.3000 ca        1 D2M     -0.239000
      9 C24         1.9660    0.0850   -1.1900 ca        1 D2M      0.122100
     10 O31         1.0990    0.1270   -2.2710 os        1 D2M     -0.322900
     11 C33         1.6840   -0.1100   -3.5460 c3        1 D2M      0.116200
     12 O20         5.5080   -0.0530   -0.1010 os        1 D2M     -0.215200
     13 C3          6.1550   -0.0210   -1.3290 ca        1 D2M      0.018100
     14 C4          6.5330   -1.2250   -1.9620 ca        1 D2M      0.155600
     15 O10         6.0640   -2.3760   -1.3690 os        1 D2M     -0.304400
     16 C11         6.4940   -3.6030   -1.9490 c3        1 D2M      0.110700
     17 C5          7.3290   -1.1950   -3.1160 ca        1 D2M     -0.237500
     18 C6          7.7420    0.0300   -3.6330 ca        1 D2M     -0.058000
     19 C1          7.3800    1.2300   -3.0270 ca        1 D2M     -0.237500
     20 C2          6.5860    1.2090   -1.8720 ca        1 D2M      0.155600
     21 O15         6.1730    2.3320   -1.1910 os        1 D2M     -0.304400
     22 C16         6.6090    3.5830   -1.7140 c3        1 D2M      0.110700
     23 HO29       -0.4320    0.0670   -0.6480 ho        1 D2M      0.426000
     24 H34         2.8790    1.0200    3.6460 h1        1 D2M      0.045200
     25 H34A        2.8290   -0.8150    3.6820 h1        1 D2M      0.045200
     26 H34B        1.4540    0.1570    4.4260 h1        1 D2M      0.045200
     27 H23         4.1640    0.0200    2.0350 ha        1 D2M      0.154500
     28 H22         3.8530    0.0040   -2.2800 ha        1 D2M      0.154500
     29 H33         2.3780    0.7230   -3.8160 h1        1 D2M      0.045200
     30 H33A        0.8020   -0.1280   -4.2360 h1        1 D2M      0.045200
     31 H33B        2.2220   -1.0880   -3.5620 h1        1 D2M      0.045200
     32 H11         7.6070   -3.6850   -1.9230 h1        1 D2M      0.047700
     33 H11A        6.1160   -3.6970   -2.9960 h1        1 D2M      0.047700
     34 H11B        6.0240   -4.3750   -1.2880 h1        1 D2M      0.047700
     35 H5          7.6310   -2.1270   -3.6110 ha        1 D2M      0.143000
     36 H6          8.3680    0.0490   -4.5380 ha        1 D2M      0.136000
     37 H1          7.7230    2.1820   -3.4540 ha        1 D2M      0.143000
     38 H16         6.1620    4.3250   -1.0040 h1        1 D2M      0.047700
     39 H16A        7.7240    3.6480   -1.7030 h1        1 D2M      0.047700
     40 H16B        6.2150    3.7380   -2.7470 h1        1 D2M      0.047700
@<TRIPOS>BOND
     1    1    2 1   
     2    1   23 1   
     3    2    3 ar  
     4    2    9 ar  
     5    3    4 1   
     6    3    6 ar  
     7    4    5 1   
     8    5   24 1   
     9    5   25 1   
    10    5   26 1   
    11    6    7 ar  
    12    6   27 1   
    13    7    8 ar  
    14    7   12 1   
    15    8    9 ar  
    16    8   28 1   
    17    9   10 1   
    18   10   11 1   
    19   11   29 1   
    20   11   30 1   
    21   11   31 1   
    22   12   13 1   
    23   13   14 ar  
    24   13   20 ar  
    25   14   15 1   
    26   14   17 ar  
    27   15   16 1   
    28   16   32 1   
    29   16   33 1   
    30   16   34 1   
    31   17   18 ar  
    32   17   35 1   
    33   18   19 ar  
    34   18   36 1   
    35   19   20 ar  
    36   19   37 1   
    37   20   21 1   
    38   21   22 1   
    39   22   38 1   
    40   22   39 1   
    41   22   40 1   
@<TRIPOS>SUBSTRUCTURE
     1 D2M         1 TEMP              0 ****  ****    0 ROOT
