@<TRIPOS>MOLECULE
D2M
   40    41     1     0     0
SMALL
bcc


@<TRIPOS>ATOM
      1 O29        -4.2510   -0.3290   -1.3110 oh        1 D2M     -0.477100
      2 C28        -3.0140   -0.1900   -0.7240 ca        1 D2M      0.049100
      3 C26        -2.9710    0.0050    0.6770 ca        1 D2M      0.122100
      4 O32        -4.2000    0.0600    1.3010 os        1 D2M     -0.322900
      5 C34        -4.1730    0.2300    2.7140 c3        1 D2M      0.116200
      6 C23        -1.7480    0.1310    1.3370 ca        1 D2M     -0.239000
      7 C21        -0.5620    0.0650    0.5870 ca        1 D2M      0.166100
      8 C22        -0.5710   -0.1250   -0.7960 ca        1 D2M     -0.239000
      9 C24        -1.8050   -0.2550   -1.4410 ca        1 D2M      0.122100
     10 O31        -1.9550   -0.4630   -2.8030 os        1 D2M     -0.322900
     11 C33        -0.7750   -0.3260   -3.5860 c3        1 D2M      0.116200
     12 O20         0.5960    0.2130    1.3460 os        1 D2M     -0.215200
     13 C3          1.8010    0.0930    0.6680 ca        1 D2M      0.018100
     14 C4          2.4520   -1.1580    0.5930 ca        1 D2M      0.155600
     15 O10         1.7320   -2.2270    1.0770 os        1 D2M     -0.304400
     16 C11         2.3760   -3.4970    1.0240 c3        1 D2M      0.110700
     17 C5          3.7430   -1.2500    0.0530 ca        1 D2M     -0.237500
     18 C6          4.3780   -0.1000   -0.4050 ca        1 D2M     -0.058000
     19 C1          3.7570    1.1440   -0.3410 ca        1 D2M     -0.237500
     20 C2          2.4660    1.2450    0.1960 ca        1 D2M      0.155600
     21 O15         1.7570    2.4210    0.3020 os        1 D2M     -0.304400
     22 C16         2.4360    3.6050   -0.1020 c3        1 D2M      0.110700
     23 HO29       -4.1180   -0.3260   -2.2720 ho        1 D2M      0.426000
     24 H34        -3.6410   -0.6200    3.2050 h1        1 D2M      0.045200
     25 H34A       -3.6940    1.2020    2.9860 h1        1 D2M      0.045200
     26 H34B       -5.2580    0.2320    2.9920 h1        1 D2M      0.045200
     27 H23        -1.6870    0.2820    2.4230 ha        1 D2M      0.154500
     28 H22         0.3730   -0.1730   -1.3540 ha        1 D2M      0.154500
     29 H33        -0.0490   -1.1390   -3.3400 h1        1 D2M      0.045200
     30 H33A       -1.1460   -0.4330   -4.6370 h1        1 D2M      0.045200
     31 H33B       -0.3080    0.6770   -3.4310 h1        1 D2M      0.045200
     32 H11         2.5990   -3.7820   -0.0330 h1        1 D2M      0.047700
     33 H11A        3.3100   -3.4920    1.6370 h1        1 D2M      0.047700
     34 H11B        1.6140   -4.1870    1.4680 h1        1 D2M      0.047700
     35 H5          4.2570   -2.2190   -0.0060 ha        1 D2M      0.143000
     36 H6          5.3930   -0.1750   -0.8260 ha        1 D2M      0.136000
     37 H1          4.2820    2.0370   -0.7070 ha        1 D2M      0.143000
     38 H16         1.6880    4.4120    0.1070 h1        1 D2M      0.047700
     39 H16A        3.3620    3.7580    0.5050 h1        1 D2M      0.047700
     40 H16B        2.6810    3.5660   -1.1910 h1        1 D2M      0.047700
@<TRIPOS>BOND
     1    1    2 1   
     2    1   23 1   
     3    2    3 ar  
     4    2    9 ar  
     5    3    4 1   
     6    3    6 ar  
     7    4    5 1   
     8    5   24 1   
     9    5   25 1   
    10    5   26 1   
    11    6    7 ar  
    12    6   27 1   
    13    7    8 ar  
    14    7   12 1   
    15    8    9 ar  
    16    8   28 1   
    17    9   10 1   
    18   10   11 1   
    19   11   29 1   
    20   11   30 1   
    21   11   31 1   
    22   12   13 1   
    23   13   14 ar  
    24   13   20 ar  
    25   14   15 1   
    26   14   17 ar  
    27   15   16 1   
    28   16   32 1   
    29   16   33 1   
    30   16   34 1   
    31   17   18 ar  
    32   17   35 1   
    33   18   19 ar  
    34   18   36 1   
    35   19   20 ar  
    36   19   37 1   
    37   20   21 1   
    38   21   22 1   
    39   22   38 1   
    40   22   39 1   
    41   22   40 1   
@<TRIPOS>SUBSTRUCTURE
     1 D2M         1 TEMP              0 ****  ****    0 ROOT
