@<TRIPOS>MOLECULE
D2N
   64    64     1     0     0
SMALL
bcc


@<TRIPOS>ATOM
      1 N1         -0.1190   -2.5650    1.0260 nc        1 D2N     -0.854000
      2 C2          1.0500   -3.2210    1.4570 cc        1 D2N      0.762300
      3 N3          1.4770   -3.3450    2.7620 nc        1 D2N     -0.788000
      4 C4          0.8230   -2.6270    3.7170 cd        1 D2N      0.837900
      5 C5         -0.2590   -1.6610    3.3210 cd        1 D2N     -0.466200
      6 C6         -0.7810   -1.8450    1.9500 cd        1 D2N      0.784500
      7 CAA        -5.9360  -10.3530    7.9340 c2        1 D2N     -0.230500
      8 NAD         1.8080   -3.8220    0.4810 nh        1 D2N     -0.481100
      9 NAE        -1.9870   -1.2940    1.6010 nh        1 D2N     -0.907800
     10 OAF        -6.2790   -6.6160    6.5800 o         1 D2N     -0.571000
     11 CAG        -3.9110   -4.1060    6.8740 ca        1 D2N     -0.180000
     12 CAH        -3.0790   -3.7760    7.9400 ca        1 D2N     -0.107000
     13 CAI         0.6860   -1.9630    5.9490 c1        1 D2N      0.221700
     14 CAJ        -3.0240   -2.2090    5.6250 ca        1 D2N     -0.159000
     15 CAK        -6.9900   -9.5530    8.0330 c2        1 D2N     -0.230500
     16 CAL        -3.9550   -5.5070    2.3730 c3        1 D2N     -0.088900
     17 CAM        -8.1570   -3.8560    7.4130 c3        1 D2N     -0.120800
     18 CAN        -4.4790   -6.3540    3.4580 c2        1 D2N     -0.031200
     19 CAO        -5.6870   -4.5110    4.6770 c3        1 D2N      0.170600
     20 CAP        -5.2300   -5.9230    4.4880 ce        1 D2N     -0.222400
     21 NAR         1.1740   -2.7640    5.0430 n1        1 D2N     -0.777400
     22 OAU        -1.4960   -2.3090    8.9780 os        1 D2N     -0.357900
     23 OAV        -5.4680   -8.1850    5.2550 oh        1 D2N     -0.612100
     24 CAX        -5.6990   -6.8660    5.5150 c         1 D2N      0.648300
     25 CAZ        -3.8750   -3.3220    5.7160 ca        1 D2N      0.106100
     26 CBB        -0.6150   -0.6800    4.2000 c2        1 D2N      0.075600
     27 CBC        -0.1520   -0.7610    5.6230 c3        1 D2N     -0.156400
     28 CBD        -2.1820   -1.8760    6.6880 ca        1 D2N     -0.058300
     29 CBE        -2.2230   -2.6700    7.8520 ca        1 D2N      0.096100
     30 HAA        -8.0130   -9.9340    8.1520 ha        1 D2N      0.116500
     31 HAAA       -4.9110   -9.9730    7.8250 ha        1 D2N      0.116500
     32 HAAB       -6.0160  -11.4480    7.9650 ha        1 D2N      0.116500
     33 HAB         0.2960   -2.3800    9.8900 h1        1 D2N      0.058367
     34 HABA       -0.2410   -3.9720    9.1440 h1        1 D2N      0.058367
     35 HABB        0.3780   -2.6170    8.0560 h1        1 D2N      0.058367
     36 HAC        -2.4710    0.3790    3.9550 hc        1 D2N      0.067367
     37 HACA       -1.0890    1.3810    4.5360 hc        1 D2N      0.067367
     38 HACB       -1.1500    0.8850    2.8010 hc        1 D2N      0.067367
     39 HNAD        2.5890   -4.3750    0.7410 hn        1 D2N      0.301700
     40 HNAA        1.5010   -3.8180   -0.4600 hn        1 D2N      0.301700
     41 HNAE       -2.5800   -0.9540    2.3180 hn        1 D2N      0.446300
     42 HNAB       -2.3880   -1.4930    0.7150 hn        1 D2N      0.446300
     43 HAG        -4.5850   -4.9730    6.9520 ha        1 D2N      0.155000
     44 HAH        -3.0900   -4.3760    8.8610 ha        1 D2N      0.149000
     45 HAI         0.5140    0.1380    5.8100 hc        1 D2N      0.103700
     46 HAJ        -3.0240   -1.6070    4.7060 ha        1 D2N      0.119000
     47 HAK        -6.9100   -8.4540    8.0050 ha        1 D2N      0.116500
     48 HAKA       -5.8090   -8.7260    5.9920 ho        1 D2N      0.456000
     49 HAL        -4.3960   -4.4790    2.3900 hc        1 D2N      0.060033
     50 HALA       -7.4100   -3.0510    7.5870 hc        1 D2N      0.030450
     51 HAM        -7.6440   -4.8450    7.4090 hc        1 D2N      0.030450
     52 HAMA       -8.9170   -3.8360    8.2240 hc        1 D2N      0.030450
     53 HAN        -2.8440   -5.4130    2.4800 hc        1 D2N      0.060033
     54 HANA       -4.1730   -5.9790    1.3820 hc        1 D2N      0.060033
     55 HAO        -6.3600   -4.2170    3.8200 h1        1 D2N      0.078200
     56 HAOA       -8.6570   -3.6920    6.4340 hc        1 D2N      0.030450
     57 HAP        -6.2440   -4.3880    5.6470 h1        1 D2N      0.078200
     58 HAPA       -4.2070   -7.4260    3.3920 ha        1 D2N      0.147000
     59 HAQ        -0.8530   -0.4980    7.6340 hc        1 D2N      0.064700
     60 HAQA       -1.9430    0.2210    6.3660 hc        1 D2N      0.064700
     61 CAC        -1.3680    0.5450    3.8440 c3        1 D2N     -0.111900
     62 CAQ        -1.3100   -0.6720    6.6190 c3        1 D2N      0.008900
     63 OAW        -4.6280   -3.5590    4.5760 os        1 D2N     -0.344900
     64 CAB        -0.1750   -2.8660    9.0010 c3        1 D2N      0.086700
@<TRIPOS>BOND
     1    1    2 1   
     2    1    6 2   
     3    2    3 1   
     4    2    8 2   
     5    3    4 2   
     6    4    5 1   
     7    4   21 1   
     8    5    6 1   
     9    5   26 2   
    10    6    9 1   
    11    7   15 2   
    12    7   31 1   
    13    7   32 1   
    14    8   39 1   
    15    8   40 1   
    16    9   41 1   
    17    9   42 1   
    18   10   24 2   
    19   11   12 ar  
    20   11   25 ar  
    21   11   43 1   
    22   12   29 ar  
    23   12   44 1   
    24   13   21 3   
    25   13   27 1   
    26   14   25 ar  
    27   14   28 ar  
    28   14   46 1   
    29   15   30 1   
    30   15   47 1   
    31   16   18 1   
    32   16   49 1   
    33   16   53 1   
    34   16   54 1   
    35   17   50 1   
    36   17   51 1   
    37   17   52 1   
    38   17   56 1   
    39   18   20 2   
    40   18   58 1   
    41   19   20 1   
    42   19   55 1   
    43   19   57 1   
    44   19   63 1   
    45   20   24 1   
    46   22   29 1   
    47   22   64 1   
    48   23   24 1   
    49   23   48 1   
    50   25   63 1   
    51   26   27 1   
    52   26   61 1   
    53   27   45 1   
    54   27   62 1   
    55   28   29 ar  
    56   28   62 1   
    57   33   64 1   
    58   34   64 1   
    59   35   64 1   
    60   36   61 1   
    61   37   61 1   
    62   38   61 1   
    63   59   62 1   
    64   60   62 1   
@<TRIPOS>SUBSTRUCTURE
     1 D2N         1 TEMP              0 ****  ****    0 ROOT
