@<TRIPOS>MOLECULE
D2N
   64    61     1     0     0
SMALL
bcc


@<TRIPOS>ATOM
      1 N1          0.0220   -0.7930    0.3070 n2        1 D2N     -0.314000
      2 C2          0.4360   -0.0810    1.4120 c2        1 D2N      0.205000
      3 N3          0.4400   -0.5430    2.7200 n2        1 D2N     -0.285000
      4 C4          0.0850   -1.8500    2.8880 c2        1 D2N      0.238000
      5 C5         -0.2720   -2.7090    1.8220 c2        1 D2N     -0.296000
      6 C6         -0.3290   -2.1060    0.5050 c2        1 D2N      0.227000
      7 CAA        -8.6330   -6.3930    2.9500 c3        1 D2N     -0.009000
      8 NAD         0.9320    1.2100    1.1960 nv        1 D2N     -0.325000
      9 NAE        -0.7010   -2.8630   -0.5740 nv        1 D2N     -0.370000
     10 OAF        -7.8490   -6.3270    4.1500 os        1 D2N     -0.283000
     11 CAG        -1.9850   -3.2200    9.1630 ca        1 D2N     -0.099000
     12 CAH        -0.7090   -2.8420    8.7470 ca        1 D2N     -0.171000
     13 CAI         0.0980   -2.6600    5.3300 c1        1 D2N      0.127000
     14 CAJ        -1.5160   -2.3470   11.4020 ca        1 D2N     -0.099000
     15 CAK        -8.4060   -7.6980    2.2290 c3        1 D2N     -0.244000
     16 CAL        -4.3480   -5.5790    7.1320 c3        1 D2N     -0.218000
     17 CAM        -7.6970   -5.6070    9.2430 c3        1 D2N     -0.280000
     18 CAN        -5.6040   -5.3490    6.3230 c3        1 D2N     -0.208000
     19 CAO        -4.4800   -3.9240   10.1840 c1        1 D2N     -0.066000
     20 CAP        -5.7390   -6.2420    5.2090 c1        1 D2N      0.039000
     21 NAR         0.0870   -2.3170    4.1990 n2        1 D2N     -0.276000
     22 OAU         1.4360   -1.8050    9.3610 os        1 D2N     -0.211000
     23 OAV        -6.1100   -5.6210    2.9150 o         1 D2N     -0.401000
     24 CAX        -6.5270   -5.9800    4.0300 c2        1 D2N      0.267000
     25 CAZ        -2.3700   -2.9670   10.4790 ca        1 D2N     -0.013000
     26 CBB        -0.5370   -4.1580    2.0020 c3        1 D2N      0.001000
     27 CBC        -1.9360   -4.4990    1.9760 c1        1 D2N     -0.074000
     28 CBD        -0.2440   -1.9740   10.9890 ca        1 D2N     -0.171000
     29 CBE         0.1560   -2.2240    9.6600 ca        1 D2N      0.082000
     30 HAA        -9.0900   -7.7630    1.3490 hc        1 D2N      0.089333
     31 HAAA       -9.6830   -6.3110    3.3410 h1        1 D2N      0.102500
     32 HAAB       -8.6040   -8.5630    2.9070 hc        1 D2N      0.089333
     33 HAB         2.9570   -1.7140    8.0590 h1        1 D2N      0.089667
     34 HABA        1.9400   -3.2430    7.9210 h1        1 D2N      0.089667
     35 HABB        1.2930   -1.6540    7.2700 h1        1 D2N      0.089667
     36 HAC        -2.5480   -5.9560   -0.1460 ha        1 D2N      0.052000
     37 HACA       -3.6240   -4.4630   -0.2770 ha        1 D2N      0.052000
     38 HACB       -0.0060   -4.7410    1.1910 hc        1 D2N      0.119500
     39 HNAD        0.9740    1.8090    1.9870 hn        1 D2N      0.223000
     40 HNAA        0.7000    1.6360    0.3290 hn        1 D2N      0.223000
     41 HNAE       -0.7870   -2.4090   -1.4530 hn        1 D2N      0.254500
     42 HNAB       -1.2990   -3.6930   -0.4080 hn        1 D2N      0.254500
     43 HAG        -2.6860   -3.7120    8.4680 ha        1 D2N      0.158000
     44 HAH        -0.4000   -3.0260    7.7040 ha        1 D2N      0.162500
     45 HAI        -0.1100   -4.5320    2.9770 hc        1 D2N      0.119500
     46 HAJ        -1.8550   -2.1620   12.4310 ha        1 D2N      0.158000
     47 HAK        -7.3490   -7.7610    1.8730 hc        1 D2N      0.089333
     48 HAKA       -8.3940   -5.5180    2.2900 h1        1 D2N      0.102500
     49 HAL        -4.4250   -5.0380    8.1120 hc        1 D2N      0.098667
     50 HALA       -6.6410   -5.2510    9.2520 hc        1 D2N      0.070750
     51 HAM        -8.3020   -4.9650    8.5660 hc        1 D2N      0.070750
     52 HAMA       -7.7330   -6.6600    8.8870 hc        1 D2N      0.070750
     53 HAN        -3.4570   -5.1930    6.5800 hc        1 D2N      0.098667
     54 HANA       -4.1980   -6.6670    7.3270 hc        1 D2N      0.098667
     55 HAO        -5.4180   -4.0990   10.7770 ha        1 D2N      0.040000
     56 HAOA       -8.1130   -5.5510   10.2730 hc        1 D2N      0.070750
     57 HAP        -5.6980   -4.2590    6.0580 hc        1 D2N      0.141000
     58 HAPA       -6.5140   -5.6010    6.9690 hc        1 D2N      0.141000
     59 HAQ         0.4550   -1.4850   11.6810 ha        1 D2N      0.162500
     60 HAQA       -4.1250   -5.0960    2.1940 ha        1 D2N      0.265000
     61 CAC        -2.6120   -4.8630   -0.1450 c1        1 D2N     -0.198000
     62 CAQ        -3.1020   -4.8240    2.0380 c1        1 D2N     -0.226000
     63 OAW        -3.6440   -3.3090   10.9890 os        1 D2N     -0.121000
     64 CAB         1.9200   -2.1350    8.0620 c3        1 D2N     -0.079000
@<TRIPOS>BOND
     1    1    2 1   
     2    1    6 1   
     3    2    3 1   
     4    2    8 1   
     5    3    4 1   
     6    4    5 1   
     7    4   21 1   
     8    5    6 1   
     9    5   26 1   
    10    6    9 1   
    11    7   10 1   
    12    7   15 1   
    13    7   31 1   
    14    7   48 1   
    15    8   39 1   
    16    8   40 1   
    17    9   41 1   
    18    9   42 1   
    19   10   24 1   
    20   11   12 1   
    21   11   25 1   
    22   11   43 1   
    23   12   29 1   
    24   12   44 1   
    25   13   21 1   
    26   14   25 1   
    27   14   28 1   
    28   14   46 1   
    29   15   30 1   
    30   15   32 1   
    31   15   47 1   
    32   16   18 1   
    33   16   49 1   
    34   16   53 1   
    35   16   54 1   
    36   17   50 1   
    37   17   51 1   
    38   17   52 1   
    39   17   56 1   
    40   18   20 1   
    41   18   57 1   
    42   18   58 1   
    43   19   55 1   
    44   19   63 1   
    45   20   24 1   
    46   22   29 1   
    47   22   64 1   
    48   23   24 1   
    49   25   63 1   
    50   26   27 1   
    51   26   38 1   
    52   26   45 1   
    53   27   62 1   
    54   28   29 1   
    55   28   59 1   
    56   33   64 1   
    57   34   64 1   
    58   35   64 1   
    59   36   61 1   
    60   37   61 1   
    61   60   62 1   
@<TRIPOS>SUBSTRUCTURE
     1 D2N         1 TEMP              0 ****  ****    0 ROOT
