@<TRIPOS>MOLECULE
D2N
   64    60     1     0     0
SMALL
bcc


@<TRIPOS>ATOM
      1 N1          4.1550    3.0230   -6.5020 n1        1 D2N     -0.271500
      2 C2          5.3620    2.4130   -6.3250 c1        1 D2N      0.202500
      3 N3          5.7430    1.9950   -5.0730 n1        1 D2N     -0.271500
      4 C4          4.9080    2.1910   -3.9930 c1        1 D2N      0.121000
      5 C5          3.7020    2.8010   -4.1670 c1        1 D2N     -0.248000
      6 C6          3.3190    3.2220   -5.4310 c1        1 D2N      0.202500
      7 CAA        -9.6280   -3.1480    5.7020 c3        1 D2N     -0.218000
      8 CAB         5.6400    0.6350    1.8710 c3        1 D2N     -0.076000
      9 CAC         1.7090    4.0720   -3.2400 c3        1 D2N     -0.199000
     10 NAD         6.2570    2.2620   -7.4340 n3        1 D2N     -0.332500
     11 NAE         2.3380    3.7090   -6.3290 n3        1 D2N     -0.332500
     12 OAF        -7.2180   -3.4160    2.3510 o         1 D2N     -0.354000
     13 CAG         2.0580   -1.2110    1.3030 c1        1 D2N     -0.170000
     14 CAH         3.2940   -0.5710    1.4100 c1        1 D2N     -0.166000
     15 CAI         4.4610    1.9790   -1.6330 c1        1 D2N     -0.003000
     16 CAJ         1.2200    0.6530    0.0550 c1        1 D2N     -0.121000
     17 CAK        -8.8710   -3.2350    4.4110 c3        1 D2N     -0.012000
     18 CAL        -3.0490   -2.7860    2.4780 c3        1 D2N     -0.156000
     19 CAM        -2.4140   -1.9930    1.2780 c3        1 D2N     -0.165000
     20 CAN        -4.5500   -2.7840    2.3410 c3        1 D2N     -0.157000
     21 CAO        -0.8560   -1.9470    1.4380 c3        1 D2N     -0.021000
     22 CAP        -5.1770   -3.3510    3.6090 c3        1 D2N     -0.156000
     23 CAQ         2.6650    2.6970   -0.4020 c3        1 D2N     -0.070000
     24 NAR         5.2990    1.7740   -2.7250 n1        1 D2N     -0.133000
     25 OAU         4.4570    1.3900    1.5840 os        1 D2N     -0.214000
     26 OAV        -7.5150   -3.1310    4.6620 os        1 D2N     -0.284000
     27 OAW        -0.2820   -1.1640    0.3400 os        1 D2N     -0.214000
     28 CAX        -6.6860   -3.3220    3.4800 c2        1 D2N      0.302000
     29 CAZ         1.0280   -0.6050    0.6310 c1        1 D2N      0.054000
     30 CBB         2.8450    3.0110   -3.0530 c2        1 D2N      0.025000
     31 CBC         3.2330    2.6000   -1.8080 c2        1 D2N     -0.164000
     32 CBD         2.4610    1.2860    0.1660 c2        1 D2N     -0.065000
     33 CBE         3.4830    0.6750    0.8380 c2        1 D2N      0.044000
     34 HAA        -9.3870   -2.2840    6.1790 hc        1 D2N      0.087000
     35 HAAA      -10.5800   -3.1600    5.5190 hc        1 D2N      0.087000
     36 HAAB       -9.3970   -3.8980    6.2610 hc        1 D2N      0.087000
     37 HAB         5.5660    0.2400    2.7450 h1        1 D2N      0.084333
     38 HABA        5.7460   -0.0730    1.1990 h1        1 D2N      0.084333
     39 HABB        6.4340    1.2410    1.8460 h1        1 D2N      0.084333
     40 HAC         1.0270    3.7210   -3.8720 hc        1 D2N      0.094333
     41 HACA        2.1020    4.9230   -3.6100 hc        1 D2N      0.094333
     42 HACB        1.2760    4.2610   -2.3500 hc        1 D2N      0.094333
     43 HNAD        5.9930    2.5120   -8.2710 hn        1 D2N      0.220000
     44 HNAA        7.0960    1.8650   -7.3070 hn        1 D2N      0.220000
     45 HNAE        1.5510    3.9010   -6.0430 hn        1 D2N      0.220000
     46 HNAB        2.5490    3.8500   -7.1990 hn        1 D2N      0.220000
     47 HAG         1.9290   -2.0790    1.7030 ha        1 D2N      0.139000
     48 HAH         3.9980   -0.9830    1.8680 ha        1 D2N      0.140000
     49 HAI         4.7660    1.7500   -0.7410 ha        1 D2N      0.173000
     50 HAJ         0.5020    1.0790   -0.4170 ha        1 D2N      0.152000
     51 HAK        -9.0670   -4.1350    3.9590 h1        1 D2N      0.091000
     52 HAKA       -9.1440   -2.5190    3.8290 h1        1 D2N      0.091000
     53 HAL        -2.7160   -3.7220    2.4720 hc        1 D2N      0.081500
     54 HALA       -2.8120   -2.3760    3.2830 hc        1 D2N      0.081500
     55 HAM        -2.6520   -2.4610    0.3980 hc        1 D2N      0.100000
     56 HAMA       -2.7630   -1.0860    1.2670 hc        1 D2N      0.100000
     57 HAN        -4.8510   -1.9020    2.2070 hc        1 D2N      0.099500
     58 HANA       -4.7970   -3.3100    1.6100 hc        1 D2N      0.099500
     59 HAO        -0.5040   -2.8390    1.4130 h1        1 D2N      0.078000
     60 HAOA       -0.6130   -1.5030    2.3460 h1        1 D2N      0.078000
     61 HAP        -4.9100   -2.8210    4.3640 hc        1 D2N      0.117500
     62 HAPA       -4.8750   -4.2870    3.7390 hc        1 D2N      0.117500
     63 HAQ         1.8220    3.1630   -0.4270 hc        1 D2N      0.104500
     64 HAQA        3.3240    3.2120    0.1970 hc        1 D2N      0.104500
@<TRIPOS>BOND
     1    1    6 1   
     2    2    3 1   
     3    2   10 1   
     4    4    5 1   
     5    4   24 1   
     6    5   30 1   
     7    6   11 1   
     8    7   17 1   
     9    7   34 1   
    10    7   35 1   
    11    7   36 1   
    12    8   25 1   
    13    8   37 1   
    14    8   38 1   
    15    8   39 1   
    16    9   30 1   
    17    9   40 1   
    18    9   41 1   
    19    9   42 1   
    20   10   43 1   
    21   10   44 1   
    22   11   45 1   
    23   11   46 1   
    24   12   28 1   
    25   13   29 1   
    26   13   47 1   
    27   14   33 1   
    28   14   48 1   
    29   15   31 1   
    30   15   49 1   
    31   16   32 1   
    32   16   50 1   
    33   17   26 1   
    34   17   51 1   
    35   17   52 1   
    36   18   19 1   
    37   18   20 1   
    38   18   53 1   
    39   18   54 1   
    40   19   21 1   
    41   19   55 1   
    42   19   56 1   
    43   20   22 1   
    44   20   57 1   
    45   20   58 1   
    46   21   27 1   
    47   21   59 1   
    48   21   60 1   
    49   22   28 1   
    50   22   61 1   
    51   22   62 1   
    52   23   31 1   
    53   23   32 1   
    54   23   63 1   
    55   23   64 1   
    56   25   33 1   
    57   26   28 1   
    58   27   29 1   
    59   30   31 1   
    60   32   33 1   
@<TRIPOS>SUBSTRUCTURE
     1 D2N         1 TEMP              0 ****  ****    0 ROOT
