@<TRIPOS>MOLECULE
D2N
   64    66     1     0     0
SMALL
bcc


@<TRIPOS>ATOM
      1 N1          5.6420   -3.6800    0.1400 nb        1 D2N     -0.833000
      2 C2          6.7790   -3.0160    0.6120 ca        1 D2N      0.911900
      3 N3          6.8900   -1.6660    0.7900 nb        1 D2N     -0.764000
      4 C4          5.8640   -0.8950    0.2900 ca        1 D2N      0.714300
      5 C5          4.7470   -1.4640   -0.4320 ca        1 D2N     -0.380600
      6 C6          4.6420   -2.9170   -0.3530 ca        1 D2N      0.736200
      7 CAA       -12.0600   -0.8900   -0.0870 c3        1 D2N     -0.100100
      8 NAD         7.8890   -3.8120    0.9170 nh        1 D2N     -0.923500
      9 NAE         3.4980   -3.5790   -0.7840 nh        1 D2N     -0.946500
     10 OAF        -8.3000   -2.4650    0.1400 o         1 D2N     -0.543000
     11 CAG        -0.3790    2.6930    0.8690 ca        1 D2N     -0.171000
     12 CAH         0.7980    3.4140    1.0710 ca        1 D2N     -0.166000
     13 CAI         5.0210    1.2370   -0.0360 ca        1 D2N      0.459200
     14 CAJ         0.7280    1.4100   -0.8820 ca        1 D2N     -0.129000
     15 CAK       -10.7780   -1.6870   -0.0590 c3        1 D2N      0.138400
     16 CAL        -5.0740    0.4810    0.5360 c3        1 D2N     -0.077400
     17 CAM        -3.7610    0.2480   -0.1800 c3        1 D2N     -0.085400
     18 CAN        -6.1350   -0.4760    0.0360 c3        1 D2N     -0.078400
     19 CAO        -2.7030    1.2060    0.3400 c3        1 D2N      0.129400
     20 CAP        -7.4540   -0.2260    0.7360 c3        1 D2N     -0.128400
     21 NAR         5.9440    0.4800    0.5140 nb        1 D2N     -0.662000
     22 OAU         3.1370    3.8040    0.4370 os        1 D2N     -0.333900
     23 OAV        -9.7320   -0.7560    0.2730 os        1 D2N     -0.444900
     24 CAX        -8.4660   -1.2630    0.3570 c         1 D2N      0.631100
     25 CAZ        -0.4120    1.6940   -0.1060 ca        1 D2N      0.098100
     26 CBB         3.8650   -0.5860   -1.1310 ca        1 D2N      0.029700
     27 CBC         3.9770    0.7780   -0.9050 ca        1 D2N     -0.240600
     28 CBD         1.9070    2.1210   -0.6820 ca        1 D2N     -0.064300
     29 CBE         1.9320    3.1340    0.3060 ca        1 D2N      0.097100
     30 HAA       -12.0020   -0.0780   -0.8500 hc        1 D2N      0.048033
     31 HAAA      -12.9060   -1.5730   -0.3420 hc        1 D2N      0.048033
     32 HAAB      -12.2540   -0.4230    0.9080 hc        1 D2N      0.048033
     33 HAB         2.4450    5.6390    1.1790 h1        1 D2N      0.045367
     34 HABA        2.9880    4.4170    2.4370 h1        1 D2N      0.045367
     35 HABB        4.2280    5.2200    1.3420 h1        1 D2N      0.045367
     36 HAC         1.9260   -1.3730   -1.6380 hc        1 D2N      0.055367
     37 HACA        2.6580   -0.3180   -2.9010 hc        1 D2N      0.055367
     38 HACB        3.3030   -1.9750   -2.6850 hc        1 D2N      0.055367
     39 HNAD        7.7160   -4.7790    1.0660 hn        1 D2N      0.426800
     40 HNAA        8.5850   -3.3960    1.4920 hn        1 D2N      0.426800
     41 HNAE        2.6490   -3.0700   -0.7140 hn        1 D2N      0.423800
     42 HNAB        3.4340   -4.5540   -0.5980 hn        1 D2N      0.423800
     43 HAG        -1.2620    2.9240    1.4810 ha        1 D2N      0.138000
     44 HAH         0.8150    4.2000    1.8400 ha        1 D2N      0.139000
     45 HAI         5.0810    2.3220    0.1940 h4        1 D2N      0.037100
     46 HAJ         0.6760    0.6200   -1.6460 ha        1 D2N      0.149000
     47 HAK       -10.8010   -2.4940    0.7190 h1        1 D2N      0.051700
     48 HAKA      -10.5470   -2.1460   -1.0560 h1        1 D2N      0.051700
     49 HAL        -4.9320    0.3440    1.6400 hc        1 D2N      0.042200
     50 HALA       -5.4120    1.5390    0.3720 hc        1 D2N      0.042200
     51 HAM        -3.4160   -0.8070   -0.0250 hc        1 D2N      0.059700
     52 HAMA       -3.8880    0.3970   -1.2840 hc        1 D2N      0.059700
     53 HAN        -6.2660   -0.3520   -1.0710 hc        1 D2N      0.060700
     54 HANA       -5.8110   -1.5360    0.2150 hc        1 D2N      0.060700
     55 HAO        -3.0000    2.2730    0.1620 h1        1 D2N      0.038200
     56 HAOA       -2.5150    1.0450    1.4340 h1        1 D2N      0.038200
     57 HAP        -7.3220   -0.2790    1.8500 hc        1 D2N      0.077700
     58 HAPA       -7.8480    0.7940    0.4850 hc        1 D2N      0.077700
     59 HAQ         3.7120    2.7760   -1.6230 hc        1 D2N      0.063200
     60 HAQA        2.7880    1.5370   -2.5480 hc        1 D2N      0.063200
     61 CAC         2.8930   -1.0950   -2.1300 c3        1 D2N     -0.074800
     62 CAQ         3.1120    1.8290   -1.5130 c3        1 D2N      0.024200
     63 OAW        -1.5120    0.9080   -0.3990 os        1 D2N     -0.332900
     64 CAB         3.1800    4.8330    1.4180 c3        1 D2N      0.113700
@<TRIPOS>BOND
     1    1    2 ar  
     2    1    6 ar  
     3    2    3 ar  
     4    2    8 1   
     5    3    4 ar  
     6    4    5 ar  
     7    4   21 ar  
     8    5    6 ar  
     9    5   26 ar  
    10    6    9 1   
    11    7   15 1   
    12    7   30 1   
    13    7   31 1   
    14    7   32 1   
    15    8   39 1   
    16    8   40 1   
    17    9   41 1   
    18    9   42 1   
    19   10   24 2   
    20   11   12 ar  
    21   11   25 ar  
    22   11   43 1   
    23   12   29 ar  
    24   12   44 1   
    25   13   21 ar  
    26   13   27 ar  
    27   13   45 1   
    28   14   25 ar  
    29   14   28 ar  
    30   14   46 1   
    31   15   23 1   
    32   15   47 1   
    33   15   48 1   
    34   16   17 1   
    35   16   18 1   
    36   16   49 1   
    37   16   50 1   
    38   17   19 1   
    39   17   51 1   
    40   17   52 1   
    41   18   20 1   
    42   18   53 1   
    43   18   54 1   
    44   19   55 1   
    45   19   56 1   
    46   19   63 1   
    47   20   24 1   
    48   20   57 1   
    49   20   58 1   
    50   22   29 1   
    51   22   64 1   
    52   23   24 1   
    53   25   63 1   
    54   26   27 ar  
    55   26   61 1   
    56   27   62 1   
    57   28   29 ar  
    58   28   62 1   
    59   33   64 1   
    60   34   64 1   
    61   35   64 1   
    62   36   61 1   
    63   37   61 1   
    64   38   61 1   
    65   59   62 1   
    66   60   62 1   
@<TRIPOS>SUBSTRUCTURE
     1 D2N         1 TEMP              0 ****  ****    0 ROOT
