@<TRIPOS>MOLECULE
D2N
   66    64     1     0     0
SMALL
bcc


@<TRIPOS>ATOM
      1 N1          0.3660    0.6040   -0.2940 n2        1 D2N     -0.242000
      2 C2          1.1390   -0.5120   -0.3040 c2        1 D2N      0.060000
      3 N3          1.2870   -1.4690    0.6540 n2        1 D2N     -0.215000
      4 C4          0.6120   -1.2090    1.8240 c2        1 D2N      0.123000
      5 C5         -0.1430   -0.0210    2.0280 c2        1 D2N     -0.174000
      6 C6         -0.3280    0.8460    0.8830 c2        1 D2N      0.243000
      7 CAA        -6.5090   -9.8640    6.3160 c1        1 D2N     -0.065000
      8 NAD         1.9280   -0.7310   -1.5600 n4        1 D2N     -0.013000
      9 NAE        -1.1900    1.8960    0.9090 nh        1 D2N     -0.323000
     10 OAF        -6.4150   -6.5730    7.5790 o         1 D2N     -0.521000
     11 CAG        -3.5120   -3.9860    7.5010 cv        1 D2N     -0.308000
     12 CAH        -2.6750   -4.3650    6.5250 c2        1 D2N      0.131000
     13 CAI        -0.1190   -2.0970    3.9470 c1        1 D2N     -0.057000
     14 CAJ        -3.2190   -1.5850    7.0440 c2        1 D2N     -0.153000
     15 CAK        -7.0750  -11.1760    6.2750 c3        1 D2N     -0.312000
     16 CAL        -3.4370   -8.0210    6.3180 c3        1 D2N     -0.225000
     17 CAM        -3.2700   -7.8730    4.8350 c3        1 D2N     -0.225000
     18 CAN        -9.6770   -6.4860    9.1520 c2        1 D2N     -0.087000
     19 CAO        -4.8470   -4.1550    8.0410 cv        1 D2N      0.325000
     20 CAP        -8.4760   -6.0780    8.7400 c2        1 D2N     -0.238000
     21 NAR         0.6360   -2.1850    2.8690 nh        1 D2N     -0.129000
     22 OAV        -7.9820   -8.1360    7.6340 oh        1 D2N     -0.367000
     23 CAX        -7.5610   -6.9210    7.9590 c2        1 D2N      0.377000
     24 CAZ        -3.5180   -2.5720    8.0910 cy        1 D2N      0.079000
     25 CBB        -0.6630    0.2630    3.3620 c2        1 D2N     -0.075000
     26 CBC        -0.9740   -0.9320    4.1700 c2        1 D2N     -0.119000
     27 CBD        -2.3290   -1.9270    6.0740 c2        1 D2N     -0.036000
     28 CBE        -1.7440   -3.3170    5.9920 c3        1 D2N     -0.177000
     29 HAA        -8.1170  -11.0960    5.8460 hc        1 D2N      0.144000
     30 HAAA       -6.5080  -11.9560    5.7100 hc        1 D2N      0.144000
     31 HAAB       -5.5510   -9.6730    5.8120 ha        1 D2N      0.077000
     32 HAB         0.4340   -2.9220    6.0720 h4        1 D2N      0.162000
     33 HABA       -1.1790   -6.0290    7.7770 ha        1 D2N      0.001750
     34 HABB       -0.7340   -6.2950    8.2140 ha        1 D2N      0.001750
     35 HAC        -1.0520    1.6690    4.9250 ha        1 D2N      0.142500
     36 HACA       -3.2890    3.1640    3.1260 ha        1 D2N      0.001750
     37 HACB       -2.8250    2.7640    3.4170 ha        1 D2N      0.001750
     38 HNAD        1.6400   -0.0540   -2.2810 hn        1 D2N      0.280667
     39 HNAA        1.7700   -1.6880   -1.9010 hn        1 D2N      0.280667
     40 HNAE       -0.3650    2.4030    3.3770 ha        1 D2N      0.142500
     41 HNAB       -1.7530    2.0500    1.7160 hn        1 D2N      0.269000
     42 HAG        -3.0100   -2.3920    9.0700 h1        1 D2N      0.202000
     43 HAH        -2.6710   -5.3690    6.0600 ha        1 D2N      0.199000
     44 HAI         1.2390   -2.9780    2.7520 hn        1 D2N      0.289000
     45 HAJ        -3.6950   -0.5940    7.1130 ha        1 D2N      0.183000
     46 HAK        -7.2190  -11.5270    7.3390 hc        1 D2N      0.144000
     47 HAKA       -7.2760   -8.7040    7.0920 ho        1 D2N      0.327000
     48 HAL        -4.4420   -7.6520    6.6490 hc        1 D2N      0.075167
     49 HALA       -2.6480   -7.4520    6.8690 hc        1 D2N      0.075167
     50 HAM        -3.3730   -6.8050    4.5240 hc        1 D2N      0.075167
     51 HAMA       -4.0470   -8.4650    4.2910 hc        1 D2N      0.075167
     52 HAN       -10.0650   -7.4920    8.9280 ha        1 D2N      0.141000
     53 HANA       -3.3470   -9.0950    6.6150 hc        1 D2N      0.075167
     54 HAO        -5.6290   -4.9450    8.1410 h4        1 D2N      0.312000
     55 HAOA       -2.2650   -8.2380    4.5080 hc        1 D2N      0.075167
     56 HAP       -10.3450   -5.8370    9.7370 ha        1 D2N      0.141000
     57 HAPA       -8.0850   -5.0730    8.9620 ha        1 D2N      0.126000
     58 HAQ        -2.5530    0.0210    5.1920 ha        1 D2N      0.145000
     59 HAQA       -1.5410   -3.5600    4.9020 hc        1 D2N      0.180000
     60 CAC        -0.7080    1.4970    3.8940 c2        1 D2N     -0.156000
     61 CAQ        -1.9480   -0.9080    5.1090 c2        1 D2N     -0.018000
     62 CAB        -0.3850   -3.3450    6.6950 c2        1 D2N      0.203000
     63 HAD3        2.9260   -0.6040   -1.3480 hn        1 D2N      0.280667
     64 HAE3       -1.3120    2.4850    0.1160 hn        1 D2N      0.269000
     65 OAW        -4.9910   -2.8870    8.4440 os        1 D2N     -0.109000
     66 OAU        -0.2380   -3.7960    7.8230 o         1 D2N     -0.242000
@<TRIPOS>BOND
     1    1    2 1   
     2    1    6 1   
     3    2    3 1   
     4    2    8 1   
     5    3    4 1   
     6    4    5 1   
     7    4   21 1   
     8    5    6 1   
     9    5   25 1   
    10    6    9 1   
    11    7   15 1   
    12    7   31 1   
    13    8   38 1   
    14    8   39 1   
    15    8   63 1   
    16    9   41 1   
    17    9   64 1   
    18   10   23 1   
    19   11   12 1   
    20   11   19 1   
    21   11   24 1   
    22   12   28 1   
    23   12   43 1   
    24   13   21 1   
    25   13   26 1   
    26   14   24 1   
    27   14   27 1   
    28   14   45 1   
    29   15   29 1   
    30   15   30 1   
    31   15   46 1   
    32   16   17 1   
    33   16   48 1   
    34   16   49 1   
    35   16   53 1   
    36   17   50 1   
    37   17   51 1   
    38   17   55 1   
    39   18   20 1   
    40   18   52 1   
    41   18   56 1   
    42   19   54 1   
    43   19   65 1   
    44   20   23 1   
    45   20   57 1   
    46   21   44 1   
    47   22   23 1   
    48   22   47 1   
    49   24   42 1   
    50   24   65 1   
    51   25   26 1   
    52   25   60 1   
    53   26   61 1   
    54   27   28 1   
    55   27   61 1   
    56   28   59 1   
    57   28   62 1   
    58   32   62 1   
    59   33   34 1   
    60   35   60 1   
    61   36   37 1   
    62   40   60 1   
    63   58   61 1   
    64   62   66 1   
@<TRIPOS>SUBSTRUCTURE
     1 D2N         1 TEMP              0 ****  ****    0 ROOT
