@<TRIPOS>MOLECULE
D2O
   56    59     1     0     0
SMALL
bcc


@<TRIPOS>ATOM
      1 N1         -0.0290    0.1270   -0.1980 nb        1 D2O     -0.833000
      2 C2          1.3370    0.4080   -0.0980 ca        1 D2O      0.917900
      3 N3          2.0710    0.3880    1.0550 nb        1 D2O     -0.765000
      4 C4          1.3790    0.1450    2.2200 ca        1 D2O      0.714300
      5 C5         -0.0610    0.0090    2.2580 ca        1 D2O     -0.379600
      6 C6         -0.7000   -0.1020    0.9510 ca        1 D2O      0.733200
      7 NAC         2.0150    0.6320   -1.2990 nh        1 D2O     -0.935500
      8 NAD        -2.0470   -0.4360    0.8330 nh        1 D2O     -0.943500
      9 CAE        -6.4340   -9.4630    7.6730 ca        1 D2O     -0.128000
     10 CAF        -6.8600   -8.3720    8.4290 ca        1 D2O     -0.128000
     11 CAG        -5.6130   -9.2600    6.5620 ca        1 D2O     -0.128000
     12 CAH        -6.4670   -7.0810    8.0790 ca        1 D2O     -0.125000
     13 CAI        -5.2200   -7.9710    6.2100 ca        1 D2O     -0.125000
     14 CAJ        -1.1960   -4.2170    7.3600 ca        1 D2O     -0.170000
     15 CAK         0.0560   -3.6390    7.5720 ca        1 D2O     -0.166000
     16 CAL         1.4920   -0.1070    4.5200 ca        1 D2O      0.459200
     17 CAM        -1.9530   -2.1550    6.3040 ca        1 D2O     -0.129000
     18 CAN        -3.7740   -5.2500    6.9450 c3        1 D2O      0.132400
     19 CAO        -5.2320   -5.4960    6.5810 c3        1 D2O     -0.042100
     20 NAQ         2.1400    0.0410    3.3850 nb        1 D2O     -0.662000
     21 OAT         1.5120   -1.6780    7.3270 os        1 D2O     -0.333900
     22 CAV        -5.6430   -6.8720    6.9680 ca        1 D2O     -0.085300
     23 CAW        -2.1960   -3.4750    6.7280 ca        1 D2O      0.098100
     24 CAY         0.0670   -0.0980    4.6710 ca        1 D2O     -0.240600
     25 CAZ        -0.7050   -1.5740    6.5060 ca        1 D2O     -0.065300
     26 CBB        -0.7140   -0.0020    3.5280 ca        1 D2O      0.029700
     27 CBC         0.3030   -2.3300    7.1500 ca        1 D2O      0.097100
     28 HAA         2.2400   -2.7090    9.0010 h1        1 D2O      0.045367
     29 HAAA        3.4040   -1.7110    7.9850 h1        1 D2O      0.045367
     30 HAAB        2.7990   -3.3330    7.3660 h1        1 D2O      0.045367
     31 HAB        -2.4690    0.5750    4.6460 hc        1 D2O      0.055033
     32 HABA       -2.6970   -0.8390    3.5570 hc        1 D2O      0.055033
     33 HABB       -2.5840    0.8620    2.8830 hc        1 D2O      0.055033
     34 HNAC        2.9280    1.0160   -1.2360 hn        1 D2O      0.432300
     35 HNAA        1.4700    0.8820   -2.0890 hn        1 D2O      0.432300
     36 HNAD       -2.4030   -1.0370    1.5390 hn        1 D2O      0.421300
     37 HNAB       -2.3910   -0.6100   -0.0850 hn        1 D2O      0.421300
     38 HAF        -7.5080   -8.5290    9.3040 ha        1 D2O      0.133000
     39 HAG        -5.2770  -10.1190    5.9630 ha        1 D2O      0.133000
     40 HAH        -6.8070   -6.2230    8.6780 ha        1 D2O      0.133000
     41 HAI        -4.5750   -7.8110    5.3330 ha        1 D2O      0.133000
     42 HAJ        -1.3740   -5.2490    7.6940 ha        1 D2O      0.140000
     43 HAK         0.8370   -4.2290    8.0710 ha        1 D2O      0.140000
     44 HAL         2.1220   -0.2370    5.4250 h4        1 D2O      0.037100
     45 HAM        -2.7570   -1.5910    5.8100 ha        1 D2O      0.148000
     46 HAN        -3.1050   -6.0000    6.4480 h1        1 D2O      0.043200
     47 HANA       -3.6230   -5.2840    8.0560 h1        1 D2O      0.043200
     48 HAO        -5.8730   -4.7300    7.0940 hc        1 D2O      0.064200
     49 HAOA       -5.3630   -5.3520    5.4750 hc        1 D2O      0.064200
     50 CAB        -2.1850    0.1530    3.6500 c3        1 D2O     -0.074800
     51 CAP        -0.4490   -0.1700    6.0680 c3        1 D2O      0.024200
     52 OAU        -3.4710   -3.9380    6.4550 os        1 D2O     -0.335900
     53 CAA         2.5420   -2.4250    7.9640 c3        1 D2O      0.113700
     54 HAE        -6.7450  -10.4810    7.9490 ha        1 D2O      0.133000
     55 HAP        -1.3880    0.4340    6.1850 hc        1 D2O      0.063200
     56 HAPA        0.3120    0.2890    6.7610 hc        1 D2O      0.063200
@<TRIPOS>BOND
     1    1    2 ar  
     2    1    6 ar  
     3    2    3 ar  
     4    2    7 1   
     5    3    4 ar  
     6    4    5 ar  
     7    4   20 ar  
     8    5    6 ar  
     9    5   26 ar  
    10    6    8 1   
    11    7   34 1   
    12    7   35 1   
    13    8   36 1   
    14    8   37 1   
    15    9   10 ar  
    16    9   11 ar  
    17    9   54 1   
    18   10   12 ar  
    19   10   38 1   
    20   11   13 ar  
    21   11   39 1   
    22   12   22 ar  
    23   12   40 1   
    24   13   22 ar  
    25   13   41 1   
    26   14   15 ar  
    27   14   23 ar  
    28   14   42 1   
    29   15   27 ar  
    30   15   43 1   
    31   16   20 ar  
    32   16   24 ar  
    33   16   44 1   
    34   17   23 ar  
    35   17   25 ar  
    36   17   45 1   
    37   18   19 1   
    38   18   46 1   
    39   18   47 1   
    40   18   52 1   
    41   19   22 1   
    42   19   48 1   
    43   19   49 1   
    44   21   27 1   
    45   21   53 1   
    46   23   52 1   
    47   24   26 ar  
    48   24   51 1   
    49   25   27 ar  
    50   25   51 1   
    51   26   50 1   
    52   28   53 1   
    53   29   53 1   
    54   30   53 1   
    55   31   50 1   
    56   32   50 1   
    57   33   50 1   
    58   51   55 1   
    59   51   56 1   
@<TRIPOS>SUBSTRUCTURE
     1 D2O         1 TEMP              0 ****  ****    0 ROOT
