@<TRIPOS>MOLECULE
D2O
   56    59     1     0     0
SMALL
bcc


@<TRIPOS>ATOM
      1 N1         -5.2050   -2.9770   -0.1810 nb        1 D2O     -0.833000
      2 C2         -6.1300   -2.1130   -0.7770 ca        1 D2O      0.911900
      3 N3         -5.9290   -0.7840   -1.0210 nb        1 D2O     -0.764000
      4 C4         -4.7980   -0.2240   -0.4690 ca        1 D2O      0.713300
      5 C5         -3.8890   -0.9750    0.3700 ca        1 D2O     -0.380600
      6 C6         -4.1020   -2.4190    0.3620 ca        1 D2O      0.735200
      7 NAC        -7.3620   -2.6680   -1.1410 nh        1 D2O     -0.923500
      8 NAD        -3.1660   -3.2840    0.9170 nh        1 D2O     -0.946500
      9 CAE         8.6900   -1.5290   -0.9300 ca        1 D2O     -0.128000
     10 CAF         8.5550   -0.9330    0.3230 ca        1 D2O     -0.128000
     11 CAG         7.5590   -1.9850   -1.6080 ca        1 D2O     -0.128000
     12 CAH         7.2930   -0.7910    0.8990 ca        1 D2O     -0.125000
     13 CAI         6.2970   -1.8450   -1.0340 ca        1 D2O     -0.125000
     14 CAJ         2.1090    1.8890   -0.6610 ca        1 D2O     -0.170000
     15 CAK         1.1380    2.8330   -0.9970 ca        1 D2O     -0.166000
     16 CAL        -3.5330    1.6920   -0.1640 ca        1 D2O      0.459200
     17 CAM         0.6190    0.9870    1.0430 ca        1 D2O     -0.129000
     18 CAN         4.0190    0.0040    0.1630 c3        1 D2O      0.132400
     19 CAO         4.8080   -1.1100    0.8390 c3        1 D2O     -0.042100
     20 NAQ        -4.5570    1.1200   -0.7580 nb        1 D2O     -0.662000
     21 OAT        -1.1000    3.7550   -0.5870 os        1 D2O     -0.333900
     22 CAV         6.1550   -1.2450    0.2240 ca        1 D2O     -0.085300
     23 CAW         1.8490    0.9700    0.3570 ca        1 D2O      0.098100
     24 CAY        -2.6830    1.0730    0.8100 ca        1 D2O     -0.239600
     25 CAZ        -0.3570    1.9200    0.7090 ca        1 D2O     -0.065300
     26 CBB        -2.8900   -0.2670    1.1030 ca        1 D2O      0.029700
     27 CBC        -0.0840    2.8510   -0.3210 ca        1 D2O      0.097100
     28 HAA        -1.7800    5.3170   -1.6410 h1        1 D2O      0.045367
     29 HAAA        0.0340    5.3500   -1.3400 h1        1 D2O      0.045367
     30 HAAB       -0.6680    4.2020   -2.5890 h1        1 D2O      0.045367
     31 HAB        -1.2150   -1.4220    1.8070 hc        1 D2O      0.055367
     32 HABA       -1.7880   -0.1600    2.9560 hc        1 D2O      0.055367
     33 HABB       -2.7640   -1.6480    2.7580 hc        1 D2O      0.055367
     34 HNAC       -7.3950   -3.6570   -1.2340 hn        1 D2O      0.426300
     35 HNAA       -7.9060   -2.1470   -1.7910 hn        1 D2O      0.426300
     36 HNAD       -2.2230   -2.9760    0.8970 hn        1 D2O      0.423300
     37 HNAB       -3.3040   -4.2600    0.7780 hn        1 D2O      0.423300
     38 HAF         9.4450   -0.5740    0.8600 ha        1 D2O      0.133000
     39 HAG         7.6620   -2.4570   -2.5950 ha        1 D2O      0.133000
     40 HAH         7.1920   -0.3220    1.8890 ha        1 D2O      0.132500
     41 HAI         5.4050   -2.2080   -1.5670 ha        1 D2O      0.132500
     42 HAJ         3.0640    1.8860   -1.2040 ha        1 D2O      0.140000
     43 HAK         1.3520    3.5550   -1.7980 ha        1 D2O      0.140000
     44 HAL        -3.3360    2.7480   -0.4450 h4        1 D2O      0.037100
     45 HAM         0.4380    0.2530    1.8430 ha        1 D2O      0.148000
     46 HAN         4.5020    1.0010    0.3310 h1        1 D2O      0.042700
     47 HANA        3.9170   -0.1890   -0.9370 h1        1 D2O      0.042700
     48 HAO         4.8920   -0.8870    1.9360 hc        1 D2O      0.064200
     49 HAOA        4.2410   -2.0740    0.7390 hc        1 D2O      0.064200
     50 CAB        -2.1300   -0.9130    2.2030 c3        1 D2O     -0.074800
     51 CAP        -1.6560    1.9460    1.4440 c3        1 D2O      0.024200
     52 OAU         2.7240   -0.0170    0.7750 os        1 D2O     -0.335900
     53 CAA        -0.8400    4.7100   -1.6090 c3        1 D2O      0.113700
     54 HAE         9.6860   -1.6410   -1.3830 ha        1 D2O      0.133000
     55 HAP        -2.0390    3.0060    1.4600 hc        1 D2O      0.063200
     56 HAPA       -1.4820    1.6560    2.5150 hc        1 D2O      0.063200
@<TRIPOS>BOND
     1    1    2 ar  
     2    1    6 ar  
     3    2    3 ar  
     4    2    7 1   
     5    3    4 ar  
     6    4    5 ar  
     7    4   20 ar  
     8    5    6 ar  
     9    5   26 ar  
    10    6    8 1   
    11    7   34 1   
    12    7   35 1   
    13    8   36 1   
    14    8   37 1   
    15    9   10 ar  
    16    9   11 ar  
    17    9   54 1   
    18   10   12 ar  
    19   10   38 1   
    20   11   13 ar  
    21   11   39 1   
    22   12   22 ar  
    23   12   40 1   
    24   13   22 ar  
    25   13   41 1   
    26   14   15 ar  
    27   14   23 ar  
    28   14   42 1   
    29   15   27 ar  
    30   15   43 1   
    31   16   20 ar  
    32   16   24 ar  
    33   16   44 1   
    34   17   23 ar  
    35   17   25 ar  
    36   17   45 1   
    37   18   19 1   
    38   18   46 1   
    39   18   47 1   
    40   18   52 1   
    41   19   22 1   
    42   19   48 1   
    43   19   49 1   
    44   21   27 1   
    45   21   53 1   
    46   23   52 1   
    47   24   26 ar  
    48   24   51 1   
    49   25   27 ar  
    50   25   51 1   
    51   26   50 1   
    52   28   53 1   
    53   29   53 1   
    54   30   53 1   
    55   31   50 1   
    56   32   50 1   
    57   33   50 1   
    58   51   55 1   
    59   51   56 1   
@<TRIPOS>SUBSTRUCTURE
     1 D2O         1 TEMP              0 ****  ****    0 ROOT
