@<TRIPOS>MOLECULE
D2O
   56    50     1     0     0
SMALL
bcc


@<TRIPOS>ATOM
      1 N1          2.4200    6.3270    2.9720 n1        1 D2O     -0.274000
      2 C2          3.4320    6.2910    2.0420 c1        1 D2O      0.206000
      3 N3          3.4050    5.3520    1.0240 n1        1 D2O     -0.274000
      4 C4          2.3560    4.4450    0.9390 c1        1 D2O      0.123000
      5 C5          1.3540    4.4760    1.8550 c1        1 D2O     -0.248000
      6 C6          1.3810    5.4320    2.8930 c1        1 D2O      0.206000
      7 CAA        -2.5470   -0.0070    3.3630 c3        1 D2O     -0.075000
      8 CAB        -0.0180    2.8080    3.1090 c3        1 D2O     -0.208000
      9 NAC         4.5000    7.2290    2.1200 n3        1 D2O     -0.334000
     10 NAD         0.3040    5.5270    3.7800 n3        1 D2O     -0.334000
     11 CAE        -1.6280   -6.5660   -5.0240 c1        1 D2O     -0.127250
     12 CAF        -1.2830   -5.2470   -5.3300 c1        1 D2O     -0.127250
     13 CAG        -1.1300   -7.1660   -3.8700 c1        1 D2O     -0.127250
     14 CAH        -0.4500   -4.5390   -4.4890 c1        1 D2O     -0.127000
     15 CAI        -0.2950   -6.4540   -3.0280 c1        1 D2O     -0.127250
     16 CAJ        -1.7890   -2.1870   -0.1890 c1        1 D2O     -0.173000
     17 CAK        -2.3000   -1.4340    0.8420 c1        1 D2O     -0.164000
     18 CAL         1.2950    2.5810   -0.1920 c1        1 D2O     -0.013000
     19 CAM        -0.3770   -0.3430   -0.8570 c1        1 D2O     -0.124000
     20 CAN         0.4850   -3.6140   -1.3990 c3        1 D2O     -0.018000
     21 CAO         1.1290   -4.4510   -2.5370 c3        1 D2O     -0.129000
     22 CAP        -0.9940    1.9770    0.1060 c3        1 D2O     -0.071000
     23 NAQ         2.3380    3.4950   -0.0970 n1        1 D2O     -0.133000
     24 OAT        -2.8840    0.2580    1.9730 os        1 D2O     -0.221000
     25 OAU        -0.3660   -2.6020   -1.9710 os        1 D2O     -0.214000
     26 CAV         0.0480   -5.1370   -3.3360 c1        1 D2O     -0.077000
     27 CAW        -0.8180   -1.6390   -1.0480 c1        1 D2O      0.060000
     28 CAY         0.2700    2.6050    0.7370 c2        1 D2O     -0.175000
     29 CAZ        -0.8950    0.4210    0.1860 c2        1 D2O     -0.060000
     30 CBB         0.2840    3.5440    1.7650 c2        1 D2O      0.044000
     31 CBC        -1.8550   -0.1210    1.0360 c2        1 D2O      0.040000
     32 HAA        -1.6840   -0.4630    3.4090 h1        1 D2O      0.082667
     33 HAAA       -3.2490   -0.5840    3.7700 h1        1 D2O      0.082667
     34 HAAB       -2.4930    0.8720    3.8720 h1        1 D2O      0.082667
     35 HAB        -0.8570    3.1250    3.4710 hc        1 D2O      0.100000
     36 HABA        0.6790    2.9860    3.7290 hc        1 D2O      0.100000
     37 HABB       -0.0730    1.8270    2.9450 hc        1 D2O      0.100000
     38 HNAC        5.0780    7.3140    1.4340 hn        1 D2O      0.221750
     39 HNAA        4.5680    7.7790    2.8420 hn        1 D2O      0.221750
     40 HNAD        0.4270    5.8790    4.6150 hn        1 D2O      0.221750
     41 HNAB       -0.5210    5.2200    3.5290 hn        1 D2O      0.221750
     42 HAE        -2.1990   -7.0510   -5.6000 ha        1 D2O      0.132500
     43 HAF        -1.6520   -4.8010   -6.1870 ha        1 D2O      0.132500
     44 HAG        -1.3800   -8.1270   -3.6460 ha        1 D2O      0.132500
     45 HAH        -0.2130   -3.6250   -4.7020 ha        1 D2O      0.132000
     46 HAI         0.0450   -6.8600   -2.2450 ha        1 D2O      0.132500
     47 HAJ        -2.1130   -3.1390   -0.3310 ha        1 D2O      0.140000
     48 HAK        -2.9580   -1.8040    1.4210 ha        1 D2O      0.138000
     49 HAL         1.2330    1.9520   -1.0160 ha        1 D2O      0.160000
     50 HAM         0.3280    0.0550   -1.4830 ha        1 D2O      0.156000
     51 HAN         1.2120   -3.1720   -0.8520 h1        1 D2O      0.081000
     52 HANA       -0.0500   -4.2050   -0.8180 h1        1 D2O      0.081000
     53 HAO         1.6430   -3.8620   -3.1270 hc        1 D2O      0.106000
     54 HAOA        1.7080   -5.1090   -2.1580 hc        1 D2O      0.106000
     55 HAP        -1.0640    2.2540   -0.8390 hc        1 D2O      0.105000
     56 HAPA       -1.7820    2.2780    0.5920 hc        1 D2O      0.105000
@<TRIPOS>BOND
     1    1    6 1   
     2    2    3 1   
     3    2    9 1   
     4    4    5 1   
     5    4   23 1   
     6    5   30 1   
     7    6   10 1   
     8    7   24 1   
     9    7   32 1   
    10    7   33 1   
    11    7   34 1   
    12    8   30 1   
    13    8   35 1   
    14    8   36 1   
    15    8   37 1   
    16    9   38 1   
    17    9   39 1   
    18   10   40 1   
    19   10   41 1   
    20   11   12 1   
    21   11   42 1   
    22   12   43 1   
    23   13   15 1   
    24   13   44 1   
    25   14   26 1   
    26   14   45 1   
    27   15   46 1   
    28   16   27 1   
    29   16   47 1   
    30   17   31 1   
    31   17   48 1   
    32   18   28 1   
    33   18   49 1   
    34   19   29 1   
    35   19   50 1   
    36   20   21 1   
    37   20   25 1   
    38   20   51 1   
    39   20   52 1   
    40   21   26 1   
    41   21   53 1   
    42   21   54 1   
    43   22   28 1   
    44   22   29 1   
    45   22   55 1   
    46   22   56 1   
    47   24   31 1   
    48   25   27 1   
    49   28   30 1   
    50   29   31 1   
@<TRIPOS>SUBSTRUCTURE
     1 D2O         1 TEMP              0 ****  ****    0 ROOT
