@<TRIPOS>MOLECULE
D2P
   12    11     1     0     0
SMALL
bcc


@<TRIPOS>ATOM
      1 O1          0.0030    0.1870    0.0930 oh        1 D2P     -0.603800
      2 C2          1.4050   -0.0100    0.0030 c3        1 D2P      0.121400
      3 C3          1.9390   -0.0190    1.4350 c3        1 D2P      0.039700
      4 C4          1.3950   -1.2140    2.1880 c3        1 D2P      0.025000
      5 Cl5         1.7520   -1.1410    3.9000 cl        1 D2P     -0.174400
      6 Cl1         3.7020   -0.0360    1.3840 cl        1 D2P     -0.174400
      7 H1         -0.3170    0.3080   -0.8080 ho        1 D2P      0.411000
      8 H2C1        1.6210   -0.9880   -0.5060 h1        1 D2P      0.042700
      9 H2C2        1.8790    0.8240   -0.5810 h1        1 D2P      0.042700
     10 H3          1.6540    0.9350    1.9500 h1        1 D2P      0.100700
     11 H4C1        0.2800   -1.2320    2.0860 h1        1 D2P      0.085200
     12 H4C2        1.8280   -2.1700    1.8050 h1        1 D2P      0.085200
@<TRIPOS>BOND
     1    1    2 1   
     2    1    7 1   
     3    2    3 1   
     4    2    8 1   
     5    2    9 1   
     6    3    4 1   
     7    3    6 1   
     8    3   10 1   
     9    4    5 1   
    10    4   11 1   
    11    4   12 1   
@<TRIPOS>SUBSTRUCTURE
     1 D2P         1 TEMP              0 ****  ****    0 ROOT
