@<TRIPOS>MOLECULE
D2P
   12    11     1     0     0
SMALL
bcc


@<TRIPOS>ATOM
      1 O1         -2.0830   -0.1750   -0.8000 oh        1 D2P     -0.587800
      2 C2         -0.6350   -0.1530   -0.8320 c3        1 D2P      0.124400
      3 C3         -0.1020   -0.0540    0.5840 c3        1 D2P     -0.003300
      4 C4          1.4310   -0.0000    0.5550 c3        1 D2P      0.023000
      5 CL5         2.0190    0.6840    2.0560 cl        1 D2P     -0.165400
      6 CL1        -0.7160    1.3800    1.3260 cl        1 D2P     -0.180400
      7 H1         -2.4010   -0.1370   -1.6340 ho        1 D2P      0.411000
      8 H2C1       -0.3040   -0.9770   -1.2500 h1        1 D2P      0.060200
      9 H2C2       -0.3320    0.6200   -1.3500 h1        1 D2P      0.060200
     10 H3         -0.3910   -0.8340    1.0970 h1        1 D2P      0.102700
     11 H4C1        1.7900   -0.9130    0.4470 h1        1 D2P      0.078200
     12 H4C2        1.7250    0.5590   -0.1970 h1        1 D2P      0.078200
@<TRIPOS>BOND
     1    1    2 1   
     2    1    7 1   
     3    2    3 1   
     4    2    8 1   
     5    2    9 1   
     6    3    4 1   
     7    3    6 1   
     8    3   10 1   
     9    4    5 1   
    10    4   11 1   
    11    4   12 1   
@<TRIPOS>SUBSTRUCTURE
     1 D2P         1 TEMP              0 ****  ****    0 ROOT
