@<TRIPOS>MOLECULE
D2P
   12    11     1     0     0
SMALL
bcc


@<TRIPOS>ATOM
      1 O1          2.4170    1.3400    0.2500 oh        1 D2P     -0.603800
      2 C2          1.9990    0.0370   -0.1260 c3        1 D2P      0.121400
      3 C3          0.5410   -0.0980    0.3120 c3        1 D2P      0.039700
      4 C4         -0.3300    0.8640   -0.4670 c3        1 D2P      0.025000
      5 CL5        -1.9590    0.9510    0.1670 cl        1 D2P     -0.174400
      6 CL1         0.0290   -1.7690    0.0770 cl        1 D2P     -0.174400
      7 H1          3.3650    1.3850    0.0790 ho        1 D2P      0.411000
      8 H2C1        2.0910   -0.0860   -1.2380 h1        1 D2P      0.042700
      9 H2C2        2.6300   -0.7370    0.3870 h1        1 D2P      0.042700
     10 H3          0.4580    0.0990    1.4130 h1        1 D2P      0.100700
     11 H4C1        0.1060    1.8920   -0.3920 h1        1 D2P      0.085200
     12 H4C2       -0.4130    0.5620   -1.5390 h1        1 D2P      0.085200
@<TRIPOS>BOND
     1    1    2 1   
     2    1    7 1   
     3    2    3 1   
     4    2    8 1   
     5    2    9 1   
     6    3    4 1   
     7    3    6 1   
     8    3   10 1   
     9    4    5 1   
    10    4   11 1   
    11    4   12 1   
@<TRIPOS>SUBSTRUCTURE
     1 D2P         1 TEMP              0 ****  ****    0 ROOT
