@<TRIPOS>MOLECULE
D2P
   12    11     1     0     0
SMALL
bcc


@<TRIPOS>ATOM
      1 O1          0.0060    0.1840    0.0860 oh        1 D2P     -0.603800
      2 C2          1.4100   -0.0130    0.0020 c3        1 D2P      0.121400
      3 C3          1.9370   -0.0180    1.4360 c3        1 D2P      0.039700
      4 C4          1.3910   -1.2120    2.1900 c3        1 D2P      0.025000
      5 CL5         1.7400   -1.1350    3.9030 cl        1 D2P     -0.174400
      6 CL1         3.7000   -0.0340    1.3930 cl        1 D2P     -0.174400
      7 H1         -0.3100    0.3030   -0.8170 ho        1 D2P      0.411000
      8 H2C1        1.6270   -0.9920   -0.5040 h1        1 D2P      0.042700
      9 H2C2        1.8850    0.8200   -0.5820 h1        1 D2P      0.042700
     10 H3          1.6490    0.9370    1.9480 h1        1 D2P      0.100700
     11 H4C1        0.2770   -1.2300    2.0830 h1        1 D2P      0.085200
     12 H4C2        1.8260   -2.1680    1.8110 h1        1 D2P      0.085200
@<TRIPOS>BOND
     1    1    2 1   
     2    1    7 1   
     3    2    3 1   
     4    2    8 1   
     5    2    9 1   
     6    3    4 1   
     7    3    6 1   
     8    3   10 1   
     9    4    5 1   
    10    4   11 1   
    11    4   12 1   
@<TRIPOS>SUBSTRUCTURE
     1 D2P         1 TEMP              0 ****  ****    0 ROOT
