@<TRIPOS>MOLECULE
D2Q
   61    61     1     0     0
SMALL
bcc


@<TRIPOS>ATOM
      1 C1          1.0810    0.7390   -0.6570 c2        1 D2Q     -0.230000
      2 C2          1.9630   -0.1630   -0.2480 c2        1 D2Q     -0.230000
      3 C3         -3.6850    0.0370    3.2240 c3        1 D2Q     -0.077400
      4 C1'        -8.7200   -0.0370    6.5520 ca        1 D2Q     -0.102300
      5 N1'        -5.6420    4.9810    9.1550 nb        1 D2Q     -0.765000
      6 C2'        -6.3640    5.9130    9.8450 ca        1 D2Q      0.910900
      7 C2'A       -8.0650   -0.1810    5.3080 ca        1 D2Q      0.128100
      8 N2'        -5.6720    6.9810   10.4260 nh        1 D2Q     -0.922500
      9 O2'        -6.6870   -0.2830    5.3700 os        1 D2Q     -0.341900
     10 C21        -5.9930   -0.1720    4.1210 c3        1 D2Q      0.130400
     11 C26        -4.5210   -0.0470    4.4810 c3        1 D2Q     -0.090400
     12 C3'        -8.7960   -0.2450    4.1160 ca        1 D2Q     -0.199000
     13 N3'        -7.7510    5.8890   10.0290 nb        1 D2Q     -0.833000
     14 C4'        -8.4030    4.7670    9.6580 ca        1 D2Q      0.735200
     15 C4'A      -10.1870   -0.1620    4.1590 ca        1 D2Q     -0.100000
     16 N4'        -9.7860    4.7630    9.8050 nh        1 D2Q     -0.946500
     17 C44        -2.2200    0.1950    3.5700 c3        1 D2Q     -0.127400
     18 C45        -1.3830    0.3090    2.3370 c         1 D2Q      0.637100
     19 O46        -1.7260    0.4760    1.1630 o         1 D2Q     -0.560000
     20 O47        -0.0440    0.2150    2.5760 oh        1 D2Q     -0.614100
     21 C4A        -7.7000    3.6050    9.1230 ca        1 D2Q     -0.378600
     22 C5'        -8.2480    2.3040    8.9130 ca        1 D2Q      0.027700
     23 C5'A      -10.8480   -0.0220    5.3770 ca        1 D2Q     -0.159000
     24 O5'       -14.2800    0.0260    5.7350 o         1 D2Q     -0.526100
     25 C51        -9.5430    1.8980    9.5140 c3        1 D2Q     -0.073800
     26 C5A       -15.3470   -0.5080    5.4410 c         1 D2Q      0.568700
     27 C6'        -7.5080    1.3880    8.1790 ca        1 D2Q     -0.235600
     28 C6'A      -10.1140    0.0370    6.5610 ca        1 D2Q     -0.102000
     29 C7'        -6.2040    1.7770    7.7310 ca        1 D2Q      0.457200
     30 N8'        -5.6000    2.9090    8.0230 nb        1 D2Q     -0.665000
     31 C8A        -6.3160    3.8410    8.7740 ca        1 D2Q      0.712300
     32 H1          0.4480    0.3140    1.7400 ho        1 D2Q      0.451000
     33 H1A         1.3750    1.6580   -1.1830 ha        1 D2Q      0.116250
     34 H2         -0.0040    0.6290   -0.5000 ha        1 D2Q      0.116250
     35 H2A         1.6710   -1.0860    0.2710 ha        1 D2Q      0.116250
     36 H2B         3.0440   -0.0530   -0.4060 ha        1 D2Q      0.116250
     37 H3         -4.0160    0.9060    2.5960 hc        1 D2Q      0.058700
     38 H3A        -3.8270   -0.8880    2.6050 hc        1 D2Q      0.058700
     39 HN2'       -4.7550    7.1520   10.0810 hn        1 D2Q      0.426300
     40 HN2A       -6.2090    7.7840   10.6600 hn        1 D2Q      0.426300
     41 H21        -6.3480    0.7330    3.5620 h1        1 D2Q      0.043700
     42 H21A       -6.1840   -1.0940    3.5120 h1        1 D2Q      0.043700
     43 H26        -4.3700    0.8690    5.1120 hc        1 D2Q      0.060200
     44 H26A       -4.2120   -0.9310    5.0970 hc        1 D2Q      0.060200
     45 H3'        -8.2890   -0.3630    3.1480 ha        1 D2Q      0.136000
     46 H4'       -10.7620   -0.2090    3.2220 ha        1 D2Q      0.131000
     47 HN4'      -10.2900    4.1960    9.1640 hn        1 D2Q      0.423300
     48 HN4A      -10.2220    5.6200   10.0590 hn        1 D2Q      0.423300
     49 H44        -2.0580    1.1210    4.1860 hc        1 D2Q      0.085200
     50 H44A       -1.8580   -0.6790    4.1740 hc        1 D2Q      0.085200
     51 H51       -10.3940    2.1580    8.8350 hc        1 D2Q      0.055033
     52 H51A       -9.6950    2.3730   10.5140 hc        1 D2Q      0.055033
     53 H51B       -9.5820    0.7910    9.6800 hc        1 D2Q      0.055033
     54 H5A       -10.6390    0.1470    7.5240 ha        1 D2Q      0.131000
     55 H5AA      -16.2680   -0.3570    6.0430 h4        1 D2Q     -0.020800
     56 H5AB      -15.4530   -1.1720    4.5580 h4        1 D2Q     -0.020800
     57 H6'       -11.9480    0.0430    5.4090 ha        1 D2Q      0.156000
     58 H61        -7.0370   -0.6470    7.7190 hc        1 D2Q      0.060200
     59 H61A       -8.5630   -0.4400    8.6520 hc        1 D2Q      0.060200
     60 H7'        -5.6300    1.0720    7.0910 h4        1 D2Q      0.035100
     61 C61        -7.9480    0.0080    7.8270 c3        1 D2Q      0.027200
@<TRIPOS>BOND
     1    1    2 2   
     2    1   33 1   
     3    1   34 1   
     4    2   35 1   
     5    2   36 1   
     6    3   11 1   
     7    3   17 1   
     8    3   37 1   
     9    3   38 1   
    10    4    7 ar  
    11    4   28 ar  
    12    4   61 1   
    13    5    6 ar  
    14    5   31 ar  
    15    6    8 1   
    16    6   13 ar  
    17    7    9 1   
    18    7   12 ar  
    19    8   39 1   
    20    8   40 1   
    21    9   10 1   
    22   10   11 1   
    23   10   41 1   
    24   10   42 1   
    25   11   43 1   
    26   11   44 1   
    27   12   15 ar  
    28   12   45 1   
    29   13   14 ar  
    30   14   16 1   
    31   14   21 ar  
    32   15   23 ar  
    33   15   46 1   
    34   16   47 1   
    35   16   48 1   
    36   17   18 1   
    37   17   49 1   
    38   17   50 1   
    39   18   19 2   
    40   18   20 1   
    41   20   32 1   
    42   21   22 ar  
    43   21   31 ar  
    44   22   25 1   
    45   22   27 ar  
    46   23   28 ar  
    47   23   57 1   
    48   24   26 2   
    49   25   51 1   
    50   25   52 1   
    51   25   53 1   
    52   26   55 1   
    53   26   56 1   
    54   27   29 ar  
    55   27   61 1   
    56   28   54 1   
    57   29   30 ar  
    58   29   60 1   
    59   30   31 ar  
    60   58   61 1   
    61   59   61 1   
@<TRIPOS>SUBSTRUCTURE
     1 D2Q         1 TEMP              0 ****  ****    0 ROOT
