@<TRIPOS>MOLECULE
D2Q
   61    61     1     0     0
SMALL
bcc


@<TRIPOS>ATOM
      1 C1          0.9600    0.7490   -0.7530 c2        1 D2Q     -0.230000
      2 C2          1.8810   -0.1100   -0.3350 c2        1 D2Q     -0.230000
      3 C3         -3.7340    0.0400    3.2110 c3        1 D2Q     -0.077400
      4 C1'        -8.6990   -0.0550    6.6360 ca        1 D2Q     -0.102300
      5 N1'        -5.4640    4.8690    9.2140 nb        1 D2Q     -0.766000
      6 C2'        -6.1580    5.8330    9.8890 ca        1 D2Q      0.916900
      7 C2'A       -8.0730   -0.1890    5.3770 ca        1 D2Q      0.128100
      8 N2'        -5.4730    6.9940   10.2560 nh        1 D2Q     -0.935500
      9 O2'        -6.6950   -0.3160    5.4070 os        1 D2Q     -0.341900
     10 C21        -6.0250   -0.1730    4.1480 c3        1 D2Q      0.130400
     11 C26        -4.5460   -0.0640    4.4820 c3        1 D2Q     -0.090400
     12 C3'        -8.8290   -0.2220    4.1990 ca        1 D2Q     -0.199000
     13 N3'        -7.5300    5.8080   10.1620 nb        1 D2Q     -0.833000
     14 C4'        -8.2120    4.6990    9.8050 ca        1 D2Q      0.732200
     15 C4'A      -10.2180   -0.1160    4.2730 ca        1 D2Q     -0.100000
     16 N4'        -9.5860    4.7090   10.0320 nh        1 D2Q     -0.943500
     17 C44        -2.2620    0.1870    3.5310 c3        1 D2Q     -0.127400
     18 C45        -1.4460    0.3000    2.2850 c         1 D2Q      0.637100
     19 O46        -1.8090    0.4200    1.1110 o         1 D2Q     -0.560000
     20 O47        -0.1020    0.2640    2.5070 oh        1 D2Q     -0.614100
     21 C4A        -7.5510    3.5340    9.2260 ca        1 D2Q     -0.378600
     22 C5'        -8.1310    2.2470    9.0110 ca        1 D2Q      0.028700
     23 C5'A      -10.8510    0.0140    5.5060 ca        1 D2Q     -0.158000
     24 O5'       -14.2770    0.1490    5.9110 o         1 D2Q     -0.526100
     25 C51        -9.4270    1.8610    9.6230 c3        1 D2Q     -0.074800
     26 C5A       -15.3760   -0.2880    5.5790 c         1 D2Q      0.568700
     27 C6'        -7.4230    1.3210    8.2580 ca        1 D2Q     -0.235600
     28 C6'A      -10.0910    0.0410    6.6760 ca        1 D2Q     -0.102000
     29 C7'        -6.1160    1.6820    7.7960 ca        1 D2Q      0.457200
     30 N8'        -5.4840    2.7990    8.0850 nb        1 D2Q     -0.666000
     31 C8A        -6.1710    3.7450    8.8470 ca        1 D2Q      0.713300
     32 H1          0.3760    0.3570    1.6630 ho        1 D2Q      0.451000
     33 H1A         1.2130    1.6660   -1.3030 ha        1 D2Q      0.116250
     34 H2         -0.1170    0.6020   -0.5780 ha        1 D2Q      0.116250
     35 H2A         1.6300   -1.0310    0.2080 ha        1 D2Q      0.116250
     36 H2B         2.9550    0.0370   -0.5110 ha        1 D2Q      0.116250
     37 H3         -4.0740    0.9210    2.6050 hc        1 D2Q      0.059200
     38 H3A        -3.8910   -0.8730    2.5780 hc        1 D2Q      0.059200
     39 HN2'       -4.4810    6.9530   10.2470 hn        1 D2Q      0.431800
     40 HN2A       -5.8960    7.5750   10.9390 hn        1 D2Q      0.431800
     41 H21        -6.3870    0.7470    3.6200 h1        1 D2Q      0.044200
     42 H21A       -6.2330   -1.0780    3.5190 h1        1 D2Q      0.044200
     43 H26        -4.3770    0.8380    5.1280 hc        1 D2Q      0.060200
     44 H26A       -4.2310   -0.9620    5.0750 hc        1 D2Q      0.060200
     45 H3'        -8.3440   -0.3320    3.2200 ha        1 D2Q      0.136000
     46 H4'       -10.8130   -0.1390    3.3480 ha        1 D2Q      0.131000
     47 HN4'      -10.1300    4.1780    9.3930 hn        1 D2Q      0.421300
     48 HN4A       -9.9910    5.5740   10.3160 hn        1 D2Q      0.421300
     49 H44        -1.8950   -0.6930    4.1240 hc        1 D2Q      0.085700
     50 H44A       -2.0830    1.1080    4.1500 hc        1 D2Q      0.085700
     51 H51       -10.2820    2.1740    8.9720 hc        1 D2Q      0.054700
     52 H51A       -9.5420    2.3020   10.6440 hc        1 D2Q      0.054700
     53 H51B       -9.5020    0.7510    9.7490 hc        1 D2Q      0.054700
     54 H5A       -10.5940    0.1440    7.6510 ha        1 D2Q      0.131000
     55 H5AA      -16.2870   -0.1220    6.1910 h4        1 D2Q     -0.020800
     56 H5AB      -15.5230   -0.8740    4.6470 h4        1 D2Q     -0.020800
     57 H6'       -11.9490    0.0960    5.5630 ha        1 D2Q      0.156000
     58 H61        -7.0050   -0.7160    7.7570 hc        1 D2Q      0.059700
     59 H61A       -8.5050   -0.4930    8.7270 hc        1 D2Q      0.059700
     60 H7'        -5.5660    0.9690    7.1450 h4        1 D2Q      0.035100
     61 C61        -7.8990   -0.0440    7.8950 c3        1 D2Q      0.027200
@<TRIPOS>BOND
     1    1    2 2   
     2    1   33 1   
     3    1   34 1   
     4    2   35 1   
     5    2   36 1   
     6    3   11 1   
     7    3   17 1   
     8    3   37 1   
     9    3   38 1   
    10    4    7 ar  
    11    4   28 ar  
    12    4   61 1   
    13    5    6 ar  
    14    5   31 ar  
    15    6    8 1   
    16    6   13 ar  
    17    7    9 1   
    18    7   12 ar  
    19    8   39 1   
    20    8   40 1   
    21    9   10 1   
    22   10   11 1   
    23   10   41 1   
    24   10   42 1   
    25   11   43 1   
    26   11   44 1   
    27   12   15 ar  
    28   12   45 1   
    29   13   14 ar  
    30   14   16 1   
    31   14   21 ar  
    32   15   23 ar  
    33   15   46 1   
    34   16   47 1   
    35   16   48 1   
    36   17   18 1   
    37   17   49 1   
    38   17   50 1   
    39   18   19 2   
    40   18   20 1   
    41   20   32 1   
    42   21   22 ar  
    43   21   31 ar  
    44   22   25 1   
    45   22   27 ar  
    46   23   28 ar  
    47   23   57 1   
    48   24   26 2   
    49   25   51 1   
    50   25   52 1   
    51   25   53 1   
    52   26   55 1   
    53   26   56 1   
    54   27   29 ar  
    55   27   61 1   
    56   28   54 1   
    57   29   30 ar  
    58   29   60 1   
    59   30   31 ar  
    60   58   61 1   
    61   59   61 1   
@<TRIPOS>SUBSTRUCTURE
     1 D2Q         1 TEMP              0 ****  ****    0 ROOT
