@<TRIPOS>MOLECULE
D2Q
   61    63     1     0     0
SMALL
bcc


@<TRIPOS>ATOM
      1 C1         -8.5640   -1.8970   -0.5710 c3        1 D2Q      0.139400
      2 C2         -9.3140   -2.9260    0.2390 c3        1 D2Q     -0.100100
      3 C3         -4.3360    0.4670   -0.1980 c3        1 D2Q     -0.076400
      4 C1'         1.2790    2.3490    0.9360 ca        1 D2Q     -0.065300
      5 N1'         2.2970   -3.8780   -0.3220 nb        1 D2Q     -0.765000
      6 C2'         3.5490   -4.2840   -0.6920 ca        1 D2Q      0.912900
      7 C2'A       -0.0030    2.5740    0.3800 ca        1 D2Q      0.100100
      8 N2'         3.7520   -5.6460   -0.9340 nh        1 D2Q     -0.923500
      9 O2'        -0.9980    1.7130    0.8110 os        1 D2Q     -0.339900
     10 C21        -2.2070    1.7240    0.0420 c3        1 D2Q      0.129400
     11 C26        -2.9980    0.5120    0.5050 c3        1 D2Q     -0.090400
     12 C3'        -0.2220    3.6280   -0.5100 ca        1 D2Q     -0.164000
     13 N3'         4.6590   -3.4460   -0.8460 nb        1 D2Q     -0.834000
     14 C4'         4.5340   -2.1720   -0.4190 ca        1 D2Q      0.736200
     15 C4'A        0.8310    4.4710   -0.8690 ca        1 D2Q     -0.170000
     16 N4'         5.6250   -1.3330   -0.6120 nh        1 D2Q     -0.947500
     17 C44        -5.1180   -0.7580    0.2240 c3        1 D2Q     -0.128400
     18 C45        -6.4240   -0.8400   -0.5030 c         1 D2Q      0.631100
     19 O46        -6.7930   -0.2360   -1.5130 o         1 D2Q     -0.546000
     20 O47        -7.2880   -1.7300    0.0730 os        1 D2Q     -0.444900
     21 C4A         3.3130   -1.6850    0.2150 ca        1 D2Q     -0.380600
     22 C5'         3.1490   -0.4440    0.9010 ca        1 D2Q      0.030700
     23 C5'A        2.0990    4.2540   -0.3240 ca        1 D2Q      0.095100
     24 O5'         3.2190    5.0160   -0.6080 os        1 D2Q     -0.329900
     25 C51         4.3140    0.3760    1.3160 c3        1 D2Q     -0.075800
     26 C5A         3.0140    6.1280   -1.4700 c3        1 D2Q      0.113700
     27 C6'         1.8640   -0.0410    1.2360 ca        1 D2Q     -0.239600
     28 C6'A        2.3220    3.1990    0.5800 ca        1 D2Q     -0.129000
     29 C7'         0.7780   -0.9270    0.9370 ca        1 D2Q      0.457200
     30 N8'         0.8940   -2.1380    0.4380 nb        1 D2Q     -0.665000
     31 C8A         2.1770   -2.5750    0.1070 ca        1 D2Q      0.714300
     32 H1         -8.3920   -2.2360   -1.6260 h1        1 D2Q      0.051200
     33 H1A        -9.0910   -0.9080   -0.5850 h1        1 D2Q      0.051200
     34 H2         -9.4490   -2.5760    1.2900 hc        1 D2Q      0.048033
     35 H2A       -10.3160   -3.0930   -0.2240 hc        1 D2Q      0.048033
     36 H2B        -8.7550   -3.8920    0.2600 hc        1 D2Q      0.048033
     37 H3         -4.9270    1.3900    0.0400 hc        1 D2Q      0.058700
     38 H3A        -4.1890    0.4490   -1.3110 hc        1 D2Q      0.058700
     39 HN2'        2.9370   -6.1940   -1.0880 hn        1 D2Q      0.427300
     40 HN2A        4.5540   -5.8900   -1.4680 hn        1 D2Q      0.427300
     41 H21        -2.7640    2.6750    0.2520 h1        1 D2Q      0.043200
     42 H21A       -1.9710    1.6560   -1.0520 h1        1 D2Q      0.043200
     43 H26        -3.1430    0.5630    1.6160 hc        1 D2Q      0.060200
     44 H26A       -2.4120   -0.4200    0.2880 hc        1 D2Q      0.060200
     45 H3'        -1.2190    3.8100   -0.9360 ha        1 D2Q      0.140000
     46 H4'         0.6470    5.2940   -1.5720 ha        1 D2Q      0.140000
     47 HN4'        5.4200   -0.3690   -0.7280 hn        1 D2Q      0.424300
     48 HN4A        6.3840   -1.6820   -1.1530 hn        1 D2Q      0.424300
     49 H44        -4.5390   -1.6940   -0.0030 hc        1 D2Q      0.083200
     50 H44A       -5.3140   -0.7430    1.3290 hc        1 D2Q      0.083200
     51 H51         4.6120    1.0830    0.5000 hc        1 D2Q      0.056033
     52 H51A        4.0730    0.9960    2.2160 hc        1 D2Q      0.056033
     53 H51B        5.1840   -0.2660    1.6000 hc        1 D2Q      0.056033
     54 H5A         4.0270    6.6010   -1.5310 h1        1 D2Q      0.043700
     55 H5AA        2.6790    5.7860   -2.4800 h1        1 D2Q      0.043700
     56 H5AB        2.2720    6.8390   -1.0320 h1        1 D2Q      0.043700
     57 H6'         3.3290    3.0510    0.9990 ha        1 D2Q      0.148000
     58 H61         2.3060    1.5460    2.6400 hc        1 D2Q      0.063700
     59 H61A        0.5680    1.0890    2.5090 hc        1 D2Q      0.063700
     60 H7'        -0.2580   -0.5860    1.1480 h4        1 D2Q      0.035100
     61 C61         1.5100    1.2400    1.9080 c3        1 D2Q      0.024200
@<TRIPOS>BOND
     1    1    2 1   
     2    1   20 1   
     3    1   32 1   
     4    1   33 1   
     5    2   34 1   
     6    2   35 1   
     7    2   36 1   
     8    3   11 1   
     9    3   17 1   
    10    3   37 1   
    11    3   38 1   
    12    4    7 ar  
    13    4   28 ar  
    14    4   61 1   
    15    5    6 ar  
    16    5   31 ar  
    17    6    8 1   
    18    6   13 ar  
    19    7    9 1   
    20    7   12 ar  
    21    8   39 1   
    22    8   40 1   
    23    9   10 1   
    24   10   11 1   
    25   10   41 1   
    26   10   42 1   
    27   11   43 1   
    28   11   44 1   
    29   12   15 ar  
    30   12   45 1   
    31   13   14 ar  
    32   14   16 1   
    33   14   21 ar  
    34   15   23 ar  
    35   15   46 1   
    36   16   47 1   
    37   16   48 1   
    38   17   18 1   
    39   17   49 1   
    40   17   50 1   
    41   18   19 2   
    42   18   20 1   
    43   21   22 ar  
    44   21   31 ar  
    45   22   25 1   
    46   22   27 ar  
    47   23   24 1   
    48   23   28 ar  
    49   24   26 1   
    50   25   51 1   
    51   25   52 1   
    52   25   53 1   
    53   26   54 1   
    54   26   55 1   
    55   26   56 1   
    56   27   29 ar  
    57   27   61 1   
    58   28   57 1   
    59   29   30 ar  
    60   29   60 1   
    61   30   31 ar  
    62   58   61 1   
    63   59   61 1   
@<TRIPOS>SUBSTRUCTURE
     1 D2Q         1 TEMP              0 ****  ****    0 ROOT
