@<TRIPOS>MOLECULE
D2R
   52    54     1     0     0
SMALL
bcc


@<TRIPOS>ATOM
      1 N1         -0.3470    4.3770    1.9800 nb        1 D2R     -0.872000
      2 C2         -1.3660    4.9660    1.2460 ca        1 D2R      0.900900
      3 N3         -1.8680    4.5210    0.0540 nb        1 D2R     -0.796000
      4 C4         -1.4380    3.2760   -0.3580 ca        1 D2R      0.715300
      5 C5         -0.5350    2.4690    0.4330 ca        1 D2R     -0.384600
      6 C6          0.1060    3.1600    1.5580 ca        1 D2R      0.765200
      7 CAA        -5.9570   -3.2780   -1.7800 c3        1 D2R      0.116700
      8 NAC        -1.9410    6.1350    1.7950 nh        1 D2R     -0.914500
      9 NAD         1.1800    2.6370    2.2130 nh        1 D2R     -0.930500
     10 OAE         3.3950    0.6770    1.7670 o         1 D2R     -0.862800
     11 OAF         5.3920    0.2560    2.6590 o         1 D2R     -0.862800
     12 CAG         1.4760   -3.2850   -0.2740 c1        1 D2R     -0.086100
     13 CAI        -3.2660   -3.8400   -1.2310 ca        1 D2R     -0.213000
     14 CAJ        -1.9260   -4.0270   -0.9040 ca        1 D2R     -0.085000
     15 CAK        -1.5620    1.6040   -1.9590 ca        1 D2R      0.448200
     16 CAL        -2.7640   -1.5370   -1.8510 ca        1 D2R     -0.154000
     17 CAM         2.8140   -3.2010    0.2430 c3        1 D2R     -0.011300
     18 CAN         3.0020   -1.8030    0.8180 c3        1 D2R     -0.067400
     19 CAO         4.3520   -1.5240    1.4190 c3        1 D2R     -0.193400
     20 NAQ        -1.9200    2.8180   -1.5810 nb        1 D2R     -0.687000
     21 CAU         4.3830   -0.0930    1.9910 c         1 D2R      0.922600
     22 CAX        -0.3250    1.1150    0.0570 ca        1 D2R      0.073700
     23 CAY        -3.6820   -2.5900   -1.6990 ca        1 D2R      0.119100
     24 CAZ        -0.9950   -2.9880   -1.0430 ca        1 D2R      0.014000
     25 CBA        -0.7870    0.6910   -1.1890 ca        1 D2R     -0.275600
     26 CBB        -1.4200   -1.7290   -1.5330 ca        1 D2R     -0.016300
     27 HAA        -5.7750   -4.1940   -2.3930 h1        1 D2R      0.038700
     28 HAAA       -5.9620   -3.5330   -0.6920 h1        1 D2R      0.038700
     29 HAAB       -6.9210   -2.7920   -2.0750 h1        1 D2R      0.038700
     30 HAB        -0.0050    0.3080    2.0250 hc        1 D2R      0.081700
     31 HABA        0.0260   -0.9100    0.6960 hc        1 D2R      0.081700
     32 HABB        1.4380    0.2070    0.9070 hc        1 D2R      0.081700
     33 HNAC       -1.3570    6.6230    2.4370 hn        1 D2R      0.403300
     34 HNAA       -2.3950    6.7230    1.1310 hn        1 D2R      0.403300
     35 HNAD        1.7000    1.8680    1.8390 hn        1 D2R      0.472800
     36 HNAB        1.6270    3.1660    2.9250 hn        1 D2R      0.472800
     37 HAI        -3.9770   -4.6690   -1.1130 ha        1 D2R      0.129000
     38 HAJ        -1.5910   -5.0040   -0.5250 ha        1 D2R      0.134000
     39 HAK        -1.9280    1.2950   -2.9580 h4        1 D2R      0.008100
     40 HAL        -3.1160   -0.5600   -2.2150 ha        1 D2R      0.154000
     41 HAM         2.9770   -3.9770    1.0390 hc        1 D2R      0.052700
     42 HAMA        3.5630   -3.3920   -0.5730 hc        1 D2R      0.052700
     43 HAN         2.8160   -1.0510    0.0030 hc        1 D2R      0.051200
     44 HANA        2.2230   -1.6340    1.6100 hc        1 D2R      0.051200
     45 HAO         4.5810   -2.2440    2.2430 hc        1 D2R      0.030200
     46 HAOA        5.1590   -1.6150    0.6500 hc        1 D2R      0.030200
     47 HAP        -0.3560   -0.5060   -2.8990 hc        1 D2R      0.065700
     48 HAPA        0.5820   -0.9330   -1.4150 hc        1 D2R      0.065700
     49 CAB         0.3130    0.1390    0.9670 c3        1 D2R     -0.121800
     50 CAP        -0.4400   -0.6290   -1.7810 c3        1 D2R      0.015200
     51 OAT        -4.9820   -2.2850   -2.0650 os        1 D2R     -0.327900
     52 CAH         0.3410   -3.1870   -0.6500 cg        1 D2R     -0.168000
@<TRIPOS>BOND
     1    1    2 ar  
     2    1    6 ar  
     3    2    3 ar  
     4    2    8 1   
     5    3    4 ar  
     6    4    5 ar  
     7    4   20 ar  
     8    5    6 ar  
     9    5   22 ar  
    10    6    9 1   
    11    7   27 1   
    12    7   28 1   
    13    7   29 1   
    14    7   51 1   
    15    8   33 1   
    16    8   34 1   
    17    9   35 1   
    18    9   36 1   
    19   10   21 1   
    20   11   21 1   
    21   12   17 1   
    22   12   52 3   
    23   13   14 ar  
    24   13   23 ar  
    25   13   37 1   
    26   14   24 ar  
    27   14   38 1   
    28   15   20 ar  
    29   15   25 ar  
    30   15   39 1   
    31   16   23 ar  
    32   16   26 ar  
    33   16   40 1   
    34   17   18 1   
    35   17   41 1   
    36   17   42 1   
    37   18   19 1   
    38   18   43 1   
    39   18   44 1   
    40   19   21 1   
    41   19   45 1   
    42   19   46 1   
    43   22   25 ar  
    44   22   49 1   
    45   23   51 1   
    46   24   26 ar  
    47   24   52 1   
    48   25   50 1   
    49   26   50 1   
    50   30   49 1   
    51   31   49 1   
    52   32   49 1   
    53   47   50 1   
    54   48   50 1   
@<TRIPOS>SUBSTRUCTURE
     1 D2R         1 TEMP              0 ****  ****    0 ROOT
