@<TRIPOS>MOLECULE
D2R
   52    46     1     0     0
SMALL
bcc


@<TRIPOS>ATOM
      1 N1         -4.9580    3.0560   -2.7530 n1        1 D2R     -0.305500
      2 C2         -5.1620    1.9750   -3.5710 c1        1 D2R      0.208000
      3 N3         -4.2820    0.9280   -3.5550 n1        1 D2R     -0.305500
      4 C4         -3.2010    0.9570   -2.7240 c1        1 D2R      0.120000
      5 C5         -2.9990    2.0280   -1.9130 c1        1 D2R     -0.250000
      6 C6         -3.8920    3.0880   -1.9320 c1        1 D2R      0.208000
      7 CAA        -3.3260   -2.9920    2.3350 c3        1 D2R     -0.073000
      8 CAB        -1.5650    3.4030   -0.4690 c3        1 D2R     -0.230000
      9 NAC        -6.2880    1.9400   -4.4330 n3        1 D2R     -0.308000
     10 NAD        -4.3250    4.3650   -1.4860 n3        1 D2R     -0.308000
     11 OAE         8.6140   -3.0170    2.7430 o         1 D2R     -0.591500
     12 OAF         7.6270   -3.3530    0.8270 o         1 D2R     -0.591500
     13 CAG         3.7460   -0.5830    1.1880 c1        1 D2R     -0.138000
     14 CAH         2.6040   -0.9190    1.0880 c1        1 D2R     -0.138000
     15 CAI        -0.2630   -3.1780    1.6040 c1        1 D2R     -0.210000
     16 CAJ         0.9960   -2.6020    1.5300 c1        1 D2R     -0.086000
     17 CAK        -1.2550   -0.1010   -1.8410 c1        1 D2R     -0.014000
     18 CAL        -1.2100   -1.2430    0.5410 c1        1 D2R     -0.160000
     19 CAM         5.1970   -0.1550    1.3140 c2        1 D2R     -0.061000
     20 CAN         5.9380   -1.1390    2.1960 c3        1 D2R     -0.146000
     21 CAO         7.4010   -1.1670    1.8020 c3        1 D2R     -0.215000
     22 CAP         0.1890    0.6950   -0.1840 c3        1 D2R     -0.074000
     23 NAQ        -2.3210   -0.1190   -2.6890 n1        1 D2R     -0.160000
     24 OAT        -2.6320   -3.1160    1.1130 os        1 D2R     -0.213000
     25 CAU         7.8950   -2.5970    1.7990 c2        1 D2R      0.318000
     26 CAX        -1.9090    2.0470   -1.0460 c2        1 D2R      0.062000
     27 CAY        -1.3670   -2.4980    1.1100 c1        1 D2R      0.070000
     28 CAZ         1.1530   -1.3470    0.9610 c1        1 D2R      0.030000
     29 CBA        -1.0460    0.9890   -1.0130 c2        1 D2R     -0.199000
     30 CBB         0.0490   -0.6670    0.4660 c2        1 D2R     -0.014000
     31 HAA        -4.0850   -3.6150    2.3460 h1        1 D2R      0.078333
     32 HAAA       -3.6570   -2.0730    2.4320 h1        1 D2R      0.078333
     33 HAAB       -2.7200   -3.2010    3.0790 h1        1 D2R      0.078333
     34 HAB        -1.3040    4.0100   -1.1940 hc        1 D2R      0.112333
     35 HABA       -2.3470    3.7680   -0.0040 hc        1 D2R      0.112333
     36 HABB       -0.8220    3.3100    0.1630 hc        1 D2R      0.112333
     37 HNAC       -6.8370    2.6690   -4.4970 hn        1 D2R      0.230750
     38 HNAA       -6.4540    1.1970   -4.9390 hn        1 D2R      0.230750
     39 HNAD       -4.4870    4.5080   -0.5980 hn        1 D2R      0.230750
     40 HNAB       -4.4680    5.0350   -2.0900 hn        1 D2R      0.230750
     41 HAI        -0.3730   -4.0620    2.0050 ha        1 D2R      0.130000
     42 HAJ         1.7770   -3.0930    1.8500 ha        1 D2R      0.135000
     43 HAK        -0.5950   -0.7250   -2.2030 ha        1 D2R      0.153000
     44 HAL        -1.9840   -0.7690    0.1830 ha        1 D2R      0.151000
     45 HAM         5.6100   -0.1370    0.4280 ha        1 D2R      0.093000
     46 HAMA        5.2400    0.7370    1.7130 ha        1 D2R      0.093000
     47 HAN         5.8570   -0.8630    3.1310 hc        1 D2R      0.091500
     48 HANA        5.5530   -2.0310    2.0840 hc        1 D2R      0.091500
     49 HAO         7.9210   -0.6440    2.4450 hc        1 D2R      0.071500
     50 HAOA        7.5050   -0.7830    0.9090 hc        1 D2R      0.071500
     51 HAP         0.2870    1.3790    0.5090 hc        1 D2R      0.101000
     52 HAPA        0.9790    0.7010   -0.7620 hc        1 D2R      0.101000
@<TRIPOS>BOND
     1    1    6 1   
     2    2    3 1   
     3    2    9 1   
     4    4    5 1   
     5    4   23 1   
     6    5   26 1   
     7    6   10 1   
     8    7   24 1   
     9    7   31 1   
    10    7   32 1   
    11    7   33 1   
    12    8   26 1   
    13    8   34 1   
    14    8   35 1   
    15    8   36 1   
    16    9   37 1   
    17    9   38 1   
    18   10   39 1   
    19   10   40 1   
    20   11   25 1   
    21   12   25 1   
    22   13   14 1   
    23   15   27 1   
    24   15   41 1   
    25   16   28 1   
    26   16   42 1   
    27   17   29 1   
    28   17   43 1   
    29   18   30 1   
    30   18   44 1   
    31   19   20 1   
    32   19   45 1   
    33   19   46 1   
    34   20   21 1   
    35   20   47 1   
    36   20   48 1   
    37   21   25 1   
    38   21   49 1   
    39   21   50 1   
    40   22   29 1   
    41   22   30 1   
    42   22   51 1   
    43   22   52 1   
    44   24   27 1   
    45   26   29 1   
    46   28   30 1   
@<TRIPOS>SUBSTRUCTURE
     1 D2R         1 TEMP              0 ****  ****    0 ROOT
