@<TRIPOS>MOLECULE
D2R
   52    54     1     0     0
SMALL
bcc


@<TRIPOS>ATOM
      1 N1         -0.6150    2.4370    1.9700 nb        1 D2R     -0.874000
      2 C2         -0.8610    1.6390    0.8630 ca        1 D2R      0.905900
      3 N3         -0.5280    0.3200    0.7200 nb        1 D2R     -0.798000
      4 C4          0.0450   -0.2860    1.8180 ca        1 D2R      0.716300
      5 C5          0.2170    0.4000    3.0800 ca        1 D2R     -0.387600
      6 C6         -0.0120    1.8500    3.0460 ca        1 D2R      0.767200
      7 CAA        -2.5870   -6.8720    5.7240 c3        1 D2R      0.116700
      8 NAC        -1.4290    2.2850   -0.2570 nv        1 D2R     -0.921500
      9 NAD         0.3630    2.6690    4.0670 nv        1 D2R     -0.929500
     10 OAE         2.2130    2.7510    6.4160 o         1 D2R     -0.862800
     11 OAF         3.0780    4.3050    7.7560 o         1 D2R     -0.862800
     12 CAG         2.0220   -1.5800    8.5960 c1        1 D2R     -0.085100
     13 CAI        -0.9420   -5.2010    7.2570 ca        1 D2R     -0.213000
     14 CAJ        -0.1480   -4.2950    7.9560 ca        1 D2R     -0.085000
     15 CAK         0.9380   -2.2240    2.7270 ca        1 D2R      0.449200
     16 CAL        -0.0940   -4.2830    5.1650 ca        1 D2R     -0.154000
     17 CAM         2.6890   -0.4260    9.1320 c3        1 D2R     -0.012300
     18 CAN         2.4970    0.7210    8.1480 c3        1 D2R     -0.067400
     19 CAO         3.0990    2.0370    8.5570 c3        1 D2R     -0.193400
     20 NAQ         0.4440   -1.6120    1.6660 nb        1 D2R     -0.687000
     21 CAU         2.7740    3.1100    7.5000 c         1 D2R      0.922600
     22 CAX         0.5890   -0.3590    4.2220 ca        1 D2R      0.073700
     23 CAY        -0.9150   -5.1860    5.8590 ca        1 D2R      0.119100
     24 CAZ         0.6730   -3.3810    7.2820 ca        1 D2R      0.015000
     25 CBA         1.0230   -1.6720    4.0370 ca        1 D2R     -0.276600
     26 CBB         0.7080   -3.3830    5.8670 ca        1 D2R     -0.016300
     27 HAA        -3.1060   -7.4080    4.8890 h1        1 D2R      0.038700
     28 HAAA       -2.0610   -7.6000    6.3890 h1        1 D2R      0.038700
     29 HAAB       -3.3150   -6.2630    6.3130 h1        1 D2R      0.038700
     30 HAB         1.3700    0.8090    5.8610 hc        1 D2R      0.081700
     31 HABA        0.4090   -0.6490    6.3470 hc        1 D2R      0.081700
     32 HABB       -0.4510    0.7990    5.7070 hc        1 D2R      0.081700
     33 HNAC       -1.8660    1.6790   -0.9140 hn        1 D2R      0.407300
     34 HNAA       -1.9370    3.1150   -0.0510 hn        1 D2R      0.407300
     35 HNAD        0.9680    2.3580    4.8010 hn        1 D2R      0.473800
     36 HNAB        0.2510    3.6520    3.9760 hn        1 D2R      0.473800
     37 HAI        -1.5770   -5.9070    7.8080 ha        1 D2R      0.129000
     38 HAJ        -0.1690   -4.2920    9.0560 ha        1 D2R      0.134000
     39 HAK         1.2900   -3.2590    2.5510 h4        1 D2R      0.008100
     40 HAL        -0.0950   -4.2860    4.0640 ha        1 D2R      0.154000
     41 HAM         3.7840   -0.6370    9.2780 hc        1 D2R      0.052700
     42 HAMA        2.2610   -0.1570   10.1350 hc        1 D2R      0.052700
     43 HAN         1.3950    0.8750    7.9890 hc        1 D2R      0.051700
     44 HANA        2.9370    0.4220    7.1580 hc        1 D2R      0.051700
     45 HAO         2.6960    2.3730    9.5440 hc        1 D2R      0.029700
     46 HAOA        4.2100    1.9570    8.6500 hc        1 D2R      0.029700
     47 HAP         2.4320   -3.1470    4.6560 hc        1 D2R      0.065200
     48 HAPA        2.1740   -1.8010    5.8320 hc        1 D2R      0.065200
     49 CAB         0.4730    0.1790    5.5940 c3        1 D2R     -0.120800
     50 CAP         1.6400   -2.4880    5.1170 c3        1 D2R      0.015200
     51 OAT        -1.6510   -6.0390    5.0540 os        1 D2R     -0.327900
     52 CAH         1.4180   -2.4390    8.0150 cg        1 D2R     -0.169000
@<TRIPOS>BOND
     1    1    2 ar  
     2    1    6 ar  
     3    2    3 ar  
     4    2    8 1   
     5    3    4 ar  
     6    4    5 ar  
     7    4   20 ar  
     8    5    6 ar  
     9    5   22 ar  
    10    6    9 1   
    11    7   27 1   
    12    7   28 1   
    13    7   29 1   
    14    7   51 1   
    15    8   33 1   
    16    8   34 1   
    17    9   35 1   
    18    9   36 1   
    19   10   21 1   
    20   11   21 1   
    21   12   17 1   
    22   12   52 3   
    23   13   14 ar  
    24   13   23 ar  
    25   13   37 1   
    26   14   24 ar  
    27   14   38 1   
    28   15   20 ar  
    29   15   25 ar  
    30   15   39 1   
    31   16   23 ar  
    32   16   26 ar  
    33   16   40 1   
    34   17   18 1   
    35   17   41 1   
    36   17   42 1   
    37   18   19 1   
    38   18   43 1   
    39   18   44 1   
    40   19   21 1   
    41   19   45 1   
    42   19   46 1   
    43   22   25 ar  
    44   22   49 1   
    45   23   51 1   
    46   24   26 ar  
    47   24   52 1   
    48   25   50 1   
    49   26   50 1   
    50   30   49 1   
    51   31   49 1   
    52   32   49 1   
    53   47   50 1   
    54   48   50 1   
@<TRIPOS>SUBSTRUCTURE
     1 D2R         1 TEMP              0 ****  ****    0 ROOT
