@<TRIPOS>MOLECULE
D2R
   52    54     1     0     0
SMALL
bcc


@<TRIPOS>ATOM
      1 N1         -0.5960    2.4910    2.0190 nb        1 D2R     -0.874000
      2 C2         -0.8270    1.7110    0.8960 ca        1 D2R      0.905900
      3 N3         -0.4860    0.3970    0.7340 nb        1 D2R     -0.798000
      4 C4          0.0780   -0.2260    1.8270 ca        1 D2R      0.716300
      5 C5          0.2340    0.4400    3.1020 ca        1 D2R     -0.387600
      6 C6         -0.0010    1.8880    3.0910 ca        1 D2R      0.767200
      7 CAA        -2.5640   -6.8890    5.5920 c3        1 D2R      0.116700
      8 NAC        -1.3860    2.3750   -0.2180 nh        1 D2R     -0.921500
      9 NAD         0.3590    2.6910    4.1290 nh        1 D2R     -0.929500
     10 OAE         2.1860    2.7410    6.4980 o         1 D2R     -0.862800
     11 OAF         3.0300    4.2750    7.8740 o         1 D2R     -0.862800
     12 CAG         1.9940   -1.6290    8.6010 c1        1 D2R     -0.085100
     13 CAI        -0.9410   -5.2380    7.1700 ca        1 D2R     -0.213000
     14 CAJ        -0.1590   -4.3410    7.8920 ca        1 D2R     -0.085000
     15 CAK         0.9710   -2.1750    2.7110 ca        1 D2R      0.449200
     16 CAL        -0.0760   -4.2800    5.1030 ca        1 D2R     -0.154000
     17 CAM         2.6500   -0.4810    9.1640 c3        1 D2R     -0.012300
     18 CAN         2.4620    0.6820    8.1980 c3        1 D2R     -0.067400
     19 CAO         3.0540    1.9930    8.6350 c3        1 D2R     -0.193400
     20 NAQ         0.4840   -1.5470    1.6560 nb        1 D2R     -0.687000
     21 CAU         2.7340    3.0830    7.5940 c         1 D2R      0.922600
     22 CAX         0.5990   -0.3380    4.2340 ca        1 D2R      0.073700
     23 CAY        -0.9010   -5.1990    5.7730 ca        1 D2R      0.119100
     24 CAZ         0.6660   -3.4120    7.2430 ca        1 D2R      0.015000
     25 CBA         1.0400   -1.6450    4.0310 ca        1 D2R     -0.276600
     26 CBB         0.7140   -3.3890    5.8280 ca        1 D2R     -0.016300
     27 HAA        -3.0730   -7.4120    4.7420 h1        1 D2R      0.038700
     28 HAAA       -2.0420   -7.6260    6.2500 h1        1 D2R      0.038700
     29 HAAB       -3.3000   -6.2930    6.1840 h1        1 D2R      0.038700
     30 HAB         1.3570    0.8050    5.9020 hc        1 D2R      0.081700
     31 HABA        0.3980   -0.6660    6.3520 hc        1 D2R      0.081700
     32 HABB       -0.4620    0.7890    5.7280 hc        1 D2R      0.081700
     33 HNAC       -1.8140    1.7790   -0.8900 hn        1 D2R      0.407300
     34 HNAA       -1.9000    3.1980   -0.0040 hn        1 D2R      0.407300
     35 HNAD        0.2440    3.6760    4.0540 hn        1 D2R      0.473800
     36 HNAB        0.9590    2.3700    4.8640 hn        1 D2R      0.473800
     37 HAI        -1.5790   -5.9560    7.7020 ha        1 D2R      0.129000
     38 HAJ        -0.1910   -4.3570    8.9920 ha        1 D2R      0.134000
     39 HAK         1.3290   -3.2060    2.5210 h4        1 D2R      0.008100
     40 HAL        -0.0670   -4.2640    4.0020 ha        1 D2R      0.154000
     41 HAM         3.7440   -0.6900    9.3170 hc        1 D2R      0.052700
     42 HAMA        2.2100   -0.2310   10.1670 hc        1 D2R      0.052700
     43 HAN         1.3610    0.8340    8.0300 hc        1 D2R      0.051700
     44 HANA        2.9130    0.4030    7.2070 hc        1 D2R      0.051700
     45 HAO         2.6390    2.3100    9.6240 hc        1 D2R      0.029700
     46 HAOA        4.1650    1.9170    8.7380 hc        1 D2R      0.029700
     47 HAP         2.4490   -3.1250    4.6380 hc        1 D2R      0.065200
     48 HAPA        2.1740   -1.8010    5.8360 hc        1 D2R      0.065200
     49 CAB         0.4660    0.1750    5.6150 c3        1 D2R     -0.120800
     50 CAP         1.6500   -2.4780    5.1030 c3        1 D2R      0.015200
     51 OAT        -1.6250   -6.0410    4.9460 os        1 D2R     -0.327900
     52 CAH         1.3990   -2.4800    7.9990 cg        1 D2R     -0.169000
@<TRIPOS>BOND
     1    1    2 ar  
     2    1    6 ar  
     3    2    3 ar  
     4    2    8 1   
     5    3    4 ar  
     6    4    5 ar  
     7    4   20 ar  
     8    5    6 ar  
     9    5   22 ar  
    10    6    9 1   
    11    7   27 1   
    12    7   28 1   
    13    7   29 1   
    14    7   51 1   
    15    8   33 1   
    16    8   34 1   
    17    9   35 1   
    18    9   36 1   
    19   10   21 1   
    20   11   21 1   
    21   12   17 1   
    22   12   52 3   
    23   13   14 ar  
    24   13   23 ar  
    25   13   37 1   
    26   14   24 ar  
    27   14   38 1   
    28   15   20 ar  
    29   15   25 ar  
    30   15   39 1   
    31   16   23 ar  
    32   16   26 ar  
    33   16   40 1   
    34   17   18 1   
    35   17   41 1   
    36   17   42 1   
    37   18   19 1   
    38   18   43 1   
    39   18   44 1   
    40   19   21 1   
    41   19   45 1   
    42   19   46 1   
    43   22   25 ar  
    44   22   49 1   
    45   23   51 1   
    46   24   26 ar  
    47   24   52 1   
    48   25   50 1   
    49   26   50 1   
    50   30   49 1   
    51   31   49 1   
    52   32   49 1   
    53   47   50 1   
    54   48   50 1   
@<TRIPOS>SUBSTRUCTURE
     1 D2R         1 TEMP              0 ****  ****    0 ROOT
