@<TRIPOS>MOLECULE
D2R
   52    54     1     0     0
SMALL
bcc


@<TRIPOS>ATOM
      1 N1         -0.3980    2.1160    1.0130 nb        1 D2R     -0.872000
      2 C2         -0.7430    1.1390    0.0910 ca        1 D2R      0.900900
      3 N3         -0.4660   -0.1970    0.1840 nb        1 D2R     -0.796000
      4 C4          0.0460   -0.6280    1.3910 ca        1 D2R      0.715300
      5 C5          0.2520    0.2680    2.5070 ca        1 D2R     -0.384600
      6 C6          0.1410    1.6980    2.1960 ca        1 D2R      0.765200
      7 CAA        -3.1410   -6.0890    6.4320 c3        1 D2R      0.116700
      8 NAC        -1.4580    1.5750   -1.0480 nh        1 D2R     -0.914500
      9 NAD         0.5820    2.6620    3.0520 nh        1 D2R     -0.930500
     10 OAE         2.5020    3.0000    5.3200 o         1 D2R     -0.862800
     11 OAF         3.5470    4.6930    6.3210 o         1 D2R     -0.862800
     12 CAG         1.9270   -0.7720    8.3190 c1        1 D2R     -0.086100
     13 CAI        -1.3440   -4.3180    7.6520 ca        1 D2R     -0.213000
     14 CAJ        -0.4740   -3.3680    8.1800 ca        1 D2R     -0.085000
     15 CAK         0.7940   -2.4160    2.6630 ca        1 D2R      0.448200
     16 CAL        -0.4290   -3.8800    5.4350 ca        1 D2R     -0.154000
     17 CAM         2.6990    0.4010    8.6230 c3        1 D2R     -0.011300
     18 CAN         2.5950    1.3460    7.4330 c3        1 D2R     -0.067400
     19 CAO         3.3390    2.6460    7.5680 c3        1 D2R     -0.193400
     20 NAQ         0.3570   -1.9810    1.4950 nb        1 D2R     -0.687000
     21 CAU         3.1130    3.5100    6.3130 c         1 D2R      0.922600
     22 CAX         0.5590   -0.2870    3.7790 ca        1 D2R      0.073700
     23 CAY        -1.3210   -4.5660    6.2760 ca        1 D2R      0.119100
     24 CAZ         0.4200   -2.6670    7.3580 ca        1 D2R      0.014000
     25 CBA         0.9020   -1.6370    3.8490 ca        1 D2R     -0.275600
     26 CBB         0.4480   -2.9360    5.9680 ca        1 D2R     -0.016300
     27 HAA        -3.7090   -6.7220    5.7040 h1        1 D2R      0.038700
     28 HAAA       -3.8070   -5.3130    6.8820 h1        1 D2R      0.038700
     29 HAAB       -2.6880   -6.7240    7.2330 h1        1 D2R      0.038700
     30 HAB         1.4130    1.1060    5.1880 hc        1 D2R      0.081700
     31 HABA       -0.4020    1.2050    4.9940 hc        1 D2R      0.081700
     32 HABB        0.3360   -0.1580    5.9150 hc        1 D2R      0.081700
     33 HNAC       -1.3920    0.9670   -1.8350 hn        1 D2R      0.403300
     34 HNAA       -1.3400    2.5380   -1.2680 hn        1 D2R      0.403300
     35 HNAD        1.1730    2.4450    3.8300 hn        1 D2R      0.472800
     36 HNAB        0.5510    3.6160    2.7760 hn        1 D2R      0.472800
     37 HAI        -2.0350   -4.8530    8.3160 ha        1 D2R      0.129000
     38 HAJ        -0.4910   -3.1570    9.2600 ha        1 D2R      0.134000
     39 HAK         1.0730   -3.4880    2.6910 h4        1 D2R      0.008100
     40 HAL        -0.4340   -4.0880    4.3540 ha        1 D2R      0.154000
     41 HAM         2.3080    0.8970    9.5520 hc        1 D2R      0.052700
     42 HAMA        3.7720    0.1270    8.8120 hc        1 D2R      0.052700
     43 HAN         2.9760    0.8150    6.5180 hc        1 D2R      0.051200
     44 HANA        1.5100    1.5780    7.2530 hc        1 D2R      0.051200
     45 HAO         4.4370    2.4690    7.6840 hc        1 D2R      0.030200
     46 HAOA        2.9890    3.2170    8.4640 hc        1 D2R      0.030200
     47 HAP         2.0340   -1.5060    5.6560 hc        1 D2R      0.065700
     48 HAPA        2.1890   -3.0700    4.7650 hc        1 D2R      0.065700
     49 CAB         0.4710    0.5070    5.0230 c3        1 D2R     -0.121800
     50 CAP         1.4500   -2.2760    5.0760 c3        1 D2R      0.015200
     51 OAT        -2.1280   -5.4910    5.6350 os        1 D2R     -0.327900
     52 CAH         1.2460   -1.6710    7.9090 cg        1 D2R     -0.168000
@<TRIPOS>BOND
     1    1    2 ar  
     2    1    6 ar  
     3    2    3 ar  
     4    2    8 1   
     5    3    4 ar  
     6    4    5 ar  
     7    4   20 ar  
     8    5    6 ar  
     9    5   22 ar  
    10    6    9 1   
    11    7   27 1   
    12    7   28 1   
    13    7   29 1   
    14    7   51 1   
    15    8   33 1   
    16    8   34 1   
    17    9   35 1   
    18    9   36 1   
    19   10   21 1   
    20   11   21 1   
    21   12   17 1   
    22   12   52 3   
    23   13   14 ar  
    24   13   23 ar  
    25   13   37 1   
    26   14   24 ar  
    27   14   38 1   
    28   15   20 ar  
    29   15   25 ar  
    30   15   39 1   
    31   16   23 ar  
    32   16   26 ar  
    33   16   40 1   
    34   17   18 1   
    35   17   41 1   
    36   17   42 1   
    37   18   19 1   
    38   18   43 1   
    39   18   44 1   
    40   19   21 1   
    41   19   45 1   
    42   19   46 1   
    43   22   25 ar  
    44   22   49 1   
    45   23   51 1   
    46   24   26 ar  
    47   24   52 1   
    48   25   50 1   
    49   26   50 1   
    50   30   49 1   
    51   31   49 1   
    52   32   49 1   
    53   47   50 1   
    54   48   50 1   
@<TRIPOS>SUBSTRUCTURE
     1 D2R         1 TEMP              0 ****  ****    0 ROOT
