@<TRIPOS>MOLECULE
D2S
   28    25     1     0     0
SMALL
bcc


@<TRIPOS>ATOM
      1 C1         -4.2510   -1.6930   -0.5000 c1        1 D2S     -0.328000
      2 O1         -2.0570   -2.8800   -0.3880 oh        1 D2S     -0.226000
      3 S1         -0.3650   -0.6250   -0.6960 ss        1 D2S      0.125000
      4 C2         -2.8650   -1.7320   -0.4850 c2        1 D2S      0.176000
      5 S2          0.3810    0.6630    0.7140 ss        1 D2S      0.125000
      6 C3         -2.1370   -0.5680   -0.6710 c2        1 D2S     -0.331000
      7 O3         -6.2900   -0.2660   -0.5630 oh        1 D2S     -0.243000
      8 C4         -2.7940    0.6360   -0.8720 c1        1 D2S     -0.008000
      9 O4          2.2330    2.8850   -0.0590 oh        1 D2S     -0.222000
     10 C5         -4.1790    0.6750   -0.8870 c1        1 D2S     -0.269000
     11 O5          6.0970    0.5580    1.5730 oh        1 D2S     -0.243000
     12 C6         -4.9080   -0.4890   -0.7010 c1        1 D2S      0.151500
     13 C7          4.2740    1.6790    0.4180 c1        1 D2S     -0.269000
     14 C8          2.8890    1.7170    0.3680 c1        1 D2S      0.182000
     15 C9          2.1520    0.5910    0.7020 c2        1 D2S     -0.331000
     16 C10         2.8000   -0.5730    1.0850 c2        1 D2S     -0.012000
     17 C11         4.1850   -0.6110    1.1340 c1        1 D2S     -0.212000
     18 C12         4.9220    0.5150    0.8000 c1        1 D2S      0.151500
     19 H1         -4.7640   -2.5120   -0.3670 ha        1 D2S      0.138000
     20 HO1        -2.5680   -3.6070   -0.4310 ho        1 D2S      0.220000
     21 HO3        -6.7280   -0.7260   -1.1850 ho        1 D2S      0.222500
     22 H4         -2.2810    1.4560   -1.0040 ha        1 D2S      0.155000
     23 H5         -4.6420    1.5230   -1.0290 ha        1 D2S      0.148000
     24 HO5         6.7970    0.6870    1.0400 ho        1 D2S      0.222500
     25 H10         2.2820   -1.3660    1.3200 ha        1 D2S      0.151000
     26 H11         4.6420   -1.4310    1.4040 ha        1 D2S      0.155000
     27 H9          2.3850    3.0100   -0.9270 ho        1 D2S      0.221000
     28 H7          4.7920    2.4790    0.2090 ha        1 D2S      0.148000
@<TRIPOS>BOND
     1    1    4 1   
     2    1   19 1   
     3    2    4 1   
     4    2   20 1   
     5    3    5 1   
     6    3    6 1   
     7    4    6 1   
     8    5   15 1   
     9    6    8 1   
    10    7   12 1   
    11    7   21 1   
    12    8   22 1   
    13    9   14 1   
    14    9   27 1   
    15   10   12 1   
    16   10   23 1   
    17   11   18 1   
    18   11   24 1   
    19   13   18 1   
    20   13   28 1   
    21   14   15 1   
    22   15   16 1   
    23   16   17 1   
    24   16   25 1   
    25   17   26 1   
@<TRIPOS>SUBSTRUCTURE
     1 D2S         1 TEMP              0 ****  ****    0 ROOT
