@<TRIPOS>MOLECULE
D2S
   28    28     1     0     0
SMALL
bcc


@<TRIPOS>ATOM
      1 C1         -0.7370    0.4650    0.5790 ca        1 D2S     -0.257000
      2 O1         -0.1630   -0.9410   -1.2210 oh        1 D2S     -0.243500
      3 S1          2.4610   -1.2940    1.5700 s         1 D2S     -0.509000
      4 C2          0.2580   -0.1090   -0.2140 ca        1 D2S      0.137500
      5 S2          2.2710   -2.9120    2.4560 ss        1 D2S      0.842000
      6 C3          1.6300    0.1740    0.0020 ca        1 D2S     -0.204500
      7 O3         -1.2660    1.9540    2.4220 oh        1 D2S     -0.243500
      8 C4          1.9810    1.0650    1.0340 ca        1 D2S      0.003000
      9 C5          1.0000    1.6520    1.8370 ca        1 D2S     -0.204500
     10 C6         -0.3470    1.3440    1.6050 ca        1 D2S      0.137500
     11 C7          4.2200   -5.0590    5.1350 ca        1 D2S     -0.270000
     12 C8          3.1530   -4.6410    4.2290 ca        1 D2S      0.320000
     13 C9          3.3550   -3.3800    3.4650 ca        1 D2S     -0.592000
     14 C10         4.5750   -2.6510    3.7110 ca        1 D2S     -0.069000
     15 C11         5.5310   -3.0710    4.5660 ca        1 D2S     -0.183000
     16 C12         5.3440   -4.3120    5.2920 ca        1 D2S      0.121000
     17 H1         -1.7940    0.2310    0.3960 ha        1 D2S      0.156000
     18 HO1         0.6200   -1.3350   -1.6330 ho        1 D2S      0.226000
     19 HO3        -2.1500    1.6550    2.1620 ho        1 D2S      0.226000
     20 H4          2.3860   -0.1840   -0.7150 ha        1 D2S      0.157500
     21 H5          1.2700    2.3450    2.6450 ha        1 D2S      0.157500
     22 HO5         7.0350   -4.1190    6.1630 ho        1 D2S      0.221000
     23 H10         4.7000   -1.7030    3.1510 ha        1 D2S      0.152000
     24 H11         6.4550   -2.4970    4.7340 ha        1 D2S      0.141000
     25 H9          3.0380    1.3400    1.1770 ha        1 D2S      0.153000
     26 H7          4.0680   -6.0000    5.6830 ha        1 D2S      0.171000
     27 O4          2.1180   -5.3170    4.1050 o         1 D2S     -0.307000
     28 O5          6.3090   -4.7600    6.1600 oh        1 D2S     -0.242000
@<TRIPOS>BOND
     1    1    4 1   
     2    1   10 1   
     3    1   17 1   
     4    2    4 1   
     5    2   18 1   
     6    3    5 1   
     7    4    6 1   
     8    5   13 1   
     9    6    8 1   
    10    6   20 1   
    11    7   10 1   
    12    7   19 1   
    13    8    9 1   
    14    8   25 1   
    15    9   10 1   
    16    9   21 1   
    17   11   12 1   
    18   11   16 1   
    19   11   26 1   
    20   12   13 1   
    21   12   27 1   
    22   13   14 1   
    23   14   15 1   
    24   14   23 1   
    25   15   16 1   
    26   15   24 1   
    27   16   28 1   
    28   22   28 1   
@<TRIPOS>SUBSTRUCTURE
     1 D2S         1 TEMP              0 ****  ****    0 ROOT
