@<TRIPOS>MOLECULE
D2S
   28    29     1     0     0
SMALL
bcc


@<TRIPOS>ATOM
      1 C1          3.1580    1.5800    0.2650 ca        1 D2S     -0.214000
      2 O1          1.7650    1.0540   -1.5440 oh        1 D2S     -0.485100
      3 S1          0.9520   -1.6860   -0.4760 ss        1 D2S     -0.130900
      4 C2          2.2670    0.6730   -0.3320 ca        1 D2S      0.225100
      5 S2         -0.9500   -1.6860    0.4770 ss        1 D2S     -0.130900
      6 C3          1.9310   -0.5510    0.2910 ca        1 D2S     -0.176100
      7 O3          4.5740    2.1620    2.0530 oh        1 D2S     -0.486100
      8 C4          2.5160   -0.8440    1.5340 ca        1 D2S      0.003000
      9 C5          3.3960    0.0320    2.1460 ca        1 D2S     -0.267000
     10 C6          3.7130    1.2480    1.5040 ca        1 D2S      0.196100
     11 C7         -3.1590    1.5760   -0.2660 ca        1 D2S     -0.214000
     12 C8         -2.2670    0.6710    0.3310 ca        1 D2S      0.225100
     13 C9         -1.9290   -0.5540   -0.2910 ca        1 D2S     -0.176100
     14 C10        -2.5150   -0.8470   -1.5330 ca        1 D2S      0.003000
     15 C11        -3.3960    0.0270   -2.1460 ca        1 D2S     -0.267000
     16 C12        -3.7130    1.2430   -1.5050 ca        1 D2S      0.196100
     17 H1          3.4080    2.5260   -0.2340 ha        1 D2S      0.174000
     18 HO1         1.1830    0.3410   -1.8690 ho        1 D2S      0.443000
     19 HO3         4.8880    1.8120    2.9010 ho        1 D2S      0.427000
     20 H4          2.2650   -1.7980    2.0270 ha        1 D2S      0.150000
     21 H5          3.8470   -0.2120    3.1170 ha        1 D2S      0.142000
     22 HO5        -4.8890    1.8050   -2.9020 ho        1 D2S      0.427000
     23 H10        -2.2630   -1.8020   -2.0250 ha        1 D2S      0.150000
     24 H11        -3.8460   -0.2180   -3.1170 ha        1 D2S      0.142000
     25 H9         -1.1820    0.3420    1.8690 ho        1 D2S      0.443000
     26 H7         -3.4100    2.5230    0.2320 ha        1 D2S      0.174000
     27 O4         -1.7660    1.0530    1.5440 oh        1 D2S     -0.485100
     28 O5         -4.5760    2.1560   -2.0540 oh        1 D2S     -0.486100
@<TRIPOS>BOND
     1    1    4 ar  
     2    1   10 ar  
     3    1   17 1   
     4    2    4 1   
     5    2   18 1   
     6    3    5 1   
     7    3    6 1   
     8    4    6 ar  
     9    5   13 1   
    10    6    8 ar  
    11    7   10 1   
    12    7   19 1   
    13    8    9 ar  
    14    8   20 1   
    15    9   10 ar  
    16    9   21 1   
    17   11   12 ar  
    18   11   16 ar  
    19   11   26 1   
    20   12   13 ar  
    21   12   27 1   
    22   13   14 ar  
    23   14   15 ar  
    24   14   23 1   
    25   15   16 ar  
    26   15   24 1   
    27   16   28 1   
    28   22   28 1   
    29   25   27 1   
@<TRIPOS>SUBSTRUCTURE
     1 D2S         1 TEMP              0 ****  ****    0 ROOT
