@<TRIPOS>MOLECULE
D2S
   28    28     1     0     0
SMALL
bcc


@<TRIPOS>ATOM
      1 C1         -0.6060    0.4930   -0.6330 c1        1 D2S     -0.247800
      2 O1         -0.0970    2.4810   -1.7310 oh        1 D2S     -0.501100
      3 S1          3.4160   -1.1940    1.2340 ss        1 D2S     -0.138600
      4 C2         -0.1050    1.1030   -1.6730 c2        1 D2S      0.073000
      5 S2          5.0540   -1.1440    2.5810 ss        1 D2S     -0.104900
      6 C3          2.2620   -0.1360    1.8810 c2        1 D2S     -0.107500
      7 O3         -2.3960   -0.5140    0.5520 oh        1 D2S     -0.509100
      8 C4          0.9860   -0.3410    1.7330 c1        1 D2S      0.044200
      9 C5         -0.2950   -0.5470    1.5890 ce        1 D2S     -0.129100
     10 C6         -1.0710   -0.1320    0.4220 ce        1 D2S      0.173000
     11 C7          4.3380   -3.0300    6.0460 ca        1 D2S     -0.216000
     12 C8          4.4410   -2.0370    5.0590 ca        1 D2S      0.227100
     13 C9          4.8220   -2.3480    3.7330 ca        1 D2S     -0.179100
     14 C10         5.0940   -3.6900    3.4210 ca        1 D2S      0.011000
     15 C11         4.9990   -4.6900    4.3730 ca        1 D2S     -0.267000
     16 C12         4.6180   -4.3530    5.6880 ca        1 D2S      0.199100
     17 H1          0.3140    0.5660   -2.5420 h4        1 D2S      0.135000
     18 HO1         0.3660    2.7280   -2.5440 ho        1 D2S      0.414000
     19 HO3        -2.8850   -0.1680   -0.2080 ho        1 D2S      0.427000
     20 H4          2.6240    0.7770    2.3830 h4        1 D2S      0.161000
     21 H5         -0.8760   -1.0620    2.3800 ha        1 D2S      0.172000
     22 HO5         4.7200   -6.1570    6.3060 ho        1 D2S      0.427000
     23 H10         5.3890   -3.9450    2.3890 ha        1 D2S      0.151000
     24 H11         5.2160   -5.7350    4.1130 ha        1 D2S      0.142000
     25 H9          4.2890   -0.1630    4.7180 ho        1 D2S      0.441000
     26 H7          4.0440   -2.7700    7.0720 ha        1 D2S      0.174000
     27 O4          4.1580   -0.7650    5.4740 oh        1 D2S     -0.485100
     28 O5          4.5020   -5.2910    6.6810 oh        1 D2S     -0.486100
@<TRIPOS>BOND
     1    1    4 2   
     2    1   10 2   
     3    2    4 1   
     4    2   18 1   
     5    3    5 1   
     6    3    6 1   
     7    4   17 1   
     8    5   13 1   
     9    6    8 2   
    10    6   20 1   
    11    7   10 1   
    12    7   19 1   
    13    8    9 2   
    14    9   10 1   
    15    9   21 1   
    16   11   12 ar  
    17   11   16 ar  
    18   11   26 1   
    19   12   13 ar  
    20   12   27 1   
    21   13   14 ar  
    22   14   15 ar  
    23   14   23 1   
    24   15   16 ar  
    25   15   24 1   
    26   16   28 1   
    27   22   28 1   
    28   25   27 1   
@<TRIPOS>SUBSTRUCTURE
     1 D2S         1 TEMP              0 ****  ****    0 ROOT
