@<TRIPOS>MOLECULE
D2V
   73    71     1     0     0
SMALL
bcc


@<TRIPOS>ATOM
      1 C1B         1.8870   -2.1980   -7.0600 c3        1 D2V     -0.207500
      2 C1W         1.5770   -0.8660   -6.3280 c3        1 D2V     -0.102000
      3 C1C         2.5570    0.2300   -6.8220 c3        1 D2V     -0.207500
      4 C1X         1.7490   -1.0610   -4.8070 c3        1 D2V     -0.074000
      5 C1D         3.0130   -1.7660   -4.5440 c3        1 D2V     -0.203000
      6 C1J         0.5720   -1.8910   -4.2570 c2        1 D2V     -0.162000
      7 C1K        -0.0080   -1.5600   -3.0100 c1        1 D2V     -0.165000
      8 C1Y         0.4860   -0.4770   -2.2670 c2        1 D2V     -0.072000
      9 C1E         1.1930   -0.9820   -1.0840 c3        1 D2V     -0.203000
     10 C2B        -0.8430    0.5450   -1.7680 c3        1 D2V     -0.092000
     11 C1Q        -1.8330   -0.1950   -1.2530 c3        1 D2V     -0.156000
     12 C1P        -1.7420    0.0470    0.3460 c3        1 D2V     -0.150000
     13 C2A        -0.8450    0.4950    0.4950 c3        1 D2V     -0.069000
     14 C2C        -0.4910    1.2930   -0.8040 c3        1 D2V     -0.035000
     15 C1F         0.9950    1.5800   -0.8680 c3        1 D2V     -0.202000
     16 C1R        -1.2870    2.5820   -0.9460 c3        1 D2V     -0.149000
     17 C1L        -1.2610    3.1450   -0.1020 c3        1 D2V     -0.152000
     18 C1M        -1.6940    2.3600    1.1270 c3        1 D2V     -0.124000
     19 C1V        -0.8130    0.9160    1.1640 c2        1 D2V     -0.080000
     20 C1I        -0.5730    0.2680    2.3940 c1        1 D2V     -0.146000
     21 C1H        -1.1230    0.8860    3.7110 c1        1 D2V     -0.121000
     22 C1U        -1.1300    0.1540    4.8570 c1        1 D2V     -0.062000
     23 C1S        -0.6420   -1.1720    4.8880 c2        1 D2V     -0.117000
     24 C1Z         0.0670   -1.5340    6.3390 c3        1 D2V      0.035000
     25 O1G         1.3240   -0.7780    6.4320 oh        1 D2V     -0.325000
     26 C1O        -0.6370   -1.2590    7.3770 c3        1 D2V     -0.187000
     27 C1N        -1.1160    0.3230    7.5160 c3        1 D2V     -0.122000
     28 C1T        -1.7210    0.7890    6.3050 c2        1 D2V     -0.067000
     29 C1A        -2.7640    1.7380    6.3210 c1        1 D2V     -0.221000
     30 H1B         1.3070   -2.9250   -6.6900 hc        1 D2V      0.073000
     31 H1BA        1.7040   -2.0900   -8.0410 hc        1 D2V      0.073000
     32 H1BB        2.8300   -2.4320   -6.9270 hc        1 D2V      0.073000
     33 H1W         0.6670   -0.5950   -6.5190 hc        1 D2V      0.086000
     34 H1C         3.4330    0.1290   -6.3540 hc        1 D2V      0.073000
     35 H1CA        2.6910    0.1360   -7.8010 hc        1 D2V      0.073000
     36 H1CB        2.1780    1.1260   -6.6240 hc        1 D2V      0.073000
     37 H1X         1.7650   -0.1940   -4.3720 hc        1 D2V      0.091000
     38 H1D         3.5550   -1.7760   -5.3560 hc        1 D2V      0.075000
     39 H1DA        3.5080   -1.3000   -3.8240 hc        1 D2V      0.075000
     40 H1DB        2.8230   -2.6830   -4.2680 hc        1 D2V      0.075000
     41 H1J         0.2200   -2.6580   -4.7790 ha        1 D2V      0.119000
     42 H1K        -0.7300   -2.0720   -2.6740 ha        1 D2V      0.118000
     43 H1Y         1.1010    0.0380   -2.8160 ha        1 D2V      0.095000
     44 H1E         2.0760   -1.2940   -1.3440 hc        1 D2V      0.075000
     45 H1EA        0.6810   -1.7330   -0.6910 hc        1 D2V      0.075000
     46 H1EB        1.2790   -0.2850   -0.4410 hc        1 D2V      0.075000
     47 H2B        -1.1710    1.0840   -2.5250 hc        1 D2V      0.089000
     48 H1Q        -1.6980   -1.1300   -1.4600 hc        1 D2V      0.081000
     49 H1QA       -2.6780    0.1010   -1.5870 hc        1 D2V      0.081000
     50 H1P        -2.4750    0.6400    0.6440 hc        1 D2V      0.082500
     51 H1PA       -1.7800   -0.7760    0.8040 hc        1 D2V      0.082500
     52 H2A        -0.1640   -0.2380    0.5820 hc        1 D2V      0.093000
     53 H1F         1.1350    2.5430   -0.9810 hc        1 D2V      0.076333
     54 H1FA        1.4210    1.2850   -0.0370 hc        1 D2V      0.076333
     55 H1FB        1.3830    1.1080   -1.6170 hc        1 D2V      0.076333
     56 H1R        -2.2300    2.3550   -1.1540 hc        1 D2V      0.080500
     57 H1RA       -0.9220    3.0940   -1.6720 hc        1 D2V      0.080500
     58 H1L        -1.8550    3.9070   -0.2140 hc        1 D2V      0.081000
     59 H1LA       -0.3400    3.4720    0.0360 hc        1 D2V      0.081000
     60 H1M        -1.7590    2.9330    1.9220 hc        1 D2V      0.087500
     61 H1MA       -2.6380    2.0790    1.0370 hc        1 D2V      0.087500
     62 H1I         0.0440   -0.5150    2.4320 ha        1 D2V      0.130000
     63 H1H        -1.4640    1.8000    3.7150 ha        1 D2V      0.127000
     64 H1S        -1.2950   -1.8950    4.7100 ha        1 D2V      0.100500
     65 H1SA       -0.0180   -1.2820    4.0980 ha        1 D2V      0.100500
     66 H1Z         0.2850   -2.5190    6.3510 h1        1 D2V      0.069000
     67 HO1G        1.9510   -1.2820    6.8580 ho        1 D2V      0.197000
     68 H1O        -0.0990   -1.4930    8.1870 hc        1 D2V      0.086500
     69 H1OA       -1.4220   -1.8120    7.3640 hc        1 D2V      0.086500
     70 H1N        -1.6360    0.5570    8.3330 hc        1 D2V      0.092000
     71 H1NA       -0.3070    0.8450    7.6740 hc        1 D2V      0.092000
     72 H1A        -3.0960    2.0980    7.1870 DU        1 D2V      0.113000
     73 H1AA       -3.1600    2.0400    5.4820 ha        1 D2V      0.115000
@<TRIPOS>BOND
     1    1    2 1   
     2    1   30 1   
     3    1   31 1   
     4    1   32 1   
     5    2    3 1   
     6    2    4 1   
     7    2   33 1   
     8    3   34 1   
     9    3   35 1   
    10    3   36 1   
    11    4    5 1   
    12    4    6 1   
    13    4   37 1   
    14    5   38 1   
    15    5   39 1   
    16    5   40 1   
    17    6    7 1   
    18    6   41 1   
    19    7   42 1   
    20    8    9 1   
    21    8   10 1   
    22    8   43 1   
    23    9   44 1   
    24    9   45 1   
    25    9   46 1   
    26   10   11 1   
    27   10   14 1   
    28   10   47 1   
    29   11   12 1   
    30   11   48 1   
    31   11   49 1   
    32   12   13 1   
    33   12   50 1   
    34   12   51 1   
    35   13   14 1   
    36   13   19 1   
    37   13   52 1   
    38   14   15 1   
    39   14   16 1   
    40   15   53 1   
    41   15   54 1   
    42   15   55 1   
    43   16   17 1   
    44   16   56 1   
    45   16   57 1   
    46   17   18 1   
    47   17   58 1   
    48   17   59 1   
    49   18   19 1   
    50   18   60 1   
    51   18   61 1   
    52   19   20 1   
    53   20   62 1   
    54   21   22 1   
    55   21   63 1   
    56   22   28 1   
    57   23   24 1   
    58   23   64 1   
    59   23   65 1   
    60   24   25 1   
    61   24   26 1   
    62   24   66 1   
    63   25   67 1   
    64   26   27 1   
    65   26   68 1   
    66   26   69 1   
    67   27   28 1   
    68   27   70 1   
    69   27   71 1   
    70   28   29 1   
    71   29   73 1   
@<TRIPOS>SUBSTRUCTURE
     1 D2V         1 TEMP              0 ****  ****    0 ROOT
