@<TRIPOS>MOLECULE
D2V
   73    75     1     0     0
SMALL
bcc


@<TRIPOS>ATOM
      1 C1B         8.6390   -2.0770    0.0550 c3        1 D2V     -0.090600
      2 C1W         7.4520   -1.3870    0.6930 c3        1 D2V     -0.060700
      3 C1C         7.8190    0.0350    1.0640 c3        1 D2V     -0.090600
      4 C1X         6.2320   -1.4050   -0.2350 c3        1 D2V     -0.031500
      5 C1D         5.8660   -2.8210   -0.6400 c3        1 D2V     -0.087100
      6 C1J         5.0630   -0.7670    0.4380 c2        1 D2V     -0.166200
      7 C1K         4.3780    0.2570   -0.0780 c2        1 D2V     -0.168200
      8 C1Y         3.2190    0.9030    0.6090 c3        1 D2V     -0.026500
      9 C1E         3.6630    2.2440    1.1670 c3        1 D2V     -0.087100
     10 C2B         2.0580    1.0460   -0.3710 c3        1 D2V     -0.051700
     11 C1Q         1.7050   -0.3070   -1.0190 c3        1 D2V     -0.078400
     12 C1P         0.1830   -0.3730   -1.1570 c3        1 D2V     -0.073400
     13 C2A        -0.2870    1.0440   -0.8620 c3        1 D2V     -0.036500
     14 C2C         0.7200    1.5580    0.2050 c3        1 D2V     -0.041000
     15 C1F         0.4440    0.9430    1.5660 c3        1 D2V     -0.082100
     16 C1R         0.5680    3.0710    0.2620 c3        1 D2V     -0.066400
     17 C1L        -0.8570    3.4550    0.6190 c3        1 D2V     -0.073400
     18 C1M        -1.9180    2.7830   -0.2370 c3        1 D2V     -0.044200
     19 C1V        -1.6880    1.3220   -0.4500 c2        1 D2V     -0.080400
     20 C1I        -2.6330    0.3710   -0.3660 ce        1 D2V     -0.149000
     21 C1H        -4.0060    0.5760    0.0300 ce        1 D2V     -0.118000
     22 C1U        -5.0240   -0.2660   -0.2440 cf        1 D2V     -0.074200
     23 C1S        -6.4030    0.0320    0.2440 c3        1 D2V     -0.075200
     24 C1Z        -7.0420   -1.1930    0.8980 c3        1 D2V      0.144100
     25 O1G        -8.4110   -0.9480    1.1950 oh        1 D2V     -0.599800
     26 C1O        -7.0080   -2.3920   -0.0430 c3        1 D2V     -0.072400
     27 C1N        -5.5840   -2.6960   -0.4570 c3        1 D2V     -0.041200
     28 C1T        -4.8940   -1.4980   -1.0240 cf        1 D2V     -0.077200
     29 C1A        -4.2110   -1.5610   -2.1740 c2        1 D2V     -0.211000
     30 H1B         9.5510   -1.9340    0.6850 hc        1 D2V      0.034200
     31 H1BA        8.4520   -3.1730   -0.0460 hc        1 D2V      0.034200
     32 H1BB        8.8410   -1.6570   -0.9600 hc        1 D2V      0.034200
     33 H1W         7.1800   -1.9430    1.6350 hc        1 D2V      0.045700
     34 H1C         6.9430    0.5590    1.5170 hc        1 D2V      0.034200
     35 H1CA        8.6580    0.0370    1.8020 hc        1 D2V      0.034200
     36 H1CB        8.1430    0.6050    0.1600 hc        1 D2V      0.034200
     37 H1X         6.4960   -0.8250   -1.1660 hc        1 D2V      0.050700
     38 H1D         5.7650   -3.4740    0.2600 hc        1 D2V      0.035033
     39 H1DA        4.8960   -2.8250   -1.1930 hc        1 D2V      0.035033
     40 H1DB        6.6530   -3.2500   -1.3060 hc        1 D2V      0.035033
     41 H1J         4.7890   -1.2110    1.4090 ha        1 D2V      0.121000
     42 H1K         4.6490    0.7010   -1.0500 ha        1 D2V      0.121000
     43 H1Y         2.8900    0.2520    1.4690 hc        1 D2V      0.054700
     44 H1E         3.7670    2.9980    0.3510 hc        1 D2V      0.035700
     45 H1EA        2.9200    2.6200    1.9110 hc        1 D2V      0.035700
     46 H1EB        4.6500    2.1370    1.6800 hc        1 D2V      0.035700
     47 H2B         2.3770    1.7620   -1.1790 hc        1 D2V      0.046700
     48 H1Q         2.2000   -0.3910   -2.0180 hc        1 D2V      0.044700
     49 H1QA        2.0750   -1.1530   -0.3870 hc        1 D2V      0.044700
     50 H1P        -0.1230   -0.6990   -2.1800 hc        1 D2V      0.045200
     51 H1PA       -0.2440   -1.1000   -0.4220 hc        1 D2V      0.045200
     52 H2A        -0.1130    1.6470   -1.8050 hc        1 D2V      0.054700
     53 H1F         1.0780    1.4290    2.3470 hc        1 D2V      0.037700
     54 H1FA       -0.6290    1.0730    1.8460 hc        1 D2V      0.037700
     55 H1FB        0.6680   -0.1510    1.5500 hc        1 D2V      0.037700
     56 H1R         1.2680    3.5040    1.0220 hc        1 D2V      0.042200
     57 H1RA        0.8400    3.5110   -0.7340 hc        1 D2V      0.042200
     58 H1L        -1.0430    3.2020    1.6970 hc        1 D2V      0.040200
     59 H1LA       -0.9690    4.5670    0.5170 hc        1 D2V      0.040200
     60 H1M        -2.9200    2.9680    0.2320 hc        1 D2V      0.047200
     61 H1MA       -1.9350    3.2740   -1.2500 hc        1 D2V      0.047200
     62 H1I        -2.3670   -0.6760   -0.6100 ha        1 D2V      0.133000
     63 H1H        -4.2140    1.4830    0.6260 ha        1 D2V      0.122000
     64 H1S        -6.3920    0.8790    0.9790 hc        1 D2V      0.054200
     65 H1SA       -7.0380    0.3500   -0.6270 hc        1 D2V      0.054200
     66 H1Z        -6.4950   -1.4390    1.8530 h1        1 D2V      0.036700
     67 HO1G       -8.4380   -0.1630    1.7540 ho        1 D2V      0.398000
     68 H1O        -7.4570   -3.2790    0.4730 hc        1 D2V      0.057700
     69 H1OA       -7.6380   -2.1700   -0.9430 hc        1 D2V      0.057700
     70 H1N        -5.0010   -3.0510    0.4370 hc        1 D2V      0.049700
     71 H1NA       -5.5910   -3.5330   -1.2050 hc        1 D2V      0.049700
     72 H1A        -3.6990   -0.6890   -2.6010 ha        1 D2V      0.117500
     73 H1AA       -4.1320   -2.4870   -2.7580 ha        1 D2V      0.117500
@<TRIPOS>BOND
     1    1    2 1   
     2    1   30 1   
     3    1   31 1   
     4    1   32 1   
     5    2    3 1   
     6    2    4 1   
     7    2   33 1   
     8    3   34 1   
     9    3   35 1   
    10    3   36 1   
    11    4    5 1   
    12    4    6 1   
    13    4   37 1   
    14    5   38 1   
    15    5   39 1   
    16    5   40 1   
    17    6    7 2   
    18    6   41 1   
    19    7    8 1   
    20    7   42 1   
    21    8    9 1   
    22    8   10 1   
    23    8   43 1   
    24    9   44 1   
    25    9   45 1   
    26    9   46 1   
    27   10   11 1   
    28   10   14 1   
    29   10   47 1   
    30   11   12 1   
    31   11   48 1   
    32   11   49 1   
    33   12   13 1   
    34   12   50 1   
    35   12   51 1   
    36   13   14 1   
    37   13   19 1   
    38   13   52 1   
    39   14   15 1   
    40   14   16 1   
    41   15   53 1   
    42   15   54 1   
    43   15   55 1   
    44   16   17 1   
    45   16   56 1   
    46   16   57 1   
    47   17   18 1   
    48   17   58 1   
    49   17   59 1   
    50   18   19 1   
    51   18   60 1   
    52   18   61 1   
    53   19   20 2   
    54   20   21 1   
    55   20   62 1   
    56   21   22 2   
    57   21   63 1   
    58   22   23 1   
    59   22   28 1   
    60   23   24 1   
    61   23   64 1   
    62   23   65 1   
    63   24   25 1   
    64   24   26 1   
    65   24   66 1   
    66   25   67 1   
    67   26   27 1   
    68   26   68 1   
    69   26   69 1   
    70   27   28 1   
    71   27   70 1   
    72   27   71 1   
    73   28   29 2   
    74   29   72 1   
    75   29   73 1   
@<TRIPOS>SUBSTRUCTURE
     1 D2V         1 TEMP              0 ****  ****    0 ROOT
