@<TRIPOS>MOLECULE
D2V
   73    75     1     0     0
SMALL
bcc


@<TRIPOS>ATOM
      1 C1B        -0.4410    0.4300    0.2300 c3        1 D2V     -0.090600
      2 C1W         1.0560    0.6070    0.0860 c3        1 D2V     -0.060700
      3 C1C         1.3790    2.0620   -0.1890 c3        1 D2V     -0.090600
      4 C1X         1.7980    0.1150    1.3340 c3        1 D2V     -0.031500
      5 C1D         1.4640   -1.3330    1.6400 c3        1 D2V     -0.087100
      6 C1J         3.2720    0.2510    1.1440 c2        1 D2V     -0.166200
      7 C1K         4.0670    0.9250    1.9790 c2        1 D2V     -0.168200
      8 C1Y         5.5410    1.0720    1.7740 c3        1 D2V     -0.026500
      9 C1E         5.8320    2.4860    1.3020 c3        1 D2V     -0.087100
     10 C2B         6.2730    0.7380    3.0710 c3        1 D2V     -0.051700
     11 C1Q         5.8680   -0.6530    3.5970 c3        1 D2V     -0.078400
     12 C1P         7.1190   -1.3120    4.1800 c3        1 D2V     -0.073400
     13 C2A         8.1440   -0.1890    4.2450 c3        1 D2V     -0.036500
     14 C2C         7.8160    0.6910    3.0060 c3        1 D2V     -0.041000
     15 C1F         8.2850    0.0330    1.7200 c3        1 D2V     -0.082100
     16 C1R         8.5200    2.0240    3.2130 c3        1 D2V     -0.066400
     17 C1L        10.0170    1.8230    3.3630 c3        1 D2V     -0.073400
     18 C1M        10.4070    0.7790    4.3970 c3        1 D2V     -0.044200
     19 C1V         9.6010   -0.4770    4.3210 c2        1 D2V     -0.080400
     20 C1I        10.1020   -1.7220    4.3940 ce        1 D2V     -0.149000
     21 C1H        11.5020   -2.0670    4.4670 ce        1 D2V     -0.118000
     22 C1U        11.9860   -3.2440    4.9130 cf        1 D2V     -0.074200
     23 C1S        13.4560   -3.5050    4.9140 c3        1 D2V     -0.075200
     24 C1Z        13.7810   -4.8730    4.3160 c3        1 D2V      0.144100
     25 O1G        15.1600   -5.1820    4.4860 oh        1 D2V     -0.599800
     26 C1O        12.9990   -5.9750    5.0210 c3        1 D2V     -0.072400
     27 C1N        11.5120   -5.7020    4.9360 c3        1 D2V     -0.041200
     28 C1T        11.1610   -4.3370    5.4330 cf        1 D2V     -0.077200
     29 C1A        10.1600   -4.1410    6.3010 c2        1 D2V     -0.211000
     30 H1B        -0.9700    0.9170   -0.6250 hc        1 D2V      0.034200
     31 H1BA       -0.7120   -0.6530    0.2380 hc        1 D2V      0.034200
     32 H1BB       -0.8030    0.8930    1.1790 hc        1 D2V      0.034200
     33 H1W         1.4050   -0.0080   -0.7920 hc        1 D2V      0.045700
     34 H1C         0.8990    2.3910   -1.1410 hc        1 D2V      0.034200
     35 H1CA        1.0030    2.7090    0.6400 hc        1 D2V      0.034200
     36 H1CB        2.4840    2.2060   -0.2770 hc        1 D2V      0.034200
     37 H1X         1.4680    0.7490    2.2060 hc        1 D2V      0.050700
     38 H1D         2.1200   -1.7150    2.4590 hc        1 D2V      0.035033
     39 H1DA        0.4010   -1.4260    1.9680 hc        1 D2V      0.035033
     40 H1DB        1.6160   -1.9720    0.7370 hc        1 D2V      0.035033
     41 H1J         3.6730   -0.2590    0.2530 ha        1 D2V      0.121000
     42 H1K         3.6690    1.4340    2.8710 ha        1 D2V      0.121000
     43 H1Y         5.8760    0.3540    0.9720 hc        1 D2V      0.054700
     44 H1E         5.7450    3.2120    2.1460 hc        1 D2V      0.035700
     45 H1EA        5.1080    2.7800    0.5040 hc        1 D2V      0.035700
     46 H1EB        6.8640    2.5500    0.8810 hc        1 D2V      0.035700
     47 H2B         5.9870    1.5120    3.8360 hc        1 D2V      0.046700
     48 H1Q         5.4490   -1.2780    2.7700 hc        1 D2V      0.044700
     49 H1QA        5.0740   -0.5470    4.3760 hc        1 D2V      0.044700
     50 H1P         7.4710   -2.1400    3.5140 hc        1 D2V      0.045200
     51 H1PA        6.9240   -1.7440    5.1910 hc        1 D2V      0.045200
     52 H2A         7.8990    0.4230    5.1660 hc        1 D2V      0.054700
     53 H1F         8.1750    0.7380    0.8610 hc        1 D2V      0.037700
     54 H1FA        9.3590   -0.2640    1.8010 hc        1 D2V      0.037700
     55 H1FB        7.6850   -0.8860    1.5130 hc        1 D2V      0.037700
     56 H1R         8.3240    2.7060    2.3450 hc        1 D2V      0.042200
     57 H1RA        8.1110    2.5240    4.1300 hc        1 D2V      0.042200
     58 H1L        10.4470    1.5300    2.3680 hc        1 D2V      0.040200
     59 H1LA       10.4870    2.8010    3.6500 hc        1 D2V      0.040200
     60 H1M        11.5020    0.5620    4.2850 hc        1 D2V      0.047200
     61 H1MA       10.2620    1.2120    5.4260 hc        1 D2V      0.047200
     62 H1I         9.4060   -2.5840    4.3950 ha        1 D2V      0.133000
     63 H1H        12.2140   -1.3060    4.0980 ha        1 D2V      0.122000
     64 H1S        14.0030   -2.7120    4.3400 hc        1 D2V      0.054200
     65 H1SA       13.8320   -3.4730    5.9720 hc        1 D2V      0.054200
     66 H1Z        13.5370   -4.8720    3.2160 h1        1 D2V      0.036700
     67 HO1G       15.6570   -4.4630    4.0800 ho        1 D2V      0.398000
     68 H1O        13.2360   -6.9600    4.5430 hc        1 D2V      0.057700
     69 H1OA       13.3260   -6.0300    6.0910 hc        1 D2V      0.057700
     70 H1N        11.1750   -5.7870    3.8670 hc        1 D2V      0.049700
     71 H1NA       10.9610   -6.4840    5.5230 hc        1 D2V      0.049700
     72 H1A         9.5580   -4.9700    6.6940 ha        1 D2V      0.117500
     73 H1AA        9.8920   -3.1440    6.6720 ha        1 D2V      0.117500
@<TRIPOS>BOND
     1    1    2 1   
     2    1   30 1   
     3    1   31 1   
     4    1   32 1   
     5    2    3 1   
     6    2    4 1   
     7    2   33 1   
     8    3   34 1   
     9    3   35 1   
    10    3   36 1   
    11    4    5 1   
    12    4    6 1   
    13    4   37 1   
    14    5   38 1   
    15    5   39 1   
    16    5   40 1   
    17    6    7 2   
    18    6   41 1   
    19    7    8 1   
    20    7   42 1   
    21    8    9 1   
    22    8   10 1   
    23    8   43 1   
    24    9   44 1   
    25    9   45 1   
    26    9   46 1   
    27   10   11 1   
    28   10   14 1   
    29   10   47 1   
    30   11   12 1   
    31   11   48 1   
    32   11   49 1   
    33   12   13 1   
    34   12   50 1   
    35   12   51 1   
    36   13   14 1   
    37   13   19 1   
    38   13   52 1   
    39   14   15 1   
    40   14   16 1   
    41   15   53 1   
    42   15   54 1   
    43   15   55 1   
    44   16   17 1   
    45   16   56 1   
    46   16   57 1   
    47   17   18 1   
    48   17   58 1   
    49   17   59 1   
    50   18   19 1   
    51   18   60 1   
    52   18   61 1   
    53   19   20 2   
    54   20   21 1   
    55   20   62 1   
    56   21   22 2   
    57   21   63 1   
    58   22   23 1   
    59   22   28 1   
    60   23   24 1   
    61   23   64 1   
    62   23   65 1   
    63   24   25 1   
    64   24   26 1   
    65   24   66 1   
    66   25   67 1   
    67   26   27 1   
    68   26   68 1   
    69   26   69 1   
    70   27   28 1   
    71   27   70 1   
    72   27   71 1   
    73   28   29 2   
    74   29   72 1   
    75   29   73 1   
@<TRIPOS>SUBSTRUCTURE
     1 D2V         1 TEMP              0 ****  ****    0 ROOT
