@<TRIPOS>MOLECULE
D2V
   73    75     1     0     0
SMALL
bcc


@<TRIPOS>ATOM
      1 C1B        -0.4490    0.4170    0.2400 c3        1 D2V     -0.090600
      2 C1W         1.0460    0.6110    0.1000 c3        1 D2V     -0.060700
      3 C1C         1.3560    2.0750   -0.1410 c3        1 D2V     -0.090600
      4 C1X         1.7930    0.0980    1.3370 c3        1 D2V     -0.031500
      5 C1D         1.4720   -1.3600    1.6100 c3        1 D2V     -0.087100
      6 C1J         3.2660    0.2520    1.1510 c2        1 D2V     -0.167200
      7 C1K         4.0540    0.9180    1.9980 c2        1 D2V     -0.167200
      8 C1Y         5.5260    1.0830    1.7970 c3        1 D2V     -0.027500
      9 C1E         5.8020    2.5060    1.3430 c3        1 D2V     -0.087100
     10 C2B         6.2610    0.7410    3.0900 c3        1 D2V     -0.051700
     11 C1Q         5.8700   -0.6600    3.5990 c3        1 D2V     -0.078400
     12 C1P         7.1280   -1.3130    4.1760 c3        1 D2V     -0.073400
     13 C2A         8.1410   -0.1800    4.2540 c3        1 D2V     -0.036500
     14 C2C         7.8040    0.7120    3.0260 c3        1 D2V     -0.041000
     15 C1F         8.2810    0.0740    1.7330 c3        1 D2V     -0.082100
     16 C1R         8.4930    2.0490    3.2490 c3        1 D2V     -0.066400
     17 C1L         9.9930    1.8620    3.3980 c3        1 D2V     -0.073400
     18 C1M        10.3930    0.8100    4.4190 c3        1 D2V     -0.044200
     19 C1V         9.6000   -0.4540    4.3280 c2        1 D2V     -0.080400
     20 C1I        10.1150   -1.6940    4.3870 ce        1 D2V     -0.149000
     21 C1H        11.5190   -2.0240    4.4570 ce        1 D2V     -0.116000
     22 C1U        12.0160   -3.2010    4.8900 cf        1 D2V     -0.078200
     23 C1S        13.4900   -3.4390    4.8940 c3        1 D2V     -0.037200
     24 C1Z        13.8320   -4.7940    4.2780 c3        1 D2V      0.144100
     25 O1G        15.2350   -4.9630    4.4470 oh        1 D2V     -0.600800
     26 C1O        13.0580   -5.9160    4.9610 c3        1 D2V     -0.110400
     27 C1N        11.5680   -5.6620    4.8810 c3        1 D2V     -0.037200
     28 C1T        11.2020   -4.3080    5.3960 cf        1 D2V     -0.077200
     29 C1A        10.1980   -4.1360    6.2640 c2        1 D2V     -0.211000
     30 H1B        -0.7100   -0.6690    0.2220 hc        1 D2V      0.034200
     31 H1BA       -0.8160    0.8550    1.1990 hc        1 D2V      0.034200
     32 H1BB       -0.9820    0.9190   -0.6040 hc        1 D2V      0.034200
     33 H1W         1.4010    0.0200   -0.7910 hc        1 D2V      0.045700
     34 H1C         2.4590    2.2310   -0.2250 hc        1 D2V      0.034200
     35 H1CA        0.9740    2.7000    0.7020 hc        1 D2V      0.034200
     36 H1CB        0.8730    2.4220   -1.0860 hc        1 D2V      0.034200
     37 H1X         1.4570    0.7090    2.2230 hc        1 D2V      0.050700
     38 H1D         1.6300   -1.9760    0.6930 hc        1 D2V      0.035033
     39 H1DA        2.1320   -1.7540    2.4200 hc        1 D2V      0.035033
     40 H1DB        0.4100   -1.4700    1.9350 hc        1 D2V      0.035033
     41 H1J         3.6720   -0.2360    0.2500 ha        1 D2V      0.121000
     42 H1K         3.6500    1.4050    2.9010 ha        1 D2V      0.121000
     43 H1Y         5.8700    0.3790    0.9860 hc        1 D2V      0.054700
     44 H1E         5.7070    3.2200    2.1950 hc        1 D2V      0.035700
     45 H1EA        6.8340    2.5860    0.9230 hc        1 D2V      0.035700
     46 H1EB        5.0750    2.8020    0.5480 hc        1 D2V      0.035700
     47 H2B         5.9660    1.5030    3.8650 hc        1 D2V      0.046700
     48 H1Q         5.0740   -0.5730    4.3790 hc        1 D2V      0.044200
     49 H1QA        5.4580   -1.2800    2.7640 hc        1 D2V      0.044200
     50 H1P         6.9360   -1.7590    5.1810 hc        1 D2V      0.044700
     51 H1PA        7.4890   -2.1290    3.5000 hc        1 D2V      0.044700
     52 H2A         7.8880    0.4190    5.1820 hc        1 D2V      0.054700
     53 H1F         9.3580   -0.2130    1.8110 hc        1 D2V      0.037700
     54 H1FA        7.6910   -0.8490    1.5140 hc        1 D2V      0.037700
     55 H1FB        8.1640    0.7880    0.8820 hc        1 D2V      0.037700
     56 H1R         8.2910    2.7390    2.3890 hc        1 D2V      0.042200
     57 H1RA        8.0790    2.5340    4.1720 hc        1 D2V      0.042200
     58 H1L        10.4270    1.5860    2.4000 hc        1 D2V      0.040700
     59 H1LA       10.4530    2.8410    3.6970 hc        1 D2V      0.040700
     60 H1M        11.4900    0.6060    4.3060 hc        1 D2V      0.047700
     61 H1MA       10.2430    1.2290    5.4540 hc        1 D2V      0.047700
     62 H1I         9.4290   -2.5630    4.3770 ha        1 D2V      0.132000
     63 H1H        12.2230   -1.2520    4.0970 ha        1 D2V      0.124000
     64 H1S        13.8650   -3.4160    5.9530 hc        1 D2V      0.062700
     65 H1SA       14.0330   -2.6370    4.3300 hc        1 D2V      0.062700
     66 H1Z        13.5940   -4.7850    3.1770 h1        1 D2V      0.036700
     67 HO1G       15.4500   -5.8440    4.1200 ho        1 D2V      0.399000
     68 H1O        13.3010   -6.8940    4.4710 hc        1 D2V      0.048700
     69 H1OA       13.3810   -5.9850    6.0320 hc        1 D2V      0.048700
     70 H1N        11.2320   -5.7370    3.8110 hc        1 D2V      0.049200
     71 H1NA       11.0260   -6.4580    5.4580 hc        1 D2V      0.049200
     72 H1A         9.6040   -4.9760    6.6470 ha        1 D2V      0.117500
     73 H1AA        9.9180   -3.1460    6.6480 ha        1 D2V      0.117500
@<TRIPOS>BOND
     1    1    2 1   
     2    1   30 1   
     3    1   31 1   
     4    1   32 1   
     5    2    3 1   
     6    2    4 1   
     7    2   33 1   
     8    3   34 1   
     9    3   35 1   
    10    3   36 1   
    11    4    5 1   
    12    4    6 1   
    13    4   37 1   
    14    5   38 1   
    15    5   39 1   
    16    5   40 1   
    17    6    7 2   
    18    6   41 1   
    19    7    8 1   
    20    7   42 1   
    21    8    9 1   
    22    8   10 1   
    23    8   43 1   
    24    9   44 1   
    25    9   45 1   
    26    9   46 1   
    27   10   11 1   
    28   10   14 1   
    29   10   47 1   
    30   11   12 1   
    31   11   48 1   
    32   11   49 1   
    33   12   13 1   
    34   12   50 1   
    35   12   51 1   
    36   13   14 1   
    37   13   19 1   
    38   13   52 1   
    39   14   15 1   
    40   14   16 1   
    41   15   53 1   
    42   15   54 1   
    43   15   55 1   
    44   16   17 1   
    45   16   56 1   
    46   16   57 1   
    47   17   18 1   
    48   17   58 1   
    49   17   59 1   
    50   18   19 1   
    51   18   60 1   
    52   18   61 1   
    53   19   20 2   
    54   20   21 1   
    55   20   62 1   
    56   21   22 2   
    57   21   63 1   
    58   22   23 1   
    59   22   28 1   
    60   23   24 1   
    61   23   64 1   
    62   23   65 1   
    63   24   25 1   
    64   24   26 1   
    65   24   66 1   
    66   25   67 1   
    67   26   27 1   
    68   26   68 1   
    69   26   69 1   
    70   27   28 1   
    71   27   70 1   
    72   27   71 1   
    73   28   29 2   
    74   29   72 1   
    75   29   73 1   
@<TRIPOS>SUBSTRUCTURE
     1 D2V         1 TEMP              0 ****  ****    0 ROOT
