@<TRIPOS>MOLECULE
D2X
   41    42     1     0     0
SMALL
bcc


@<TRIPOS>ATOM
      1 OAJ         0.0000    0.0000    0.0000 o         1 D2X     -0.446500
      2 PAW         1.6100    0.0000    0.0000 p5        1 D2X      0.877900
      3 OAZ         2.1460    0.0000    1.5170 o         1 D2X     -0.446500
      4 OAX         2.1040   -1.2090   -0.6980 o         1 D2X     -0.446500
      5 OAV         2.1480    1.3140   -0.7590 os        1 D2X     -0.485800
      6 PAU         3.5460    1.7150   -1.4480 p5        1 D2X      0.963800
      7 OAI         4.6330    2.0410   -0.3060 o         1 D2X     -0.672000
      8 OAY         4.0270    0.5880   -2.2790 o         1 D2X     -0.672000
      9 OAT         3.3350    3.0130   -2.3760 os        1 D2X     -0.511200
     10 CAS         4.3660    3.5550   -3.2030 c3        1 D2X      0.309400
     11 CAR         3.8340    4.7810   -3.9470 c3        1 D2X      0.062900
     12 CAQ         4.9220    5.3520   -4.8200 cc        1 D2X     -0.062400
     13 CAH         5.1640    5.0200   -6.0920 cd        1 D2X     -0.291600
     14 CAB         4.3480    3.9960   -6.8360 c3        1 D2X      0.074200
     15 SAP         6.0940    6.5790   -4.3470 ss        1 D2X     -0.292800
     16 CAO         6.7980    6.5190   -5.9030 cc        1 D2X     -0.538400
     17 NAG         6.1750    5.6620   -6.6410 na        1 D2X      0.609900
     18 CAF         6.5730    5.4150   -8.0290 c3        1 D2X     -0.006400
     19 CAE         5.7360    6.2660   -8.9490 ca        1 D2X     -0.418900
     20 CAN         4.5950    5.7590   -9.5400 ca        1 D2X      0.442200
     21 NAM         3.8830    6.5350  -10.3430 nb        1 D2X     -0.648000
     22 CAL         4.2500    7.7780  -10.5850 ca        1 D2X      0.565300
     23 CAK         3.4100    8.6240  -11.5070 c3        1 D2X     -0.019400
     24 NAC         5.3320    8.3010  -10.0440 nb        1 D2X     -0.710000
     25 CAD         6.0930    7.5850   -9.2240 ca        1 D2X      0.651600
     26 OAA         7.2040    8.1280   -8.6690 oh        1 D2X     -0.583300
     27 HAS         5.2090    3.8440   -2.5870 h1        1 D2X     -0.018300
     28 HASA        4.6830    2.8070   -3.9200 h1        1 D2X     -0.018300
     29 HAR         2.9910    4.4920   -4.5630 hc        1 D2X      0.011700
     30 HARA        3.5170    5.5290   -3.2300 hc        1 D2X      0.011700
     31 HAB         4.9600    3.5320   -7.6000 hc        1 D2X      0.014033
     32 HABA        3.4970    4.4800   -7.3000 hc        1 D2X      0.014033
     33 HABB        3.9990    3.2390   -6.1440 hc        1 D2X      0.014033
     34 HAO         7.6430    7.1150   -6.2250 h5        1 D2X      0.180000
     35 HAF         7.6190    5.6680   -8.1550 h1        1 D2X      0.037200
     36 HAFA        6.4230    4.3690   -8.2680 h1        1 D2X      0.037200
     37 HAN         4.2850    4.7390   -9.3470 h4        1 D2X     -0.005900
     38 HAK         3.1570    9.5540  -11.0130 hc        1 D2X      0.005700
     39 HAKA        2.5010    8.0900  -11.7590 hc        1 D2X      0.005700
     40 HAKB        3.9670    8.8350  -12.4120 hc        1 D2X      0.005700
     41 H19         7.5380    8.8060   -9.2330 ho        1 D2X      0.399000
@<TRIPOS>BOND
     1    1    2 1   
     2    2    3 1   
     3    2    4 1   
     4    2    5 1   
     5    5    6 1   
     6    6    7 1   
     7    6    8 1   
     8    6    9 1   
     9    9   10 1   
    10   10   11 1   
    11   10   27 1   
    12   10   28 1   
    13   11   12 1   
    14   11   29 1   
    15   11   30 1   
    16   12   13 2   
    17   12   15 1   
    18   13   14 1   
    19   13   17 1   
    20   14   31 1   
    21   14   32 1   
    22   14   33 1   
    23   15   16 1   
    24   16   17 2   
    25   16   34 1   
    26   17   18 1   
    27   18   19 1   
    28   18   35 1   
    29   18   36 1   
    30   19   20 ar  
    31   19   25 ar  
    32   20   21 ar  
    33   20   37 1   
    34   21   22 ar  
    35   22   23 1   
    36   22   24 ar  
    37   23   38 1   
    38   23   39 1   
    39   23   40 1   
    40   24   25 ar  
    41   25   26 1   
    42   26   41 1   
@<TRIPOS>SUBSTRUCTURE
     1 D2X         1 TEMP              0 ****  ****    0 ROOT
