@<TRIPOS>MOLECULE
D3
   52    47     1     0     0
SMALL
bcc


@<TRIPOS>ATOM
      1 P          -6.8300   -3.7220   -4.0810 p3        1 D3       2.524000
      2 OP1        -7.6370   -2.4280   -3.8960 o         1 D3      -1.261000
      3 OP2        -6.6480   -4.0020   -5.5670 os        1 D3      -1.228000
      4 OP3        -7.5960   -4.9120   -3.4190 o         1 D3      -1.261000
      5 O5'        -5.3990   -3.5560   -3.3930 os        1 D3      -0.716000
      6 C5'        -5.3330   -2.9960   -2.1050 c3        1 D3       0.078000
      7 C4'        -4.1290   -3.6030   -1.3420 c3        1 D3      -0.056000
      8 O4'        -3.1460   -2.7970   -1.3530 os        1 D3      -0.289000
      9 C3'        -4.4910   -3.7940    0.1920 c3        1 D3       0.048000
     10 O3'        -4.6060   -5.1040    0.4860 oh        1 D3      -0.402000
     11 C2'        -3.3560   -3.1910    0.9500 c3        1 D3      -0.210000
     12 C1'        -2.4020   -2.9860    0.0380 c3        1 D3       0.158000
     13 N1A        -1.6690   -1.8270    0.3540 n3        1 D3      -0.156000
     14 C2A        -2.0390   -0.5690    0.0890 c1        1 D3      -0.047000
     15 N3A        -1.0570    0.2640    0.5360 n2        1 D3      -0.170000
     16 C4A        -0.1060   -0.4770    1.0640 c2        1 D3      -0.144000
     17 C5A        -0.4830   -1.7900    0.9540 c1        1 D3      -0.147000
     18 C1B         1.1080   -0.0050    1.6050 c1        1 D3       0.079000
     19 C2B         1.9360    0.7940    0.8370 c1        1 D3      -0.165000
     20 C3B         3.0690    1.3950    1.4170 c1        1 D3       0.058000
     21 C4B         3.3540    1.1890    2.7490 c1        1 D3      -0.137250
     22 C5B         2.5180    0.3810    3.5250 c1        1 D3      -0.137250
     23 C6B         1.3970   -0.2140    2.9520 c1        1 D3      -0.164000
     24 N           3.9070    2.2790    0.6270 n         1 D3      -0.310000
     25 C           4.3060    3.5830    1.1640 c2        1 D3       0.348000
     26 O           3.9410    3.9170    2.2540 o         1 D3      -0.368000
     27 C1C         5.0740    4.5650    0.2810 c2        1 D3      -0.118000
     28 C2C         6.2810    5.0960    0.7160 c2        1 D3      -0.083000
     29 C3C         6.9950    5.9590   -0.1050 c1        1 D3      -0.144000
     30 C4C         6.5020    6.2890   -1.3560 c1        1 D3      -0.137250
     31 C5C         5.3000    5.7590   -1.7880 c1        1 D3      -0.137250
     32 C6C         4.5850    4.8950   -0.9660 c1        1 D3      -0.102000
     33 H5'        -6.2020   -3.2030   -1.5950 h1        1 D3       0.036000
     34 H5''       -5.2170   -2.0000   -2.1770 h1        1 D3       0.036000
     35 H4'        -3.8770   -4.4360   -1.7290 h1        1 D3       0.121000
     36 H3'        -5.3020   -3.3380    0.3970 h1        1 D3       0.147000
     37 HO3'       -5.3150   -5.2300    0.9640 ho        1 D3       0.301000
     38 H2'        -3.6310   -2.3350    1.3570 hc        1 D3       0.090500
     39 H2''       -3.0310   -3.8280    1.6580 hc        1 D3       0.090500
     40 H1'        -1.7870   -3.7840   -0.0050 h2        1 D3       0.085000
     41 H2A        -2.9090   -0.2820   -0.3700 DU        1 D3       0.203500
     42 H5A         0.0490   -2.5910    1.2730 DU        1 D3       0.203500
     43 H2B         1.7320    0.9420   -0.1190 ha        1 D3       0.159000
     44 H4B         4.1320    1.6030    3.1470 ha        1 D3       0.134000
     45 H5B         2.7140    0.2370    4.4340 ha        1 D3       0.134000
     46 H6B         0.8050   -0.7850    3.5030 ha        1 D3       0.128000
     47 HN          4.2760    1.9790   -0.1480 hn        1 D3       0.236000
     48 H2C         6.6290    4.8610    1.6040 ha        1 D3       0.150000
     49 H3C         7.8850    6.2920    0.1810 ha        1 D3       0.129000
     50 H4C         7.0080    6.9010   -1.9400 ha        1 D3       0.134000
     51 H5C         4.9670    5.9830   -2.6360 ha        1 D3       0.134000
     52 H6C         3.7250    4.6200   -1.2160 ha        1 D3       0.146000
@<TRIPOS>BOND
     1    1    2 1   
     2    1    4 1   
     3    1    5 1   
     4    5    6 1   
     5    6    7 1   
     6    6   33 1   
     7    6   34 1   
     8    7    8 1   
     9    7    9 1   
    10    7   35 1   
    11    8   12 1   
    12    9   10 1   
    13    9   11 1   
    14    9   36 1   
    15   10   37 1   
    16   11   12 1   
    17   11   38 1   
    18   11   39 1   
    19   12   13 1   
    20   12   40 1   
    21   13   14 1   
    22   13   17 1   
    23   14   15 1   
    24   15   16 1   
    25   16   17 1   
    26   16   18 1   
    27   18   23 1   
    28   19   20 1   
    29   19   43 1   
    30   20   24 1   
    31   21   22 1   
    32   21   44 1   
    33   22   45 1   
    34   23   46 1   
    35   24   25 1   
    36   24   47 1   
    37   25   26 1   
    38   25   27 1   
    39   27   28 1   
    40   27   32 1   
    41   28   29 1   
    42   28   48 1   
    43   29   49 1   
    44   30   31 1   
    45   30   50 1   
    46   31   51 1   
    47   32   52 1   
@<TRIPOS>SUBSTRUCTURE
     1 D3          1 TEMP              0 ****  ****    0 ROOT
