@<TRIPOS>MOLECULE
D3
   52    55     1     0     0
SMALL
bcc


@<TRIPOS>ATOM
      1 P          -1.7100   -0.6970   -4.1940 p5        1 D3       1.346900
      2 OP1        -1.1920   -0.7110   -2.7680 o         1 D3      -0.928833
      3 OP2        -3.1860   -0.5720   -4.3820 o         1 D3      -0.928833
      4 OP3        -0.9190   -1.6340   -5.0750 o         1 D3      -0.928833
      5 O5'        -1.0560    0.7890   -4.7980 os        1 D3      -0.569200
      6 C5'        -0.0870    1.4130   -4.0620 c3        1 D3       0.216400
      7 C4'         1.3460    1.0600   -4.5290 c3        1 D3       0.064100
      8 O4'         2.2970    1.7260   -3.6590 os        1 D3      -0.442600
      9 C3'         1.6590   -0.4530   -4.4730 c3        1 D3       0.114100
     10 O3'         1.8170   -0.9990   -5.7620 oh        1 D3      -0.657800
     11 C2'         2.9660   -0.5610   -3.6840 c3        1 D3      -0.118400
     12 C1'         3.0220    0.7630   -2.8910 c3        1 D3       0.253800
     13 N1A         2.5010    0.6480   -1.5390 na        1 D3      -0.220900
     14 C2A         3.1190    1.1520   -0.3760 cc        1 D3       0.333400
     15 N3A         2.3730    0.9310    0.7230 nd        1 D3      -0.673000
     16 C4A         1.2140    0.2790    0.2660 cd        1 D3       0.258800
     17 C5A         1.2880    0.1020   -1.1430 cc        1 D3      -0.150600
     18 C1B         0.0900   -0.1390    1.0780 ca        1 D3      -0.056500
     19 C2B         0.1720   -0.1560    2.4790 ca        1 D3      -0.142000
     20 C3B        -0.9280   -0.5840    3.2430 ca        1 D3       0.005600
     21 C4B        -2.1170   -0.9800    2.5890 ca        1 D3      -0.209000
     22 C5B        -2.1820   -0.9520    1.2000 ca        1 D3      -0.115000
     23 C6B        -1.0960   -0.5390    0.4340 ca        1 D3      -0.125000
     24 N          -0.8950   -0.6810    4.6560 n         1 D3      -0.449100
     25 C          -0.0430   -0.0400    5.5260 c         1 D3       0.659700
     26 O           0.9160    0.6810    5.1900 o         1 D3      -0.585100
     27 C1C        -0.3260   -0.2660    6.9860 ca        1 D3      -0.129600
     28 C2C        -0.2690    0.8350    7.8480 ca        1 D3      -0.096500
     29 C3C        -0.5090    0.6640    9.2110 ca        1 D3      -0.144500
     30 C4C        -0.7980   -0.6040    9.7160 ca        1 D3      -0.129000
     31 C5C        -0.8420   -1.7030    8.8590 ca        1 D3      -0.144500
     32 C6C        -0.6070   -1.5370    7.4940 ca        1 D3      -0.096500
     33 H5'        -0.1820    1.1730   -2.9660 h1        1 D3       0.002700
     34 H5''       -0.1930    2.5320   -4.1920 h1        1 D3       0.002700
     35 H4'         1.5430    1.4700   -5.5530 h1        1 D3       0.049700
     36 H3'         0.8010   -0.9830   -3.9410 h1        1 D3       0.147700
     37 HO3'        0.9300   -1.3560   -5.9900 ho        1 D3       0.482000
     38 H2'         2.9670   -1.4630   -3.0300 hc        1 D3       0.050200
     39 H2''        3.8440   -0.6130   -4.3720 hc        1 D3       0.050200
     40 H1'         4.0700    1.1740   -2.8050 h2        1 D3       0.045700
     41 H2A         4.0860    1.6550   -0.3990 h5        1 D3       0.030100
     42 H5A         0.5460   -0.3560   -1.8410 h4        1 D3       0.298000
     43 H2B         1.0990    0.1750    2.9750 ha        1 D3       0.165000
     44 H4B        -2.9930   -1.3130    3.1640 ha        1 D3       0.098000
     45 H5B        -3.1070   -1.2610    0.6900 ha        1 D3       0.138000
     46 H6B        -1.1790   -0.5330   -0.6850 ha        1 D3       0.260000
     47 HN         -1.6750   -1.1510    5.0580 hn        1 D3       0.301500
     48 H2C        -0.0200    1.8260    7.4380 ha        1 D3       0.149000
     49 H3C        -0.4680    1.5300    9.8860 ha        1 D3       0.125000
     50 H4C        -0.9880   -0.7370   10.7910 ha        1 D3       0.120000
     51 H5C        -1.0610   -2.7040    9.2580 ha        1 D3       0.125000
     52 H6C        -0.6300   -2.4110    6.8250 ha        1 D3       0.149000
@<TRIPOS>BOND
     1    1    2 1   
     2    1    3 1   
     3    1    4 1   
     4    1    5 1   
     5    5    6 1   
     6    6    7 1   
     7    6   33 1   
     8    6   34 1   
     9    7    8 1   
    10    7    9 1   
    11    7   35 1   
    12    8   12 1   
    13    9   10 1   
    14    9   11 1   
    15    9   36 1   
    16   10   37 1   
    17   11   12 1   
    18   11   38 1   
    19   11   39 1   
    20   12   13 1   
    21   12   40 1   
    22   13   14 1   
    23   13   17 1   
    24   14   15 2   
    25   14   41 1   
    26   15   16 1   
    27   16   17 2   
    28   16   18 1   
    29   17   42 1   
    30   18   19 ar  
    31   18   23 ar  
    32   19   20 ar  
    33   19   43 1   
    34   20   21 ar  
    35   20   24 1   
    36   21   22 ar  
    37   21   44 1   
    38   22   23 ar  
    39   22   45 1   
    40   23   46 1   
    41   24   25 1   
    42   24   47 1   
    43   25   26 2   
    44   25   27 1   
    45   27   28 ar  
    46   27   32 ar  
    47   28   29 ar  
    48   28   48 1   
    49   29   30 ar  
    50   29   49 1   
    51   30   31 ar  
    52   30   50 1   
    53   31   32 ar  
    54   31   51 1   
    55   32   52 1   
@<TRIPOS>SUBSTRUCTURE
     1 D3          1 TEMP              0 ****  ****    0 ROOT
