@<TRIPOS>MOLECULE
D30
   68    71     1     0     0
SMALL
bcc


@<TRIPOS>ATOM
      1 C2         -5.2990   -0.4390   -1.1590 ca        1 D30     -0.135300
      2 C3         -3.7460    0.9950    0.0470 ca        1 D30     -0.162100
      3 C6         -5.8780   -1.0130   -2.4030 c3        1 D30     -0.029100
      4 C7          0.4980    4.1360    1.6910 c3        1 D30      0.221500
      5 C9         -4.0340    0.1160   -3.6390 c3        1 D30     -0.074400
      6 C10        -5.3070   -0.3880    1.2920 ca        1 D30     -0.248000
      7 C20         0.3590   -0.4320   -0.3330 ca        1 D30     -0.110000
      8 C21        -1.4360    2.8570    5.0310 c3        1 D30     -0.002300
      9 C26         5.0660    0.2180   -0.8350 ca        1 D30      0.168100
     10 C27         5.9380    1.1570   -1.4270 ca        1 D30     -0.193000
     11 C28         5.5410   -1.0360   -0.4250 ca        1 D30     -0.193000
     12 C29         7.2750    0.8310   -1.5970 ca        1 D30     -0.046500
     13 C30         6.8870   -1.3480   -0.6040 ca        1 D30     -0.046500
     14 C31         7.7520   -0.4200   -1.1850 ca        1 D30     -0.217300
     15 C32         9.2220   -0.7590   -1.3590 c3        1 D30      0.693200
     16 O21        -9.5630   -2.8420    0.3480 o         1 D30     -0.814800
     17 C17        -8.5100   -3.2920    0.8650 c         1 D30      0.926600
     18 O22        -8.2830   -4.4900    1.1740 o         1 D30     -0.814800
     19 C14        -7.3910   -2.2680    1.2340 c3        1 D30     -0.016600
     20 C5         -5.8240   -0.8900    0.0850 ca        1 D30      0.200100
     21 C8         -4.2770    0.5400    1.2570 ca        1 D30     -0.032000
     22 C12        -5.5030   -0.2420   -3.6500 c3        1 D30     -0.075400
     23 C4         -3.7050    0.9990   -2.4550 c3        1 D30     -0.044100
     24 C1         -4.2630    0.4950   -1.1670 ca        1 D30      0.013700
     25 S7         -2.5960    2.2460    0.1210 ss        1 D30     -0.061800
     26 C13        -1.0800    1.5010    0.0440 ca        1 D30     -0.003100
     27 C16        -0.9030    0.1420   -0.2590 ca        1 D30     -0.136000
     28 C15         0.0840    2.2690    0.2680 ca        1 D30      0.085100
     29 O1         -0.0540    3.6390    0.4660 os        1 D30     -0.326900
     30 C11        -0.1910    3.6800    2.8660 c1        1 D30     -0.180100
     31 C19        -0.7600    3.3090    3.8510 c1        1 D30     -0.097100
     32 C22        -2.9400    2.8510    4.8680 c3        1 D30     -0.091100
     33 C18         1.3600    1.7010    0.1910 ca        1 D30     -0.118000
     34 C23         1.5010    0.3450   -0.1030 ca        1 D30     -0.119300
     35 C24         2.8430   -0.3020   -0.1410 c3        1 D30      0.181700
     36 O25         3.7680    0.6470   -0.7060 os        1 D30     -0.317900
     37 F35         9.8270   -0.1630   -2.4400 f         1 D30     -0.242300
     38 F33        10.0180   -0.3940   -0.2980 f         1 D30     -0.242300
     39 F34         9.4900   -2.0970   -1.5240 f         1 D30     -0.242300
     40 H6         -5.5280   -2.0780   -2.4930 hc        1 D30      0.070200
     41 H6A        -6.9980   -1.0540   -2.3020 hc        1 D30      0.070200
     42 H7          1.5890    3.8680    1.7540 h1        1 D30      0.062700
     43 H7A         0.3850    5.2520    1.5720 h1        1 D30      0.062700
     44 H9         -3.4210   -0.8230   -3.5930 hc        1 D30      0.034700
     45 H9A        -3.7610    0.6500   -4.5860 hc        1 D30      0.034700
     46 H10        -5.7140   -0.7280    2.2540 ha        1 D30      0.148000
     47 H20         0.4580   -1.5010   -0.5730 ha        1 D30      0.131000
     48 H21        -1.0820    1.8170    5.2820 hc        1 D30      0.054700
     49 H21A       -1.1530    3.5210    5.8960 hc        1 D30      0.054700
     50 H27         5.5430    2.1330   -1.7450 ha        1 D30      0.154000
     51 H28         4.8710   -1.7770    0.0330 ha        1 D30      0.154000
     52 H29         7.9660    1.5520   -2.0620 ha        1 D30      0.148500
     53 H30         7.2700   -2.3320   -0.2900 ha        1 D30      0.148500
     54 H14        -7.8340   -1.3980    1.7790 h1        1 D30      0.025700
     55 H14A       -6.5980   -2.7610    1.8500 h1        1 D30      0.025700
     56 H8         -3.8690    0.9320    2.2040 ha        1 D30      0.128000
     57 H12        -5.7400   -0.8610   -4.5550 hc        1 D30      0.037200
     58 H12A       -6.1160    0.6950   -3.7150 hc        1 D30      0.037200
     59 H4         -2.5890    1.1000   -2.3630 hc        1 D30      0.055700
     60 H4A        -4.1190    2.0300   -2.6330 hc        1 D30      0.055700
     61 H16        -1.7950   -0.4840   -0.4420 ha        1 D30      0.159000
     62 H22        -3.3190    3.8790    4.6570 hc        1 D30      0.043033
     63 H22A       -3.2420    2.1860    4.0230 hc        1 D30      0.043033
     64 H22B       -3.4190    2.4780    5.8050 hc        1 D30      0.043033
     65 H18         2.2530    2.3240    0.3500 ha        1 D30      0.142000
     66 H24         3.1820   -0.5600    0.8990 h1        1 D30      0.047700
     67 H24A        2.8310   -1.2260   -0.7780 h1        1 D30      0.047700
     68 O11        -6.8180   -1.8150   -0.0010 os        1 D30     -0.277900
@<TRIPOS>BOND
     1    1    3 1   
     2    1   20 ar  
     3    1   24 ar  
     4    2   21 ar  
     5    2   24 ar  
     6    2   25 1   
     7    3   22 1   
     8    3   40 1   
     9    3   41 1   
    10    4   29 1   
    11    4   30 1   
    12    4   42 1   
    13    4   43 1   
    14    5   22 1   
    15    5   23 1   
    16    5   44 1   
    17    5   45 1   
    18    6   20 ar  
    19    6   21 ar  
    20    6   46 1   
    21    7   27 ar  
    22    7   34 ar  
    23    7   47 1   
    24    8   31 1   
    25    8   32 1   
    26    8   48 1   
    27    8   49 1   
    28    9   10 ar  
    29    9   11 ar  
    30    9   36 1   
    31   10   12 ar  
    32   10   50 1   
    33   11   13 ar  
    34   11   51 1   
    35   12   14 ar  
    36   12   52 1   
    37   13   14 ar  
    38   13   53 1   
    39   14   15 1   
    40   15   37 1   
    41   15   38 1   
    42   15   39 1   
    43   16   17 1   
    44   17   18 1   
    45   17   19 1   
    46   19   54 1   
    47   19   55 1   
    48   19   68 1   
    49   20   68 1   
    50   21   56 1   
    51   22   57 1   
    52   22   58 1   
    53   23   24 1   
    54   23   59 1   
    55   23   60 1   
    56   25   26 1   
    57   26   27 ar  
    58   26   28 ar  
    59   27   61 1   
    60   28   29 1   
    61   28   33 ar  
    62   30   31 3   
    63   32   62 1   
    64   32   63 1   
    65   32   64 1   
    66   33   34 ar  
    67   33   65 1   
    68   34   35 1   
    69   35   36 1   
    70   35   66 1   
    71   35   67 1   
@<TRIPOS>SUBSTRUCTURE
     1 D30         1 TEMP              0 ****  ****    0 ROOT
