@<TRIPOS>MOLECULE
D30
   68    71     1     0     0
SMALL
bcc


@<TRIPOS>ATOM
      1 C2         -0.2250   -0.0770   -0.1080 ca        1 D30     -0.135300
      2 C3         -1.7170    1.3340    1.2000 ca        1 D30     -0.162100
      3 C6          0.4450   -1.3690   -0.4140 c3        1 D30     -0.029100
      4 C7         -5.6390    3.3170    4.5570 c3        1 D30      0.221500
      5 C9         -1.0100   -2.3990    1.3250 c3        1 D30     -0.074400
      6 C10        -0.5780    2.2670   -0.7320 ca        1 D30     -0.248000
      7 C20        -5.8860    0.1420    0.7160 ca        1 D30     -0.109000
      8 C21        -4.4040    6.3600    2.1590 c3        1 D30     -0.002300
      9 C26       -10.5410    0.6770    1.6460 ca        1 D30      0.169100
     10 C27       -11.4080    1.6900    2.1110 ca        1 D30     -0.192500
     11 C28       -11.0560   -0.4850    1.0520 ca        1 D30     -0.192500
     12 C29       -12.7780    1.5260    1.9770 ca        1 D30     -0.046500
     13 C30       -12.4350   -0.6320    0.9250 ca        1 D30     -0.046500
     14 C31       -13.2940    0.3670    1.3860 ca        1 D30     -0.217300
     15 C32       -14.7960    0.2060    1.2300 c3        1 D30      0.693200
     16 O21         3.3840    1.0810   -3.5430 o         1 D30     -0.814800
     17 C17         2.2140    1.3330   -3.9280 c         1 D30      0.926600
     18 O22         1.7820    1.2520   -5.1070 o         1 D30     -0.814800
     19 C14         1.2040    1.8700   -2.8670 c3        1 D30     -0.016600
     20 C5          0.0370    1.0250   -0.9700 ca        1 D30      0.201100
     21 C8         -1.4460    2.4030    0.3410 ca        1 D30     -0.032000
     22 C12         0.3770   -2.3640    0.7240 c3        1 D30     -0.075400
     23 C4         -1.3820   -1.0460    1.8950 c3        1 D30     -0.043100
     24 C1         -1.1020    0.0860    0.9650 ca        1 D30      0.013700
     25 S7         -2.6660    1.6560    2.5730 ss        1 D30     -0.059800
     26 C13        -4.2450    1.1980    2.1790 ca        1 D30     -0.003100
     27 C16        -4.5800    0.5210    0.9950 ca        1 D30     -0.137000
     28 C15        -5.2950    1.4790    3.0810 ca        1 D30      0.084100
     29 O1         -4.9850    2.0680    4.3030 os        1 D30     -0.328900
     30 C11        -5.1950    4.3870    3.7070 c1        1 D30     -0.180100
     31 C19        -4.8310    5.2860    3.0060 c1        1 D30     -0.097100
     32 C22        -2.9110    6.3430    1.9150 c3        1 D30     -0.091100
     33 C18        -6.6090    1.0800    2.8180 ca        1 D30     -0.116000
     34 C23        -6.9090    0.4100    1.6330 ca        1 D30     -0.121300
     35 C24        -8.2920   -0.0620    1.3420 c3        1 D30      0.182700
     36 O25        -9.2060    0.9370    1.8350 os        1 D30     -0.317900
     37 F35       -15.5450    0.8180    2.2080 f         1 D30     -0.242633
     38 F33       -15.3060    0.7180    0.0590 f         1 D30     -0.242633
     39 F34       -15.2400   -1.0950    1.2390 f         1 D30     -0.242633
     40 H6          1.5200   -1.1710   -0.6840 hc        1 D30      0.070200
     41 H6A        -0.0380   -1.8050   -1.3320 hc        1 D30      0.070200
     42 H7         -6.7530    3.1900    4.4670 h1        1 D30      0.063200
     43 H7A        -5.3610    3.5220    5.6310 h1        1 D30      0.063200
     44 H9         -1.0580   -3.1680    2.1390 hc        1 D30      0.034700
     45 H9A        -1.7520   -2.6940    0.5380 hc        1 D30      0.034700
     46 H10        -0.3740    3.1220   -1.3920 ha        1 D30      0.148000
     47 H20        -6.1120   -0.3740   -0.2290 ha        1 D30      0.131000
     48 H21        -4.9450    6.2880    1.1730 hc        1 D30      0.055200
     49 H21A       -4.6980    7.3410    2.6290 hc        1 D30      0.055200
     50 H27       -10.9830    2.5930    2.5710 ha        1 D30      0.154000
     51 H28       -10.3920   -1.2790    0.6850 ha        1 D30      0.154000
     52 H29       -13.4660    2.3070    2.3390 ha        1 D30      0.148500
     53 H30       -12.8510   -1.5420    0.4640 ha        1 D30      0.148500
     54 H14         1.6760    2.6910   -2.2720 h1        1 D30      0.025700
     55 H14A        0.2680    2.2280   -3.3630 h1        1 D30      0.025700
     56 H8         -1.9300    3.3770    0.5250 ha        1 D30      0.128000
     57 H12         1.1210   -2.0860    1.5160 hc        1 D30      0.037200
     58 H12A        0.6550   -3.3820    0.3450 hc        1 D30      0.037200
     59 H4         -2.4730   -1.0430    2.1670 hc        1 D30      0.055200
     60 H4A        -0.8030   -0.8690    2.8430 hc        1 D30      0.055200
     61 H16        -3.7810    0.2930    0.2680 ha        1 D30      0.159000
     62 H22        -2.6000    5.3830    1.4350 hc        1 D30      0.043033
     63 H22A       -2.3520    6.4520    2.8740 hc        1 D30      0.043033
     64 H22B       -2.6300    7.1870    1.2390 hc        1 D30      0.043033
     65 H18        -7.4090    1.3020    3.5410 ha        1 D30      0.142000
     66 H24        -8.4540   -0.1940    0.2390 h1        1 D30      0.048200
     67 H24A       -8.4950   -1.0310    1.8750 h1        1 D30      0.048200
     68 O11         0.8900    0.7720   -1.9990 os        1 D30     -0.277900
@<TRIPOS>BOND
     1    1    3 1   
     2    1   20 ar  
     3    1   24 ar  
     4    2   21 ar  
     5    2   24 ar  
     6    2   25 1   
     7    3   22 1   
     8    3   40 1   
     9    3   41 1   
    10    4   29 1   
    11    4   30 1   
    12    4   42 1   
    13    4   43 1   
    14    5   22 1   
    15    5   23 1   
    16    5   44 1   
    17    5   45 1   
    18    6   20 ar  
    19    6   21 ar  
    20    6   46 1   
    21    7   27 ar  
    22    7   34 ar  
    23    7   47 1   
    24    8   31 1   
    25    8   32 1   
    26    8   48 1   
    27    8   49 1   
    28    9   10 ar  
    29    9   11 ar  
    30    9   36 1   
    31   10   12 ar  
    32   10   50 1   
    33   11   13 ar  
    34   11   51 1   
    35   12   14 ar  
    36   12   52 1   
    37   13   14 ar  
    38   13   53 1   
    39   14   15 1   
    40   15   37 1   
    41   15   38 1   
    42   15   39 1   
    43   16   17 1   
    44   17   18 1   
    45   17   19 1   
    46   19   54 1   
    47   19   55 1   
    48   19   68 1   
    49   20   68 1   
    50   21   56 1   
    51   22   57 1   
    52   22   58 1   
    53   23   24 1   
    54   23   59 1   
    55   23   60 1   
    56   25   26 1   
    57   26   27 ar  
    58   26   28 ar  
    59   27   61 1   
    60   28   29 1   
    61   28   33 ar  
    62   30   31 3   
    63   32   62 1   
    64   32   63 1   
    65   32   64 1   
    66   33   34 ar  
    67   33   65 1   
    68   34   35 1   
    69   35   36 1   
    70   35   66 1   
    71   35   67 1   
@<TRIPOS>SUBSTRUCTURE
     1 D30         1 TEMP              0 ****  ****    0 ROOT
