@<TRIPOS>MOLECULE
D30
   68    62     1     0     0
SMALL
bcc


@<TRIPOS>ATOM
      1 C2          4.3260   -2.5540   -1.1220 c1        1 D30     -0.053500
      2 C3          2.6370   -0.8330   -0.5920 c1        1 D30     -0.390000
      3 C6          5.7000   -3.2580   -0.6790 c3        1 D30     -0.123000
      4 C7         -0.0440    4.1670    0.7530 c3        1 D30      0.097000
      5 C9          5.4300   -2.3450    1.5870 c3        1 D30     -0.153500
      6 C10         2.6740   -1.9620   -2.7870 c1        1 D30     -0.247000
      7 C20        -1.9870   -0.3510    0.1970 c1        1 D30     -0.108000
      8 C21         2.9980    6.5380    2.5110 c3        1 D30     -0.053000
      9 C26        -6.0840    0.3140    0.6640 c1        1 D30      0.124000
     10 C27        -6.5750   -0.9450    0.3560 c1        1 D30     -0.168000
     11 C28        -6.9520    1.3570    0.8840 c1        1 D30     -0.129000
     12 C29        -7.9500   -1.1560    0.2690 c1        1 D30     -0.051000
     13 C30        -8.3370    1.1470    0.7970 c1        1 D30     -0.129000
     14 C31        -8.8260   -0.1080    0.4900 c1        1 D30     -0.210000
     15 C32       -10.3670   -0.3360    0.3440 c3        1 D30      0.472000
     16 O21         5.0100   -6.2680   -4.1360 o         1 D30     -0.544000
     17 C17         4.0450   -5.6300   -4.5640 c1        1 D30      0.346000
     18 O22         3.5380   -5.9270   -5.7000 os        1 D30     -0.555000
     19 C14         3.3690   -4.6280   -3.6860 c3        1 D30     -0.117000
     20 O11         4.3140   -3.6910   -3.2390 os        1 D30     -0.161000
     21 C5          3.7900   -2.7240   -2.3870 c1        1 D30      0.155000
     22 C8          2.0920   -1.0090   -1.8850 c1        1 D30     -0.031000
     23 C12         6.3230   -2.7580    0.4980 c3        1 D30     -0.153500
     24 C4          4.4020   -1.4110    1.2550 c3        1 D30     -0.123000
     25 C1          3.7270   -1.5760   -0.1960 c1        1 D30     -0.053500
     26 S7          1.9580    0.4440    0.5110 ss        1 D30      0.396000
     27 C13         0.2110    0.6130    0.2370 c2        1 D30     -0.230000
     28 C16        -0.6030   -0.4970    0.2840 c2        1 D30     -0.138000
     29 C15        -0.3430    1.8770    0.1040 c1        1 D30      0.039000
     30 O1          0.5240    3.0550    0.1440 os        1 D30     -0.210000
     31 C11         1.0640    5.0190    1.3890 c1        1 D30     -0.205000
     32 C19         1.9440    5.7020    1.8970 c1        1 D30     -0.126000
     33 C22         4.1410    5.6690    2.9580 c3        1 D30     -0.213000
     34 C18        -1.7110    2.0230    0.0170 c1        1 D30     -0.117000
     35 C23        -2.5390    0.8940    0.0650 c1        1 D30     -0.114000
     36 C24        -4.0300    1.0400   -0.1580 c3        1 D30      0.025000
     37 O25        -4.7000    0.4920    0.8940 os        1 D30     -0.202000
     38 F35       -10.5800   -1.3760   -0.4200 f         1 D30     -0.171000
     39 F33       -10.8930   -0.5480    1.5300 f         1 D30     -0.171000
     40 F34       -10.9200    0.7260   -0.1970 f         1 D30     -0.171000
     41 H6          6.3290   -3.1780   -1.4090 hc        1 D30      0.102000
     42 H6A         5.5110   -4.2470   -0.5320 hc        1 D30      0.102000
     43 H7         -0.4990    4.6770    0.1080 h1        1 D30      0.103000
     44 H7A        -0.6760    3.8760    1.4510 h1        1 D30      0.103000
     45 H9          5.9880   -1.9410    2.2920 hc        1 D30      0.075000
     46 H9A         4.9880   -3.1530    1.9220 hc        1 D30      0.075000
     47 H10         2.2980   -2.0820   -3.6700 ha        1 D30      0.149000
     48 H20        -2.3250   -1.2410    0.2180 ha        1 D30      0.131000
     49 H21         3.3250    7.2000    1.8460 hc        1 D30      0.095000
     50 H21A        2.6080    7.0290    3.3170 hc        1 D30      0.095000
     51 H27        -5.9630   -1.6800    0.2000 ha        1 D30      0.159000
     52 H28        -6.6000    2.2530    1.1010 ha        1 D30      0.148500
     53 H29        -8.2970   -2.0520    0.0500 ha        1 D30      0.149000
     54 H30        -8.9410    1.8730    0.9490 ha        1 D30      0.148500
     55 H14         2.6820   -4.1790   -4.1830 h1        1 D30      0.065500
     56 H14A        2.9810   -5.0720   -2.9360 h1        1 D30      0.065500
     57 H8          1.3290   -0.4870   -2.1610 ha        1 D30      0.131000
     58 H12         6.8480   -1.9710    0.2350 hc        1 D30      0.075000
     59 H12A        6.8830   -3.4330    0.8310 hc        1 D30      0.075000
     60 H4          3.6730   -1.5070    1.9410 hc        1 D30      0.102000
     61 H4A         4.8060   -0.4980    1.2930 hc        1 D30      0.102000
     62 H16        -0.2240   -1.3600    0.4110 ha        1 D30      0.159000
     63 H22         4.3220    4.9940    2.2780 hc        1 D30      0.082000
     64 H22A        3.9150    5.2480    3.7660 hc        1 D30      0.082000
     65 H22B        4.9370    6.2180    3.0890 hc        1 D30      0.082000
     66 H18        -2.1230    2.9550   -0.0590 ha        1 D30      0.141000
     67 H24        -4.2600    2.0050   -0.2310 h1        1 D30      0.087500
     68 H24A       -4.2920    0.5670   -1.0080 h1        1 D30      0.087500
@<TRIPOS>BOND
     1    1    3 1   
     2    1   25 1   
     3    2   22 1   
     4    2   26 1   
     5    3   23 1   
     6    3   41 1   
     7    3   42 1   
     8    4   30 1   
     9    4   31 1   
    10    4   43 1   
    11    4   44 1   
    12    5   23 1   
    13    5   24 1   
    14    5   45 1   
    15    5   46 1   
    16    6   21 1   
    17    6   47 1   
    18    7   28 1   
    19    7   48 1   
    20    8   32 1   
    21    8   33 1   
    22    8   49 1   
    23    8   50 1   
    24    9   10 1   
    25    9   37 1   
    26   10   51 1   
    27   11   13 1   
    28   11   52 1   
    29   12   14 1   
    30   12   53 1   
    31   13   54 1   
    32   14   15 1   
    33   15   38 1   
    34   15   39 1   
    35   15   40 1   
    36   16   17 1   
    37   17   19 1   
    38   19   20 1   
    39   19   55 1   
    40   19   56 1   
    41   20   21 1   
    42   22   57 1   
    43   23   58 1   
    44   23   59 1   
    45   24   25 1   
    46   24   60 1   
    47   24   61 1   
    48   26   27 1   
    49   27   28 1   
    50   27   29 1   
    51   28   62 1   
    52   29   30 1   
    53   31   32 1   
    54   33   63 1   
    55   33   64 1   
    56   33   65 1   
    57   34   35 1   
    58   34   66 1   
    59   35   36 1   
    60   36   37 1   
    61   36   67 1   
    62   36   68 1   
@<TRIPOS>SUBSTRUCTURE
     1 D30         1 TEMP              0 ****  ****    0 ROOT
