@<TRIPOS>MOLECULE
D30
   68    71     1     0     0
SMALL
bcc


@<TRIPOS>ATOM
      1 C2         -0.1710   -0.2510   -0.2020 ca        1 D30     -0.135300
      2 C3         -1.6180    1.1520    1.1640 ca        1 D30     -0.162100
      3 C6          0.4640   -1.5480   -0.5560 c3        1 D30     -0.029100
      4 C7         -5.4620    3.1190    4.6190 c3        1 D30      0.221500
      5 C9         -1.0020   -2.5990    1.1610 c3        1 D30     -0.074400
      6 C10        -0.4710    2.1200   -0.7460 ca        1 D30     -0.248000
      7 C20        -5.8190    0.0820    0.6770 ca        1 D30     -0.109000
      8 C21        -4.1690    6.2090    2.3130 c3        1 D30     -0.002300
      9 C26       -10.4510    0.7040    1.6630 ca        1 D30      0.169100
     10 C27       -11.2890    1.7230    2.1670 ca        1 D30     -0.192500
     11 C28       -11.0010   -0.4240    1.0360 ca        1 D30     -0.192500
     12 C29       -12.6640    1.6000    2.0390 ca        1 D30     -0.046500
     13 C30       -12.3850   -0.5320    0.9160 ca        1 D30     -0.046500
     14 C31       -13.2130    0.4730    1.4150 ca        1 D30     -0.217300
     15 C32       -14.7210    0.3560    1.2670 c3        1 D30      0.693200
     16 O21         3.4370    0.9320   -3.6290 o         1 D30     -0.814800
     17 C17         2.2710    1.2240   -3.9940 c         1 D30      0.926600
     18 O22         1.8280    1.1920   -5.1720 o         1 D30     -0.814800
     19 C14         1.2830    1.7510   -2.9080 c3        1 D30     -0.016600
     20 C5          0.1100    0.8730   -1.0290 ca        1 D30      0.201100
     21 C8         -1.3270    2.2430    0.3390 ca        1 D30     -0.032000
     22 C12         0.3800   -2.5780    0.5490 c3        1 D30     -0.075400
     23 C4         -1.3360   -1.2570    1.7780 c3        1 D30     -0.043100
     24 C1         -1.0350   -0.1020    0.8830 ca        1 D30      0.013700
     25 S7         -2.5470    1.4520    2.5560 ss        1 D30     -0.059800
     26 C13        -4.1400    1.0470    2.1600 ca        1 D30     -0.003100
     27 C16        -4.5020    0.4190    0.9580 ca        1 D30     -0.137000
     28 C15        -5.1760    1.3240    3.0800 ca        1 D30      0.084100
     29 O1         -4.8420    1.8630    4.3180 os        1 D30     -0.328900
     30 C11        -4.9970    4.2060    3.8020 c1        1 D30     -0.180100
     31 C19        -4.6170    5.1190    3.1280 c1        1 D30     -0.097100
     32 C22        -2.6790    6.1630    2.0550 c3        1 D30     -0.091100
     33 C18        -6.5030    0.9670    2.8160 ca        1 D30     -0.116000
     34 C23        -6.8280    0.3450    1.6110 ca        1 D30     -0.121300
     35 C24        -8.2250   -0.0820    1.3170 c3        1 D30      0.182700
     36 O25        -9.1090    0.9230    1.8490 os        1 D30     -0.317900
     37 F35       -15.4460    0.9560    2.2690 f         1 D30     -0.242633
     38 F33       -15.2250    0.9170    0.1170 f         1 D30     -0.242633
     39 F34       -15.1980   -0.9330    1.2390 f         1 D30     -0.242633
     40 H6          1.5410   -1.3680   -0.8290 hc        1 D30      0.070200
     41 H6A        -0.0370   -1.9420   -1.4830 hc        1 D30      0.070200
     42 H7         -6.5800    3.0230    4.5350 h1        1 D30      0.063200
     43 H7A        -5.1700    3.2810    5.6970 h1        1 D30      0.063200
     44 H9         -1.0630   -3.3930    1.9500 hc        1 D30      0.034700
     45 H9A        -1.7570   -2.8500    0.3710 hc        1 D30      0.034700
     46 H10        -0.2510    2.9920   -1.3790 ha        1 D30      0.148000
     47 H20        -6.0660   -0.3960   -0.2830 ha        1 D30      0.131000
     48 H21        -4.7200    6.1840    1.3310 hc        1 D30      0.055200
     49 H21A       -4.4340    7.1810    2.8190 hc        1 D30      0.055200
     50 H27       -10.8370    2.6000    2.6520 ha        1 D30      0.154000
     51 H28       -10.3600   -1.2230    0.6390 ha        1 D30      0.154000
     52 H29       -13.3290    2.3850    2.4320 ha        1 D30      0.148500
     53 H30       -12.8270   -1.4160    0.4290 ha        1 D30      0.148500
     54 H14         1.7800    2.5400   -2.2900 h1        1 D30      0.025700
     55 H14A        0.3520    2.1480   -3.3840 h1        1 D30      0.025700
     56 H8         -1.7860    3.2210    0.5590 ha        1 D30      0.128000
     57 H12         1.1370   -2.3450    1.3430 hc        1 D30      0.037200
     58 H12A        0.6300   -3.5900    0.1350 hc        1 D30      0.037200
     59 H4         -2.4240   -1.2360    2.0600 hc        1 D30      0.055200
     60 H4A        -0.7450   -1.1250    2.7270 hc        1 D30      0.055200
     61 H16        -3.7150    0.1960    0.2160 ha        1 D30      0.159000
     62 H22        -2.3970    5.2120    1.5410 hc        1 D30      0.043033
     63 H22A       -2.1090    6.2250    3.0130 hc        1 D30      0.043033
     64 H22B       -2.3820    7.0210    1.4060 hc        1 D30      0.043033
     65 H18        -7.2900    1.1850    3.5520 ha        1 D30      0.142000
     66 H24        -8.3990   -0.1730    0.2110 h1        1 D30      0.048200
     67 H24A       -8.4490   -1.0620    1.8200 h1        1 D30      0.048200
     68 O11         0.9490    0.6320   -2.0740 os        1 D30     -0.277900
@<TRIPOS>BOND
     1    1    3 1   
     2    1   20 ar  
     3    1   24 ar  
     4    2   21 ar  
     5    2   24 ar  
     6    2   25 1   
     7    3   22 1   
     8    3   40 1   
     9    3   41 1   
    10    4   29 1   
    11    4   30 1   
    12    4   42 1   
    13    4   43 1   
    14    5   22 1   
    15    5   23 1   
    16    5   44 1   
    17    5   45 1   
    18    6   20 ar  
    19    6   21 ar  
    20    6   46 1   
    21    7   27 ar  
    22    7   34 ar  
    23    7   47 1   
    24    8   31 1   
    25    8   32 1   
    26    8   48 1   
    27    8   49 1   
    28    9   10 ar  
    29    9   11 ar  
    30    9   36 1   
    31   10   12 ar  
    32   10   50 1   
    33   11   13 ar  
    34   11   51 1   
    35   12   14 ar  
    36   12   52 1   
    37   13   14 ar  
    38   13   53 1   
    39   14   15 1   
    40   15   37 1   
    41   15   38 1   
    42   15   39 1   
    43   16   17 1   
    44   17   18 1   
    45   17   19 1   
    46   19   54 1   
    47   19   55 1   
    48   19   68 1   
    49   20   68 1   
    50   21   56 1   
    51   22   57 1   
    52   22   58 1   
    53   23   24 1   
    54   23   59 1   
    55   23   60 1   
    56   25   26 1   
    57   26   27 ar  
    58   26   28 ar  
    59   27   61 1   
    60   28   29 1   
    61   28   33 ar  
    62   30   31 3   
    63   32   62 1   
    64   32   63 1   
    65   32   64 1   
    66   33   34 ar  
    67   33   65 1   
    68   34   35 1   
    69   35   36 1   
    70   35   66 1   
    71   35   67 1   
@<TRIPOS>SUBSTRUCTURE
     1 D30         1 TEMP              0 ****  ****    0 ROOT
