@<TRIPOS>MOLECULE
D31
   63    67     1     0     0
SMALL
bcc


@<TRIPOS>ATOM
      1 N1          6.5930    1.5830    5.2380 nz        1 D31     -0.835600
      2 C2          6.0340    0.6290    4.2440 c3        1 D31      0.107800
      3 C3          4.5130    0.6920    4.1220 c3        1 D31     -0.087700
      4 C6          3.8010    0.3240    5.4130 c3        1 D31     -0.123900
      5 C7          2.2840    0.2840    5.1750 c3        1 D31      0.230800
      6 N8          1.7460    1.4190    4.4800 n3        1 D31     -0.850600
      7 C9          2.5040    1.9720    3.3930 c3        1 D31      0.230800
      8 C10         4.0170    2.0470    3.6440 c3        1 D31     -0.123900
      9 C20         0.6410    2.1370    5.0090 c3        1 D31      0.166800
     10 C21         0.8660    3.4020    5.8610 c         1 D31      0.620100
     11 N24         2.0440    3.5410    6.5910 ns        1 D31     -0.472100
     12 C25         2.3250    4.5500    7.5140 ca        1 D31      0.164600
     13 C26         1.3130    5.3990    8.0680 ca        1 D31     -0.161000
     14 C27         1.6210    6.3640    9.0040 ca        1 D31     -0.063000
     15 C28         2.9390    6.5630    9.4680 ca        1 D31     -0.115000
     16 C29         3.9240    5.7590    8.9530 ca        1 D31     -0.062500
     17 C30         3.6370    4.7460    7.9680 ca        1 D31     -0.265600
     18 C31         5.3560    5.7100    9.2160 cc        1 D31      0.384800
     19 C32         5.9490    4.6460    8.3660 cc        1 D31     -0.408900
     20 C33         4.8840    4.0410    7.5790 c         1 D31      0.705300
     21 N34         7.4530    5.6760    9.6410 na        1 D31     -0.024600
     22 C35         7.3090    4.6630    8.6810 cd        1 D31      0.026400
     23 C36         8.4200    3.8290    8.1600 c3        1 D31     -0.000400
     24 C37         9.4480    4.6730    7.4130 c3        1 D31     -0.082400
     25 C38        10.5500    3.7970    6.8510 c3        1 D31     -0.074400
     26 C39        11.2110    2.9720    7.9360 c3        1 D31     -0.087400
     27 C40        10.1970    2.1590    8.7130 c3        1 D31     -0.074400
     28 C41         9.0930    3.0330    9.2730 c3        1 D31     -0.082400
     29 O53        -0.0460    4.2450    5.8990 o         1 D31     -0.564100
     30 O54         4.9920    3.1260    6.7400 o         1 D31     -0.712100
     31 N55         6.3040    6.2990    9.9640 nd        1 D31     -0.432800
     32 HN11        6.2110    1.3870    6.1770 hn        1 D31      0.466133
     33 HN12        7.6110    1.5290    5.2630 hn        1 D31      0.466133
     34 H21         6.3430   -0.4100    4.5570 hx        1 D31      0.101700
     35 H22         6.5000    0.8650    3.2440 hx        1 D31      0.101700
     36 H3          4.2500   -0.0800    3.3380 hc        1 D31      0.100700
     37 H61         4.1280   -0.6870    5.7670 hc        1 D31      0.057950
     38 H62         4.0320    1.0710    6.2180 hc        1 D31      0.057950
     39 H71         2.0590   -0.6370    4.5580 h1        1 D31      0.058200
     40 H72         1.7740    0.1640    6.1720 h1        1 D31      0.058200
     41 H91         2.3360    1.3230    2.4830 h1        1 D31      0.058200
     42 H92         2.1280    3.0070    3.1530 h1        1 D31      0.058200
     43 H101        4.5210    2.3390    2.6880 hc        1 D31      0.057950
     44 H102        4.2270    2.8360    4.4140 hc        1 D31      0.057950
     45 H201        0.0210    1.4500    5.6580 h1        1 D31      0.093200
     46 H202       -0.0070    2.4820    4.1470 h1        1 D31      0.093200
     47 H24         2.7950    2.9140    6.3920 hn        1 D31      0.333500
     48 H26         0.2650    5.2870    7.7390 ha        1 D31      0.186000
     49 H27         0.8150    7.0010    9.4080 ha        1 D31      0.156000
     50 H28         3.1580    7.3380   10.2170 ha        1 D31      0.164000
     51 H34         8.3020    5.9490   10.0840 hn        1 D31      0.336700
     52 H36         7.9620    3.0980    7.4300 hc        1 D31      0.028700
     53 H371        9.8940    5.4280    8.1130 hc        1 D31      0.056200
     54 H372        8.9470    5.2370    6.5850 hc        1 D31      0.056200
     55 H381       10.1240    3.1160    6.0680 hc        1 D31      0.041200
     56 H382       11.3170    4.4440    6.3500 hc        1 D31      0.041200
     57 H391       11.9700    2.2870    7.4770 hc        1 D31      0.057700
     58 H392       11.7590    3.6540    8.6390 hc        1 D31      0.057700
     59 H401       10.7100    1.6260    9.5570 hc        1 D31      0.041200
     60 H402        9.7520    1.3750    8.0460 hc        1 D31      0.041200
     61 H411        9.5260    3.7370   10.0310 hc        1 D31      0.056200
     62 H412        8.3320    2.3980    9.7980 hc        1 D31      0.056200
     63 H13         6.3000    2.5450    5.0110 hn        1 D31      0.466133
@<TRIPOS>BOND
     1    1    2 1   
     2    1   32 1   
     3    1   33 1   
     4    1   63 1   
     5    2    3 1   
     6    2   34 1   
     7    2   35 1   
     8    3    4 1   
     9    3    8 1   
    10    3   36 1   
    11    4    5 1   
    12    4   37 1   
    13    4   38 1   
    14    5    6 1   
    15    5   39 1   
    16    5   40 1   
    17    6    7 1   
    18    6    9 1   
    19    7    8 1   
    20    7   41 1   
    21    7   42 1   
    22    8   43 1   
    23    8   44 1   
    24    9   10 1   
    25    9   45 1   
    26    9   46 1   
    27   10   11 1   
    28   10   29 2   
    29   11   12 1   
    30   11   47 1   
    31   12   13 ar  
    32   12   17 ar  
    33   13   14 ar  
    34   13   48 1   
    35   14   15 ar  
    36   14   49 1   
    37   15   16 ar  
    38   15   50 1   
    39   16   17 ar  
    40   16   18 1   
    41   17   20 1   
    42   18   19 1   
    43   18   31 2   
    44   19   20 1   
    45   19   22 2   
    46   20   30 2   
    47   21   22 1   
    48   21   31 1   
    49   21   51 1   
    50   22   23 1   
    51   23   24 1   
    52   23   28 1   
    53   23   52 1   
    54   24   25 1   
    55   24   53 1   
    56   24   54 1   
    57   25   26 1   
    58   25   55 1   
    59   25   56 1   
    60   26   27 1   
    61   26   57 1   
    62   26   58 1   
    63   27   28 1   
    64   27   59 1   
    65   27   60 1   
    66   28   61 1   
    67   28   62 1   
@<TRIPOS>SUBSTRUCTURE
     1 D31         1 TEMP              0 ****  ****    0 ROOT
