@<TRIPOS>MOLECULE
D31
   62    66     1     0     0
SMALL
bcc


@<TRIPOS>ATOM
      1 N1         -6.5400   -2.5530   -2.5750 n3        1 D31     -0.916800
      2 C2         -5.4620   -2.8570   -1.6650 c3        1 D31      0.162800
      3 C3         -5.3940   -1.9210   -0.4510 c3        1 D31     -0.069700
      4 C6         -4.4270   -2.5030    0.5690 c3        1 D31     -0.075900
      5 C7         -4.2600   -1.5710    1.7670 c3        1 D31      0.171300
      6 N8         -3.8770   -0.2180    1.3830 n3        1 D31     -0.739600
      7 C9         -4.7620    0.3620    0.3810 c3        1 D31      0.171300
      8 C10        -4.9400   -0.5270   -0.8480 c3        1 D31     -0.075900
      9 C20        -3.6960    0.6520    2.5290 c3        1 D31      0.098800
     10 C21        -2.8130    1.8760    2.2170 c         1 D31      0.665100
     11 N24        -1.5670    1.6170    1.6700 n         1 D31     -0.456100
     12 C25        -0.5840    2.5480    1.3280 ca        1 D31      0.145600
     13 C26        -0.7560    3.9600    1.4590 ca        1 D31     -0.169000
     14 C27         0.2500    4.8380    1.1050 ca        1 D31     -0.085000
     15 C28         1.4870    4.3920    0.6020 ca        1 D31     -0.136000
     16 C29         1.6740    3.0350    0.4700 ca        1 D31     -0.058500
     17 C30         0.6480    2.0990    0.8310 ca        1 D31     -0.243600
     18 C31         2.8150    2.2660   -0.0080 cc        1 D31      0.361800
     19 C32         2.4690    0.8260    0.0700 cc        1 D31     -0.364900
     20 C33         1.1110    0.6940    0.5970 c         1 D31      0.651300
     21 N34         4.5180    1.1860   -0.7160 na        1 D31     -0.043600
     22 C35         3.6000    0.1640   -0.3980 cd        1 D31      0.023400
     23 C36         3.8650   -1.2860   -0.5580 c3        1 D31     -0.015400
     24 C37         4.1230   -1.6450   -2.0180 c3        1 D31     -0.072400
     25 C38         4.3610   -3.1330   -2.1670 c3        1 D31     -0.078400
     26 C39         5.5010   -3.6030   -1.2870 c3        1 D31     -0.079400
     27 C40         5.2690   -3.2250    0.1620 c3        1 D31     -0.078400
     28 C41         5.0330   -1.7360    0.3140 c3        1 D31     -0.072400
     29 O53        -3.2270    3.0130    2.5060 o         1 D31     -0.597100
     30 O54         0.4730   -0.3400    0.8110 o         1 D31     -0.550100
     31 N55         4.0610    2.4290   -0.4880 nd        1 D31     -0.459800
     32 HN11       -6.5200   -1.5920   -2.8530 hn        1 D31      0.348800
     33 HN12       -6.4790   -3.1310   -3.3890 hn        1 D31      0.348800
     34 H21        -5.6310   -3.9080   -1.2920 h1        1 D31      0.026200
     35 H22        -4.4500   -2.8430   -2.1700 h1        1 D31      0.026200
     36 H3         -6.4150   -1.8500    0.0190 hc        1 D31      0.064700
     37 H61        -4.8100   -3.4870    0.9430 hc        1 D31      0.050700
     38 H62        -3.4310   -2.6810    0.0860 hc        1 D31      0.050700
     39 H71        -5.2210   -1.5730    2.3610 h1        1 D31      0.035950
     40 H72        -3.4450   -1.9810    2.4290 h1        1 D31      0.035950
     41 H91        -5.7830    0.5830    0.8140 h1        1 D31      0.035950
     42 H92        -4.3080    1.3430    0.0620 h1        1 D31      0.035950
     43 H101       -3.9750   -0.5900   -1.4150 hc        1 D31      0.050700
     44 H102       -5.7010   -0.0420   -1.5130 hc        1 D31      0.050700
     45 H201       -4.6710    1.0620    2.9260 h1        1 D31      0.067200
     46 H202       -3.1940    0.0780    3.3600 h1        1 D31      0.067200
     47 H24        -1.3540    0.6610    1.4510 hn        1 D31      0.360500
     48 H26        -1.7080    4.3600    1.8490 ha        1 D31      0.178000
     49 H27         0.0830    5.9210    1.2190 ha        1 D31      0.139000
     50 H28         2.2720    5.1090    0.3260 ha        1 D31      0.150000
     51 H34         5.4340    1.0540   -1.0770 hn        1 D31      0.323700
     52 H36         2.9340   -1.8280   -0.2160 hc        1 D31      0.092700
     53 H371        3.2430   -1.3370   -2.6400 hc        1 D31      0.045200
     54 H372        5.0190   -1.0840   -2.3940 hc        1 D31      0.045200
     55 H381        3.4250   -3.6890   -1.8960 hc        1 D31      0.045700
     56 H382        4.5930   -3.3660   -3.2390 hc        1 D31      0.045700
     57 H391        5.6060   -4.7160   -1.3710 hc        1 D31      0.041700
     58 H392        6.4610   -3.1460   -1.6430 hc        1 D31      0.041700
     59 H401        4.3820   -3.7860    0.5580 hc        1 D31      0.045700
     60 H402        6.1580   -3.5240    0.7760 hc        1 D31      0.045700
     61 H411        5.9610   -1.1790    0.0230 hc        1 D31      0.045200
     62 H412        4.8130   -1.4960    1.3870 hc        1 D31      0.045200
@<TRIPOS>BOND
     1    1    2 1   
     2    1   32 1   
     3    1   33 1   
     4    2    3 1   
     5    2   34 1   
     6    2   35 1   
     7    3    4 1   
     8    3    8 1   
     9    3   36 1   
    10    4    5 1   
    11    4   37 1   
    12    4   38 1   
    13    5    6 1   
    14    5   39 1   
    15    5   40 1   
    16    6    7 1   
    17    6    9 1   
    18    7    8 1   
    19    7   41 1   
    20    7   42 1   
    21    8   43 1   
    22    8   44 1   
    23    9   10 1   
    24    9   45 1   
    25    9   46 1   
    26   10   11 1   
    27   10   29 2   
    28   11   12 1   
    29   11   47 1   
    30   12   13 ar  
    31   12   17 ar  
    32   13   14 ar  
    33   13   48 1   
    34   14   15 ar  
    35   14   49 1   
    36   15   16 ar  
    37   15   50 1   
    38   16   17 ar  
    39   16   18 1   
    40   17   20 1   
    41   18   19 1   
    42   18   31 2   
    43   19   20 1   
    44   19   22 2   
    45   20   30 2   
    46   21   22 1   
    47   21   31 1   
    48   21   51 1   
    49   22   23 1   
    50   23   24 1   
    51   23   28 1   
    52   23   52 1   
    53   24   25 1   
    54   24   53 1   
    55   24   54 1   
    56   25   26 1   
    57   25   55 1   
    58   25   56 1   
    59   26   27 1   
    60   26   57 1   
    61   26   58 1   
    62   27   28 1   
    63   27   59 1   
    64   27   60 1   
    65   28   61 1   
    66   28   62 1   
@<TRIPOS>SUBSTRUCTURE
     1 D31         1 TEMP              0 ****  ****    0 ROOT
