@<TRIPOS>MOLECULE
D31
   64    68     1     0     0
SMALL
bcc


@<TRIPOS>ATOM
      1 N1          2.9460   -0.3310   -0.0240 n4        1 D31     -0.837600
      2 C2          3.6130    0.8040    0.6770 c3        1 D31      0.099800
      3 C3          3.6310    0.6540    2.2010 c3        1 D31     -0.093700
      4 C6          4.5350    1.7430    2.7680 c3        1 D31     -0.083900
      5 C7          4.5450    1.7040    4.2960 c3        1 D31      0.178300
      6 N8          3.2050    1.7670    4.8630 n3        1 D31     -0.755600
      7 C9          2.2940    0.7670    4.3250 c3        1 D31      0.178300
      8 C10         2.2380    0.7790    2.7970 c3        1 D31     -0.083900
      9 C20         3.1790    1.8680    6.3020 c3        1 D31      0.131800
     10 C21         2.0400    2.7810    6.7580 c         1 D31      0.543100
     11 N24         2.2470    3.4480    8.1060 n4        1 D31     -0.555200
     12 C25         2.7780    4.8090    7.9810 ca        1 D31      0.003600
     13 C26         1.9370    5.8800    7.6000 ca        1 D31     -0.121000
     14 C27         2.4510    7.1710    7.5490 ca        1 D31     -0.073000
     15 C28         3.7890    7.4500    7.8730 ca        1 D31     -0.059000
     16 C29         4.6120    6.3990    8.2400 ca        1 D31     -0.044500
     17 C30         4.1110    5.0610    8.2850 ca        1 D31     -0.171600
     18 C31         6.0050    6.3410    8.6560 cc        1 D31      0.341800
     19 C32         6.3520    4.9250    8.9530 cc        1 D31     -0.401900
     20 C33         5.1990    4.0960    8.7100 c         1 D31      0.664300
     21 N34         8.0420    6.3290    9.3010 na        1 D31     -0.019600
     22 C35         7.6860    4.9720    9.3760 cd        1 D31      0.093400
     23 C36         8.5930    3.8880    9.8310 c3        1 D31     -0.030400
     24 C37         9.8310    3.7930    8.9440 c3        1 D31     -0.072900
     25 C38        10.7260    2.6600    9.4070 c3        1 D31     -0.078900
     26 C39        11.1140    2.8220   10.8620 c3        1 D31     -0.084400
     27 C40         9.8930    2.9570   11.7490 c3        1 D31     -0.078900
     28 C41         8.9970    4.0890   11.2890 c3        1 D31     -0.072900
     29 O53         0.9660    2.9910    6.2210 o         1 D31     -0.410100
     30 O54         5.0210    2.8730    8.7680 o         1 D31     -0.588100
     31 N55         7.0590    7.1430    8.8800 nd        1 D31     -0.402800
     32 HN11        2.9630   -0.1730   -1.0390 hn        1 D31      0.466467
     33 HN12        1.9710   -0.4140    0.2840 hn        1 D31      0.466467
     34 H21         4.6730    0.8670    0.2910 hx        1 D31      0.118700
     35 H22         3.0670    1.7510    0.3930 hx        1 D31      0.118700
     36 H3          4.0650   -0.3490    2.4790 hc        1 D31      0.075700
     37 H61         5.5890    1.5970    2.4120 hc        1 D31      0.067950
     38 H62         4.1830    2.7480    2.4160 hc        1 D31      0.067950
     39 H71         5.0880    0.7720    4.6320 h1        1 D31      0.059450
     40 H72         5.1260    2.5980    4.6650 h1        1 D31      0.059450
     41 H91         2.5770   -0.2720    4.6680 h1        1 D31      0.059450
     42 H92         1.2620    1.0000    4.7190 h1        1 D31      0.059450
     43 H101        1.5890   -0.0780    2.4800 hc        1 D31      0.067950
     44 H102        1.7580    1.7310    2.4470 hc        1 D31      0.067950
     45 H201        2.9860    0.8760    6.8160 h1        1 D31      0.106200
     46 H202        4.1640    2.2740    6.6870 h1        1 D31      0.106200
     47 H24         2.9100    2.8840    8.6680 hn        1 D31      0.478800
     48 H26         0.8790    5.7010    7.3460 ha        1 D31      0.169000
     49 H27         1.7850    8.0020    7.2550 ha        1 D31      0.179000
     50 H28         4.1690    8.4860    7.8410 ha        1 D31      0.189000
     51 H34         8.9290    6.7160    9.5480 hn        1 D31      0.351700
     52 H36         8.0180    2.9180    9.7500 hc        1 D31      0.088700
     53 H371       10.4030    4.7570    8.9840 hc        1 D31      0.047700
     54 H372        9.5220    3.6210    7.8810 hc        1 D31      0.047700
     55 H381       11.6490    2.6380    8.7710 hc        1 D31      0.053700
     56 H382       10.1950    1.6820    9.2670 hc        1 D31      0.053700
     57 H391       11.7170    1.9340   11.1890 hc        1 D31      0.056200
     58 H392       11.7640    3.7290   10.9780 hc        1 D31      0.056200
     59 H401        9.3160    1.9950   11.7430 hc        1 D31      0.053700
     60 H402       10.2160    3.1500   12.8060 hc        1 D31      0.053700
     61 H411        8.0800    4.1300   11.9330 hc        1 D31      0.047700
     62 H412        9.5400    5.0640   11.4020 hc        1 D31      0.047700
     63 H13         3.4300   -1.2120    0.1830 hn        1 D31      0.466467
     64 H242        1.3430    3.5050    8.5980 hn        1 D31      0.478800
@<TRIPOS>BOND
     1    1    2 1   
     2    1   32 1   
     3    1   33 1   
     4    1   63 1   
     5    2    3 1   
     6    2   34 1   
     7    2   35 1   
     8    3    4 1   
     9    3    8 1   
    10    3   36 1   
    11    4    5 1   
    12    4   37 1   
    13    4   38 1   
    14    5    6 1   
    15    5   39 1   
    16    5   40 1   
    17    6    7 1   
    18    6    9 1   
    19    7    8 1   
    20    7   41 1   
    21    7   42 1   
    22    8   43 1   
    23    8   44 1   
    24    9   10 1   
    25    9   45 1   
    26    9   46 1   
    27   10   11 1   
    28   10   29 2   
    29   11   12 1   
    30   11   47 1   
    31   11   64 1   
    32   12   13 ar  
    33   12   17 ar  
    34   13   14 ar  
    35   13   48 1   
    36   14   15 ar  
    37   14   49 1   
    38   15   16 ar  
    39   15   50 1   
    40   16   17 ar  
    41   16   18 1   
    42   17   20 1   
    43   18   19 1   
    44   18   31 2   
    45   19   20 1   
    46   19   22 2   
    47   20   30 2   
    48   21   22 1   
    49   21   31 1   
    50   21   51 1   
    51   22   23 1   
    52   23   24 1   
    53   23   28 1   
    54   23   52 1   
    55   24   25 1   
    56   24   53 1   
    57   24   54 1   
    58   25   26 1   
    59   25   55 1   
    60   25   56 1   
    61   26   27 1   
    62   26   57 1   
    63   26   58 1   
    64   27   28 1   
    65   27   59 1   
    66   27   60 1   
    67   28   61 1   
    68   28   62 1   
@<TRIPOS>SUBSTRUCTURE
     1 D31         1 TEMP              0 ****  ****    0 ROOT
