@<TRIPOS>MOLECULE
D31
   63    67     1     0     0
SMALL
bcc


@<TRIPOS>ATOM
      1 N1          6.2100    0.6270    5.8050 n4        1 D31     -0.836600
      2 C2          4.7980    0.2740    6.1190 c3        1 D31      0.100800
      3 C3          3.8680    0.2890    4.8970 c3        1 D31     -0.074700
      4 C6          2.4420    0.2110    5.4340 c3        1 D31     -0.129400
      5 C7          1.3970    0.5300    4.3640 c3        1 D31      0.177300
      6 N8          1.6380    1.7440    3.6120 n3        1 D31     -0.733600
      7 C9          2.9720    1.7960    3.0600 c3        1 D31      0.177300
      8 C10         4.1190    1.5140    4.0320 c3        1 D31     -0.129400
      9 C20         1.0970    2.9580    4.1630 c3        1 D31      0.111800
     10 C21         1.2200    3.1830    5.6840 c         1 D31      0.623100
     11 N24         2.3860    3.7740    6.1650 n         1 D31     -0.484100
     12 C25         2.5650    4.2990    7.4500 ca        1 D31      0.148600
     13 C26         1.4650    4.7420    8.2480 ca        1 D31     -0.155000
     14 C27         1.6690    5.3460    9.4720 ca        1 D31     -0.066000
     15 C28         2.9650    5.5620    9.9870 ca        1 D31     -0.113000
     16 C29         4.0320    5.1220    9.2440 ca        1 D31     -0.062500
     17 C30         3.8510    4.4540    7.9810 ca        1 D31     -0.258600
     18 C31         5.4660    5.1960    9.4890 cc        1 D31      0.376800
     19 C32         6.1680    4.5250    8.3630 cc        1 D31     -0.410900
     20 C33         5.1670    4.0160    7.4370 c         1 D31      0.697300
     21 N34         7.5610    5.3770    9.8740 na        1 D31     -0.026600
     22 C35         7.5250    4.6800    8.6550 cd        1 D31      0.038400
     23 C36         8.7280    4.2520    7.8980 c3        1 D31     -0.014400
     24 C37         9.5660    5.4530    7.4680 c3        1 D31     -0.076400
     25 C38        10.7710    5.0020    6.6680 c3        1 D31     -0.076900
     26 C39        11.6100    4.0070    7.4430 c3        1 D31     -0.083400
     27 C40        10.7810    2.8260    7.9070 c3        1 D31     -0.076900
     28 C41         9.5770    3.2770    8.7080 c3        1 D31     -0.076400
     29 O53         0.2880    2.8600    6.4370 o         1 D31     -0.563100
     30 O54         5.3510    3.2920    6.4410 o         1 D31     -0.689100
     31 N55         6.3510    5.6880   10.3710 nd        1 D31     -0.432800
     32 HN11        6.2550    1.6270    5.5420 hn        1 D31      0.463467
     33 HN12        6.5580    0.0610    5.0290 hn        1 D31      0.463467
     34 H21         4.4400    1.0390    6.8730 hx        1 D31      0.111700
     35 H22         4.7860   -0.7500    6.5900 hx        1 D31      0.111700
     36 H3          4.0600   -0.6300    4.2730 hc        1 D31      0.070700
     37 H61         2.2480   -0.8220    5.8230 hc        1 D31      0.058450
     38 H62         2.3120    0.9250    6.2910 hc        1 D31      0.058450
     39 H71         0.3880    0.6010    4.8620 h1        1 D31      0.074950
     40 H72         1.3650   -0.3150    3.6180 h1        1 D31      0.074950
     41 H91         3.1470    2.8010    2.5840 h1        1 D31      0.074950
     42 H92         3.0030    1.0190    2.2410 h1        1 D31      0.074950
     43 H101        5.0440    1.3580    3.4150 hc        1 D31      0.058450
     44 H102        4.2920    2.4140    4.6780 hc        1 D31      0.058450
     45 H201        1.5200    3.8480    3.6170 h1        1 D31      0.091200
     46 H202       -0.0190    2.9270    3.9690 h1        1 D31      0.091200
     47 H24         3.1670    3.8530    5.5510 hn        1 D31      0.330500
     48 H26         0.4350    4.5940    7.8780 ha        1 D31      0.177000
     49 H27         0.8000    5.6810   10.0620 ha        1 D31      0.157000
     50 H28         3.1050    6.0670   10.9540 ha        1 D31      0.166000
     51 H34         8.3820    5.6700   10.3560 hn        1 D31      0.337700
     52 H36         8.3630    3.7270    6.9690 hc        1 D31      0.059700
     53 H371        8.9380    6.1470    6.8510 hc        1 D31      0.049950
     54 H372        9.9100    6.0180    8.3730 hc        1 D31      0.049950
     55 H381       11.3950    5.8960    6.4070 hc        1 D31      0.045700
     56 H382       10.4300    4.5380    5.7060 hc        1 D31      0.045700
     57 H391       12.0660    4.5150    8.3330 hc        1 D31      0.054700
     58 H392       12.4510    3.6430    6.7980 hc        1 D31      0.054700
     59 H401       11.4140    2.1490    8.5390 hc        1 D31      0.045700
     60 H402       10.4410    2.2350    7.0170 hc        1 D31      0.045700
     61 H411        8.9590    2.3890    9.0010 hc        1 D31      0.049950
     62 H412        9.9240    3.7720    9.6530 hc        1 D31      0.049950
     63 H13         6.7970    0.4790    6.6280 hn        1 D31      0.463467
@<TRIPOS>BOND
     1    1    2 1   
     2    1   32 1   
     3    1   33 1   
     4    1   63 1   
     5    2    3 1   
     6    2   34 1   
     7    2   35 1   
     8    3    4 1   
     9    3    8 1   
    10    3   36 1   
    11    4    5 1   
    12    4   37 1   
    13    4   38 1   
    14    5    6 1   
    15    5   39 1   
    16    5   40 1   
    17    6    7 1   
    18    6    9 1   
    19    7    8 1   
    20    7   41 1   
    21    7   42 1   
    22    8   43 1   
    23    8   44 1   
    24    9   10 1   
    25    9   45 1   
    26    9   46 1   
    27   10   11 1   
    28   10   29 2   
    29   11   12 1   
    30   11   47 1   
    31   12   13 ar  
    32   12   17 ar  
    33   13   14 ar  
    34   13   48 1   
    35   14   15 ar  
    36   14   49 1   
    37   15   16 ar  
    38   15   50 1   
    39   16   17 ar  
    40   16   18 1   
    41   17   20 1   
    42   18   19 1   
    43   18   31 2   
    44   19   20 1   
    45   19   22 2   
    46   20   30 2   
    47   21   22 1   
    48   21   31 1   
    49   21   51 1   
    50   22   23 1   
    51   23   24 1   
    52   23   28 1   
    53   23   52 1   
    54   24   25 1   
    55   24   53 1   
    56   24   54 1   
    57   25   26 1   
    58   25   55 1   
    59   25   56 1   
    60   26   27 1   
    61   26   57 1   
    62   26   58 1   
    63   27   28 1   
    64   27   59 1   
    65   27   60 1   
    66   28   61 1   
    67   28   62 1   
@<TRIPOS>SUBSTRUCTURE
     1 D31         1 TEMP              0 ****  ****    0 ROOT
