@<TRIPOS>MOLECULE
D31
   62    60     1     0     0
SMALL
bcc


@<TRIPOS>ATOM
      1 N1         -4.4200   -4.5280   -7.1630 n3        1 D31     -0.349000
      2 C2         -4.3040   -3.2270   -6.5870 c3        1 D31     -0.075000
      3 C3         -3.5310   -3.3270   -5.2310 c3        1 D31     -0.105000
      4 C6         -2.4060   -2.3140   -5.2350 c3        1 D31     -0.152500
      5 C7         -1.7120   -2.2100   -3.8770 c3        1 D31     -0.066000
      6 N8         -2.6600   -1.9990   -2.7770 n3        1 D31     -0.265000
      7 C9         -3.7730   -2.9980   -2.7690 c3        1 D31     -0.066000
      8 C10        -4.4770   -3.1070   -4.1270 c3        1 D31     -0.152500
      9 C20        -1.9380   -2.0530   -1.4750 c3        1 D31     -0.088000
     10 C21        -2.2240   -0.7840   -0.6880 c2        1 D31      0.310000
     11 N24        -1.2270   -0.2560    0.2370 n         1 D31     -0.310000
     12 C25        -1.5160    0.9350    1.0080 c2        1 D31      0.154000
     13 C26        -2.7930    1.5230    0.9270 c2        1 D31     -0.169000
     14 C27        -3.0490    2.7260    1.5780 c1        1 D31     -0.085000
     15 C28        -2.0450    3.3490    2.3070 c1        1 D31     -0.136000
     16 C29        -0.7640    2.7610    2.3890 c1        1 D31      0.049000
     17 C30        -0.5090    1.5590    1.7400 c1        1 D31     -0.222000
     18 C31         0.5070    3.1740    3.1420 c1        1 D31     -0.009500
     19 C32         1.4720    2.2150    2.9200 c1        1 D31     -0.279000
     20 C33         0.8850    1.1610    2.0560 c1        1 D31      0.371000
     21 N34         2.3480    3.8100    4.1110 n2        1 D31     -0.108000
     22 C35         2.5930    2.6160    3.5180 c1        1 D31     -0.009500
     23 C36         3.9280    1.8820    3.5010 c2        1 D31     -0.062000
     24 C37         4.9840    2.7990    2.9420 c3        1 D31     -0.151000
     25 C38         6.3950    2.2050    3.0530 c3        1 D31     -0.157000
     26 C39         6.7250    1.7270    4.4800 c3        1 D31     -0.158000
     27 C40         5.6610    0.8060    5.0370 c3        1 D31     -0.157000
     28 C41         4.2510    1.4040    4.9240 c3        1 D31     -0.151000
     29 O53        -3.2830   -0.2320   -0.8090 o         1 D31     -0.358000
     30 O54         1.4170    0.0990    1.7520 o         1 D31     -0.311000
     31 N55         1.0520    4.1420    3.8690 n2        1 D31     -0.108000
     32 HN11       -3.8160   -4.6160   -7.8530 hn        1 D31      0.144000
     33 HN12       -5.2970   -4.6490   -7.4950 hn        1 D31      0.144000
     34 H21        -5.2210   -2.8510   -6.4240 h1        1 D31      0.066000
     35 H22        -3.7960   -2.6210   -7.2200 h1        1 D31      0.066000
     36 H3         -3.1560   -4.2120   -5.1500 hc        1 D31      0.084000
     37 H61        -1.7460   -2.5770   -5.9110 hc        1 D31      0.095000
     38 H62        -2.7790   -1.4150   -5.4790 hc        1 D31      0.095000
     39 H71        -1.0670   -1.4380   -3.9030 h1        1 D31      0.073500
     40 H72        -1.2180   -3.0270   -3.7110 h1        1 D31      0.073500
     41 H91        -4.4240   -2.7380   -2.0990 h1        1 D31      0.073500
     42 H92        -3.4180   -3.8540   -2.5380 h1        1 D31      0.073500
     43 H101       -4.9640   -2.2910   -4.2940 hc        1 D31      0.095000
     44 H102       -5.1300   -3.8770   -4.0940 hc        1 D31      0.095000
     45 H201       -0.9820   -2.1270   -1.6350 h1        1 D31      0.105500
     46 H202       -2.2550   -2.8550   -0.9480 h1        1 D31      0.105500
     47 H24        -0.4300   -0.7380    0.3970 hn        1 D31      0.275000
     48 H26        -3.5210    1.0730    0.4000 ha        1 D31      0.178000
     49 H27        -3.9780    3.1530    1.5180 ha        1 D31      0.139000
     50 H28        -2.2240    4.1850    2.7580 ha        1 D31      0.150000
     51 H34         2.9720    4.3300    4.5700 DU        1 D31      0.273000
     52 H36         3.8510    1.1030    2.9190 ha        1 D31      0.132000
     53 H371        4.7890    2.9660    2.0050 hc        1 D31      0.084750
     54 H372        4.9540    3.6540    3.4300 hc        1 D31      0.084750
     55 H381        7.0600    2.8960    2.7800 hc        1 D31      0.085000
     56 H382        6.4620    1.4260    2.4320 hc        1 D31      0.085000
     57 H391        6.8090    2.5140    5.0730 hc        1 D31      0.081000
     58 H392        7.6320    1.2220    4.4610 hc        1 D31      0.081000
     59 H401        5.6860   -0.0450    4.5410 hc        1 D31      0.085000
     60 H402        5.8500    0.6300    5.9640 hc        1 D31      0.085000
     61 H411        4.1770    2.2010    5.5670 hc        1 D31      0.084750
     62 H412        3.5880    0.7180    5.1900 hc        1 D31      0.084750
@<TRIPOS>BOND
     1    1    2 1   
     2    1   32 1   
     3    1   33 1   
     4    2    3 1   
     5    2   34 1   
     6    2   35 1   
     7    3    4 1   
     8    3    8 1   
     9    3   36 1   
    10    4    5 1   
    11    4   37 1   
    12    4   38 1   
    13    5    6 1   
    14    5   39 1   
    15    5   40 1   
    16    6    7 1   
    17    6    9 1   
    18    7    8 1   
    19    7   41 1   
    20    7   42 1   
    21    8   43 1   
    22    8   44 1   
    23    9   10 1   
    24    9   45 1   
    25    9   46 1   
    26   10   11 1   
    27   10   29 1   
    28   11   12 1   
    29   11   47 1   
    30   12   13 1   
    31   12   17 1   
    32   13   14 1   
    33   13   48 1   
    34   14   49 1   
    35   15   16 1   
    36   15   50 1   
    37   17   20 1   
    38   18   19 1   
    39   18   31 1   
    40   19   22 1   
    41   20   30 1   
    42   21   22 1   
    43   21   31 1   
    44   23   24 1   
    45   23   28 1   
    46   23   52 1   
    47   24   25 1   
    48   24   53 1   
    49   24   54 1   
    50   25   26 1   
    51   25   55 1   
    52   25   56 1   
    53   26   27 1   
    54   26   57 1   
    55   26   58 1   
    56   27   28 1   
    57   27   59 1   
    58   27   60 1   
    59   28   61 1   
    60   28   62 1   
@<TRIPOS>SUBSTRUCTURE
     1 D31         1 TEMP              0 ****  ****    0 ROOT
