@<TRIPOS>MOLECULE
D32
   58    60     1     0     0
SMALL
bcc


@<TRIPOS>ATOM
      1 O22         3.3370   -3.5840    1.0950 o         1 D32     -0.823300
      2 C17         3.3180   -3.2990   -0.1280 c         1 D32      0.923600
      3 O21         3.2250   -4.1310   -1.0750 o         1 D32     -0.823300
      4 C14         3.3350   -1.7940   -0.5140 c3        1 D32     -0.011600
      5 O11         4.6700   -1.4770   -0.9400 os        1 D32     -0.301900
      6 C5          4.7890   -0.5620   -1.9500 ca        1 D32      0.200100
      7 C10         3.7990    0.3870   -2.2570 ca        1 D32     -0.235000
      8 C8          3.9730    1.2220   -3.3500 ca        1 D32     -0.024000
      9 C2          5.9980   -0.5980   -2.6880 ca        1 D32     -0.135300
     10 C6          7.0640   -1.5580   -2.3210 c3        1 D32     -0.042800
     11 C1          6.1570    0.2650   -3.7800 ca        1 D32      0.014700
     12 C4          7.4170    0.2020   -4.5610 c3        1 D32     -0.065800
     13 C3          5.1310    1.1620   -4.1330 ca        1 D32     -0.111100
     14 S7          5.2680    2.2570   -5.4240 ss        1 D32     -0.123800
     15 C13         4.7330    1.5620   -6.8780 ca        1 D32     -0.016100
     16 C16         5.0650    2.3580   -7.9860 ca        1 D32     -0.117000
     17 C20         4.6970    2.0100   -9.2790 ca        1 D32     -0.143000
     18 C15         4.0020    0.3760   -7.1200 ca        1 D32      0.133100
     19 O1          3.6480   -0.3630   -6.0140 os        1 D32     -0.308900
     20 C7          3.2130   -1.7180   -6.2750 c3        1 D32      0.234500
     21 C11         3.1690   -2.4090   -5.0190 c1        1 D32     -0.265100
     22 C19         3.1390   -2.9830   -3.9670 c1        1 D32     -0.042500
     23 C18         3.6280    0.0190   -8.4240 ca        1 D32     -0.165000
     24 C23         3.9710    0.8360   -9.5010 ca        1 D32     -0.095300
     25 C24         3.5370    0.4940  -10.8860 c3        1 D32      0.180700
     26 O25         3.7320   -0.9220  -11.0640 os        1 D32     -0.313900
     27 C26         3.4110   -1.4230  -12.3010 ca        1 D32      0.168100
     28 C28         3.6490   -2.8060  -12.4550 ca        1 D32     -0.192500
     29 C30         3.3590   -3.4160  -13.6660 ca        1 D32     -0.047000
     30 C27         2.8840   -0.6690  -13.3590 ca        1 D32     -0.192500
     31 C29         2.5990   -1.2970  -14.5690 ca        1 D32     -0.047000
     32 C31         2.8360   -2.6620  -14.7250 ca        1 D32     -0.217300
     33 C32         2.5420   -3.3340  -16.0550 c3        1 D32      0.693200
     34 F34         3.5930   -3.3230  -16.9430 f         1 D32     -0.242633
     35 F35         2.2000   -4.6620  -15.9690 f         1 D32     -0.242633
     36 F33         1.5090   -2.7720  -16.7680 f         1 D32     -0.242633
     37 H14         2.5970   -1.6300   -1.3390 h1        1 D32      0.031700
     38 H14A        3.1010   -1.1430    0.3650 h1        1 D32      0.031700
     39 H10         2.8860    0.4510   -1.6500 ha        1 D32      0.142000
     40 H8          3.1800    1.9390   -3.6170 ha        1 D32      0.129000
     41 H6          7.9260   -1.0170   -1.8560 hc        1 D32      0.045700
     42 H6A         7.4370   -2.0970   -3.2280 hc        1 D32      0.045700
     43 H6B         6.6850   -2.3170   -1.5900 hc        1 D32      0.045700
     44 H4          7.4890    1.0500   -5.2870 hc        1 D32      0.047033
     45 H4A         7.4610   -0.7610   -5.1320 hc        1 D32      0.047033
     46 H4B         8.3000    0.2400   -3.8750 hc        1 D32      0.047033
     47 H16         5.6410    3.2830   -7.8170 ha        1 D32      0.138000
     48 H20         4.9800    2.6550  -10.1220 ha        1 D32      0.123000
     49 H7          2.1920   -1.6730   -6.7460 h1        1 D32      0.042200
     50 H7A         3.9380   -2.2130   -6.9800 h1        1 D32      0.042200
     51 H19         3.1280   -3.4880   -3.0110 ha        1 D32      0.238500
     52 H18         3.0640   -0.9050   -8.6160 ha        1 D32      0.147000
     53 H24         2.4460    0.7280  -11.0230 h1        1 D32      0.046200
     54 H24A        4.1450    1.0460  -11.6520 h1        1 D32      0.046200
     55 H28         4.0590   -3.3800  -11.6110 ha        1 D32      0.154500
     56 H30         3.5350   -4.4950  -13.7990 ha        1 D32      0.148500
     57 H27         2.6900    0.4070  -13.2500 ha        1 D32      0.154500
     58 H29         2.1810   -0.7140  -15.4060 ha        1 D32      0.148500
@<TRIPOS>BOND
     1    1    2 1   
     2    2    3 1   
     3    2    4 1   
     4    4    5 1   
     5    4   37 1   
     6    4   38 1   
     7    5    6 1   
     8    6    7 ar  
     9    6    9 ar  
    10    7    8 ar  
    11    7   39 1   
    12    8   13 ar  
    13    8   40 1   
    14    9   10 1   
    15    9   11 ar  
    16   10   41 1   
    17   10   42 1   
    18   10   43 1   
    19   11   12 1   
    20   11   13 ar  
    21   12   44 1   
    22   12   45 1   
    23   12   46 1   
    24   13   14 1   
    25   14   15 1   
    26   15   16 ar  
    27   15   18 ar  
    28   16   17 ar  
    29   16   47 1   
    30   17   24 ar  
    31   17   48 1   
    32   18   19 1   
    33   18   23 ar  
    34   19   20 1   
    35   20   21 1   
    36   20   49 1   
    37   20   50 1   
    38   21   22 3   
    39   22   51 1   
    40   23   24 ar  
    41   23   52 1   
    42   24   25 1   
    43   25   26 1   
    44   25   53 1   
    45   25   54 1   
    46   26   27 1   
    47   27   28 ar  
    48   27   30 ar  
    49   28   29 ar  
    50   28   55 1   
    51   29   32 ar  
    52   29   56 1   
    53   30   31 ar  
    54   30   57 1   
    55   31   32 ar  
    56   31   58 1   
    57   32   33 1   
    58   33   34 1   
    59   33   35 1   
    60   33   36 1   
@<TRIPOS>SUBSTRUCTURE
     1 D32         1 TEMP              0 ****  ****    0 ROOT
