@<TRIPOS>MOLECULE
D32
   58    53     1     0     0
SMALL
bcc


@<TRIPOS>ATOM
      1 O22        -1.8240    5.8530    7.2190 o         1 D32     -0.548500
      2 C17        -2.2640    5.0810    6.3260 c2        1 D32      0.346000
      3 O21        -3.4970    4.8340    6.2580 o         1 D32     -0.548500
      4 C14        -1.3150    4.4870    5.3070 c3        1 D32     -0.118000
      5 O11        -1.0430    3.1450    5.6440 os        1 D32     -0.159000
      6 C5         -0.2230    2.4790    4.7150 c2        1 D32      0.163000
      7 C10        -0.7540    2.0400    3.5110 c1        1 D32     -0.247000
      8 C8          0.0510    1.3720    2.6000 c1        1 D32     -0.035000
      9 C2          1.1120    2.2490    5.0080 c2        1 D32     -0.137000
     10 C6          1.6730    2.6610    6.3540 c3        1 D32     -0.171000
     11 C1          1.9170    1.5810    4.0970 c1        1 D32      0.019000
     12 C4          3.3830    1.3670    4.3980 c2        1 D32     -0.191000
     13 C3          1.3860    1.1430    2.8930 c2        1 D32     -0.383000
     14 S7          2.4060    0.2440    1.7440 ss        1 D32      0.362000
     15 C13         1.4460   -0.1920    0.3130 c2        1 D32     -0.249000
     16 C16         0.8900    0.8020   -0.4770 c2        1 D32     -0.128000
     17 C20         0.0940    0.4630   -1.5620 c1        1 D32     -0.111000
     18 C15         1.2060   -1.5260    0.0190 c1        1 D32      0.034000
     19 O1          1.8400   -2.5340    0.7670 o         1 D32     -0.214000
     20 C7          2.9840   -3.0730    0.1440 c3        1 D32      0.070000
     21 C11         3.7810   -3.8680    1.1540 c1        1 D32     -0.156000
     22 C19         4.4090   -4.4930    1.9500 c1        1 D32     -0.202000
     23 C18         0.4100   -1.8660   -1.0660 c2        1 D32     -0.096000
     24 C23        -0.1460   -0.8710   -1.8560 c1        1 D32     -0.111000
     25 C24        -1.1310   -1.2390   -2.9550 c3        1 D32      0.023000
     26 O25        -0.4510   -1.3170   -4.1900 os        1 D32     -0.199000
     27 C26        -1.2860   -1.6360   -5.2830 c2        1 D32      0.123000
     28 C28        -1.9060   -0.6240   -6.0000 c2        1 D32     -0.217000
     29 C30        -2.7330   -0.9380   -7.0690 c1        1 D32     -0.042000
     30 C27        -1.4920   -2.9620   -5.6350 c1        1 D32     -0.166000
     31 C29        -2.3180   -3.2750   -6.7030 c1        1 D32     -0.051000
     32 C31        -2.9390   -2.2630   -7.4200 c1        1 D32     -0.209000
     33 C32        -3.8770   -2.6070   -8.5590 c3        1 D32      0.472000
     34 F34        -4.4520   -3.7930   -8.3210 f         1 D32     -0.171000
     35 F35        -4.8220   -1.6640   -8.6590 f         1 D32     -0.171000
     36 F33        -3.1840   -2.6690   -9.7040 f         1 D32     -0.171000
     37 H14        -0.4800    4.9980    5.3010 h1        1 D32      0.066000
     38 H14A       -1.7260    4.5230    4.4180 h1        1 D32      0.066000
     39 H10        -1.6950    2.2020    3.3050 ha        1 D32      0.150000
     40 H8         -0.3290    1.0420    1.7640 ha        1 D32      0.132000
     41 H6          2.3320    3.3760    6.2280 hc        1 D32      0.087667
     42 H6A         2.1050    1.8900    6.7780 hc        1 D32      0.087667
     43 H6B         0.9460    2.9840    6.9260 hc        1 D32      0.087667
     44 H4          3.4740    0.7730    5.1720 ha        1 D32      0.086000
     45 H4A         3.8210    0.9610    3.6220 ha        1 D32      0.086000
     46 H4B         3.8050    2.2300    4.5970 ha        1 D32      0.086000
     47 H16         1.0830    1.7400   -0.2880 ha        1 D32      0.159000
     48 H20        -0.2970    1.1630   -2.1180 ha        1 D32      0.133000
     49 H7          2.7090   -3.6610   -0.5900 h1        1 D32      0.105000
     50 H7A         3.5370   -2.3460   -0.2090 h1        1 D32      0.105000
     51 H19         4.9230   -5.0060    2.6020 DU        1 D32      0.219000
     52 H18         0.2420   -2.8050   -1.2730 ha        1 D32      0.153000
     53 H24        -1.5380   -2.1060   -2.7510 h1        1 D32      0.088000
     54 H24A       -1.8290   -0.5550   -3.0090 h1        1 D32      0.088000
     55 H28        -1.7430    0.3090   -5.7680 ha        1 D32      0.148000
     56 H30        -3.1810   -0.2260   -7.5640 ha        1 D32      0.148000
     57 H27        -1.0390   -3.6720   -5.1440 ha        1 D32      0.161000
     58 H29        -2.4530   -4.2080   -6.9590 ha        1 D32      0.149000
@<TRIPOS>BOND
     1    1    2 1   
     2    2    3 1   
     3    2    4 1   
     4    4    5 1   
     5    4   37 1   
     6    4   38 1   
     7    5    6 1   
     8    6    7 1   
     9    6    9 1   
    10    7   39 1   
    11    8   13 1   
    12    8   40 1   
    13    9   10 1   
    14    9   11 1   
    15   10   41 1   
    16   10   42 1   
    17   10   43 1   
    18   11   13 1   
    19   12   44 1   
    20   12   45 1   
    21   12   46 1   
    22   13   14 1   
    23   14   15 1   
    24   15   16 1   
    25   15   18 1   
    26   16   17 1   
    27   16   47 1   
    28   17   48 1   
    29   18   23 1   
    30   19   20 1   
    31   20   21 1   
    32   20   49 1   
    33   20   50 1   
    34   21   22 1   
    35   23   24 1   
    36   23   52 1   
    37   24   25 1   
    38   25   26 1   
    39   25   53 1   
    40   25   54 1   
    41   26   27 1   
    42   27   28 1   
    43   27   30 1   
    44   28   29 1   
    45   28   55 1   
    46   29   56 1   
    47   30   57 1   
    48   31   32 1   
    49   31   58 1   
    50   32   33 1   
    51   33   34 1   
    52   33   35 1   
    53   33   36 1   
@<TRIPOS>SUBSTRUCTURE
     1 D32         1 TEMP              0 ****  ****    0 ROOT
