@<TRIPOS>MOLECULE
D32
   58    60     1     0     0
SMALL
bcc


@<TRIPOS>ATOM
      1 O22         6.1250   -1.4710   -3.8880 o         1 D32     -0.823300
      2 C17         7.1350   -1.6350   -3.1470 c         1 D32      0.923600
      3 O21         8.3140   -1.8030   -3.5460 o         1 D32     -0.823300
      4 C14         6.8800   -1.7110   -1.6150 c3        1 D32     -0.011600
      5 O11         6.7350   -0.3630   -1.1390 os        1 D32     -0.301900
      6 C5          5.8410   -0.1660   -0.1240 ca        1 D32      0.200100
      7 C10         5.4310   -1.1810    0.7580 ca        1 D32     -0.235000
      8 C8          4.4590   -0.9070    1.7080 ca        1 D32     -0.024000
      9 C2          5.3380    1.1510    0.0210 ca        1 D32     -0.135300
     10 C6          5.8190    2.2320   -0.8710 c3        1 D32     -0.042800
     11 C1          4.3670    1.4070    0.9980 ca        1 D32      0.014700
     12 C4          3.8290    2.7850    1.1240 c3        1 D32     -0.065800
     13 C3          3.9020    0.3700    1.8280 ca        1 D32     -0.111100
     14 S7          2.7500    0.6150    3.0520 ss        1 D32     -0.123800
     15 C13         1.1720    0.4220    2.4570 ca        1 D32     -0.016100
     16 C16         0.2100    0.8580    3.3830 ca        1 D32     -0.116000
     17 C20        -1.1510    0.7620    3.1310 ca        1 D32     -0.144000
     18 C15         0.7050   -0.1250    1.2390 ca        1 D32      0.133100
     19 O1          1.6640   -0.5890    0.3670 os        1 D32     -0.308900
     20 C7          1.2210   -0.8240   -0.9900 c3        1 D32      0.234500
     21 C11         2.3880   -1.0160   -1.8010 c1        1 D32     -0.265100
     22 C19         3.3670   -1.1690   -2.4750 c1        1 D32     -0.042500
     23 C18        -0.6700   -0.2250    0.9790 ca        1 D32     -0.165000
     24 C23        -1.5970    0.2150    1.9230 ca        1 D32     -0.095300
     25 C24        -3.0600    0.0700    1.6810 c3        1 D32      0.180700
     26 O25        -3.3110    0.4360    0.3100 os        1 D32     -0.313900
     27 C26        -4.6220    0.3900   -0.0950 ca        1 D32      0.168100
     28 C28        -4.8380    0.7890   -1.4320 ca        1 D32     -0.192500
     29 C30        -6.1260    0.7800   -1.9450 ca        1 D32     -0.047000
     30 C27        -5.6960   -0.0140    0.7110 ca        1 D32     -0.192500
     31 C29        -6.9840   -0.0160    0.1800 ca        1 D32     -0.047000
     32 C31        -7.2000    0.3800   -1.1400 ca        1 D32     -0.217300
     33 C32        -8.6110    0.3940   -1.7030 c3        1 D32      0.693200
     34 F34        -9.2850    1.5790   -1.5200 f         1 D32     -0.242633
     35 F35        -8.6940    0.1760   -3.0580 f         1 D32     -0.242633
     36 F33        -9.4560   -0.5470   -1.1640 f         1 D32     -0.242633
     37 H14         5.9490   -2.3060   -1.4400 h1        1 D32      0.031700
     38 H14A        7.7490   -2.1640   -1.0770 h1        1 D32      0.031700
     39 H10         5.8620   -2.1890    0.6790 ha        1 D32      0.142000
     40 H8          4.1080   -1.7120    2.3730 ha        1 D32      0.129000
     41 H6          4.9570    2.8130   -1.2830 hc        1 D32      0.045700
     42 H6A         6.4770    2.9360   -0.3020 hc        1 D32      0.045700
     43 H6B         6.4040    1.8130   -1.7280 hc        1 D32      0.045700
     44 H4          3.2020    3.0310    0.2290 hc        1 D32      0.047033
     45 H4A         3.1990    2.8930    2.0420 hc        1 D32      0.047033
     46 H4B         4.6680    3.5240    1.1750 hc        1 D32      0.047033
     47 H16         0.5560    1.2950    4.3350 ha        1 D32      0.138000
     48 H20        -1.8740    1.1200    3.8780 ha        1 D32      0.123000
     49 H7          0.5740   -1.7460   -0.9910 h1        1 D32      0.042200
     50 H7A         0.6250    0.0610   -1.3460 h1        1 D32      0.042200
     51 H19         4.2610   -1.2940   -3.0700 ha        1 D32      0.238500
     52 H18        -1.0360   -0.6450    0.0300 ha        1 D32      0.147000
     53 H24        -3.3790   -0.9970    1.8330 h1        1 D32      0.046200
     54 H24A       -3.6540    0.7450    2.3540 h1        1 D32      0.046200
     55 H28        -3.9800    1.0990   -2.0470 ha        1 D32      0.154500
     56 H30        -6.3090    1.0840   -2.9880 ha        1 D32      0.148500
     57 H27        -5.5400   -0.3310    1.7510 ha        1 D32      0.154500
     58 H29        -7.8350   -0.3360    0.8020 ha        1 D32      0.148500
@<TRIPOS>BOND
     1    1    2 1   
     2    2    3 1   
     3    2    4 1   
     4    4    5 1   
     5    4   37 1   
     6    4   38 1   
     7    5    6 1   
     8    6    7 ar  
     9    6    9 ar  
    10    7    8 ar  
    11    7   39 1   
    12    8   13 ar  
    13    8   40 1   
    14    9   10 1   
    15    9   11 ar  
    16   10   41 1   
    17   10   42 1   
    18   10   43 1   
    19   11   12 1   
    20   11   13 ar  
    21   12   44 1   
    22   12   45 1   
    23   12   46 1   
    24   13   14 1   
    25   14   15 1   
    26   15   16 ar  
    27   15   18 ar  
    28   16   17 ar  
    29   16   47 1   
    30   17   24 ar  
    31   17   48 1   
    32   18   19 1   
    33   18   23 ar  
    34   19   20 1   
    35   20   21 1   
    36   20   49 1   
    37   20   50 1   
    38   21   22 3   
    39   22   51 1   
    40   23   24 ar  
    41   23   52 1   
    42   24   25 1   
    43   25   26 1   
    44   25   53 1   
    45   25   54 1   
    46   26   27 1   
    47   27   28 ar  
    48   27   30 ar  
    49   28   29 ar  
    50   28   55 1   
    51   29   32 ar  
    52   29   56 1   
    53   30   31 ar  
    54   30   57 1   
    55   31   32 ar  
    56   31   58 1   
    57   32   33 1   
    58   33   34 1   
    59   33   35 1   
    60   33   36 1   
@<TRIPOS>SUBSTRUCTURE
     1 D32         1 TEMP              0 ****  ****    0 ROOT
