@<TRIPOS>MOLECULE
D32
   58    60     1     0     0
SMALL
bcc


@<TRIPOS>ATOM
      1 O22         3.1980   -3.5340    1.0940 o         1 D32     -0.823300
      2 C17         3.2000   -3.2550   -0.1310 c         1 D32      0.923600
      3 O21         3.1120   -4.0910   -1.0740 o         1 D32     -0.823300
      4 C14         3.2370   -1.7520   -0.5230 c3        1 D32     -0.011600
      5 O11         4.5810   -1.4500   -0.9320 os        1 D32     -0.301900
      6 C5          4.7230   -0.5420   -1.9440 ca        1 D32      0.200100
      7 C10         3.7470    0.4150   -2.2710 ca        1 D32     -0.235000
      8 C8          3.9440    1.2440   -3.3650 ca        1 D32     -0.024000
      9 C2          5.9420   -0.5930   -2.6650 ca        1 D32     -0.135300
     10 C6          6.9930   -1.5620   -2.2780 c3        1 D32     -0.042800
     11 C1          6.1250    0.2630   -3.7590 ca        1 D32      0.014700
     12 C4          7.3950    0.1830   -4.5220 c3        1 D32     -0.065800
     13 C3          5.1120    1.1670   -4.1310 ca        1 D32     -0.111100
     14 S7          5.2780    2.2550   -5.4250 ss        1 D32     -0.123800
     15 C13         4.7570    1.5580   -6.8830 ca        1 D32     -0.016100
     16 C16         5.1130    2.3450   -7.9910 ca        1 D32     -0.116000
     17 C20         4.7590    1.9940   -9.2860 ca        1 D32     -0.144000
     18 C15         4.0170    0.3790   -7.1300 ca        1 D32      0.133100
     19 O1          3.6400   -0.3510   -6.0250 os        1 D32     -0.308900
     20 C7          3.1960   -1.7030   -6.2850 c3        1 D32      0.234500
     21 C11         3.1270   -2.3870   -5.0270 c1        1 D32     -0.265100
     22 C19         3.0770   -2.9560   -3.9730 c1        1 D32     -0.042500
     23 C18         3.6570    0.0190   -8.4370 ca        1 D32     -0.165000
     24 C23         4.0240    0.8260   -9.5130 ca        1 D32     -0.095300
     25 C24         3.6060    0.4820  -10.9020 c3        1 D32      0.180700
     26 O25         3.7820   -0.9380  -11.0680 os        1 D32     -0.313900
     27 C26         3.4700   -1.4410  -12.3070 ca        1 D32      0.168100
     28 C28         3.6870   -2.8290  -12.4480 ca        1 D32     -0.192500
     29 C30         3.4050   -3.4420  -13.6600 ca        1 D32     -0.047000
     30 C27         2.9710   -0.6850  -13.3780 ca        1 D32     -0.192500
     31 C29         2.6940   -1.3170  -14.5880 ca        1 D32     -0.047000
     32 C31         2.9100   -2.6870  -14.7310 ca        1 D32     -0.217300
     33 C32         2.6240   -3.3630  -16.0610 c3        1 D32      0.693200
     34 F34         3.6880   -3.3760  -16.9330 f         1 D32     -0.242633
     35 F35         2.2580   -4.6840  -15.9710 f         1 D32     -0.242633
     36 F33         1.6110   -2.7880  -16.7930 f         1 D32     -0.242633
     37 H14         2.5120   -1.5860   -1.3590 h1        1 D32      0.031700
     38 H14A        2.9970   -1.0940    0.3490 h1        1 D32      0.031700
     39 H10         2.8260    0.4910   -1.6770 ha        1 D32      0.142000
     40 H8          3.1620    1.9660   -3.6470 ha        1 D32      0.129000
     41 H6          7.8540   -1.0270   -1.8040 hc        1 D32      0.045700
     42 H6A         7.3730   -2.1090   -3.1770 hc        1 D32      0.045700
     43 H6B         6.5960   -2.3140   -1.5490 hc        1 D32      0.045700
     44 H4          7.4860    1.0270   -5.2510 hc        1 D32      0.047033
     45 H4A         7.4380   -0.7830   -5.0870 hc        1 D32      0.047033
     46 H4B         8.2680    0.2160   -3.8230 hc        1 D32      0.047033
     47 H16         5.6970    3.2650   -7.8180 ha        1 D32      0.138000
     48 H20         5.0610    2.6320  -10.1290 ha        1 D32      0.123000
     49 H7          2.1810   -1.6500   -6.7710 h1        1 D32      0.042200
     50 H7A         3.9250   -2.2090   -6.9780 h1        1 D32      0.042200
     51 H19         3.0480   -3.4560   -3.0150 ha        1 D32      0.238500
     52 H18         3.0870   -0.9000   -8.6320 ha        1 D32      0.147000
     53 H24         2.5220    0.7320  -11.0570 h1        1 D32      0.046200
     54 H24A        4.2340    1.0200  -11.6620 h1        1 D32      0.046200
     55 H28         4.0760   -3.4040  -11.5950 ha        1 D32      0.154500
     56 H30         3.5650   -4.5250  -13.7830 ha        1 D32      0.148500
     57 H27         2.7940    0.3940  -13.2780 ha        1 D32      0.154500
     58 H29         2.2970   -0.7330  -15.4340 ha        1 D32      0.148500
@<TRIPOS>BOND
     1    1    2 1   
     2    2    3 1   
     3    2    4 1   
     4    4    5 1   
     5    4   37 1   
     6    4   38 1   
     7    5    6 1   
     8    6    7 ar  
     9    6    9 ar  
    10    7    8 ar  
    11    7   39 1   
    12    8   13 ar  
    13    8   40 1   
    14    9   10 1   
    15    9   11 ar  
    16   10   41 1   
    17   10   42 1   
    18   10   43 1   
    19   11   12 1   
    20   11   13 ar  
    21   12   44 1   
    22   12   45 1   
    23   12   46 1   
    24   13   14 1   
    25   14   15 1   
    26   15   16 ar  
    27   15   18 ar  
    28   16   17 ar  
    29   16   47 1   
    30   17   24 ar  
    31   17   48 1   
    32   18   19 1   
    33   18   23 ar  
    34   19   20 1   
    35   20   21 1   
    36   20   49 1   
    37   20   50 1   
    38   21   22 3   
    39   22   51 1   
    40   23   24 ar  
    41   23   52 1   
    42   24   25 1   
    43   25   26 1   
    44   25   53 1   
    45   25   54 1   
    46   26   27 1   
    47   27   28 ar  
    48   27   30 ar  
    49   28   29 ar  
    50   28   55 1   
    51   29   32 ar  
    52   29   56 1   
    53   30   31 ar  
    54   30   57 1   
    55   31   32 ar  
    56   31   58 1   
    57   32   33 1   
    58   33   34 1   
    59   33   35 1   
    60   33   36 1   
@<TRIPOS>SUBSTRUCTURE
     1 D32         1 TEMP              0 ****  ****    0 ROOT
