@<TRIPOS>MOLECULE
D33
   28    29     1     0     0
SMALL
bcc


@<TRIPOS>ATOM
      1 C4         -4.8330    1.5640   -0.4840 cc        1 D33      0.259200
      2 C5         -4.5390    0.3710    0.2030 cd        1 D33     -0.290600
      3 C2         -2.6490    1.4170   -0.4010 cd        1 D33      0.431400
      4 N1         -3.1470    0.2820    0.2480 na        1 D33     -0.201900
      5 P           3.0090   -0.4370   -0.8820 p5        1 D33      1.332900
      6 OP1         2.2160   -1.7140   -1.0870 o         1 D33     -0.931833
      7 OP2         2.7130    0.6360   -1.8890 o         1 D33     -0.931833
      8 O5'         2.1560    0.1550    0.5220 os        1 D33     -0.556200
      9 C5'         0.8260    0.3830    0.3050 c3        1 D33      0.229400
     10 C4'        -0.0240   -0.7770    0.8790 c3        1 D33      0.057100
     11 O4'        -1.2240   -0.2490    1.5030 os        1 D33     -0.435600
     12 C1'        -2.3940   -0.7830    0.9030 c3        1 D33      0.251800
     13 N3         -3.6540    2.2070   -0.8530 nc        1 D33     -0.715000
     14 C2'        -1.9790   -1.9380   -0.0330 c3        1 D33     -0.130400
     15 C3'        -0.4550   -1.8120   -0.1780 c3        1 D33      0.159100
     16 O3'         0.1230   -3.0740    0.0750 oh        1 D33     -0.676800
     17 H15'        0.5060    1.3220    0.8490 h1        1 D33     -0.003300
     18 H25'        0.6090    0.5090   -0.7940 h1        1 D33     -0.003300
     19 H4'         0.5420   -1.2770    1.7110 h1        1 D33      0.079700
     20 H1'        -3.0490   -1.1510    1.7490 h2        1 D33      0.041700
     21 H55        -5.1850   -0.3850    0.6380 h4        1 D33      0.153000
     22 H22        -1.5650    1.5960   -0.5000 h5        1 D33      0.100100
     23 H44        -5.8080    1.9780   -0.7260 h4        1 D33      0.010100
     24 H22'       -2.2440   -2.9110    0.4490 hc        1 D33      0.049200
     25 H12'       -2.4780   -1.8890   -1.0280 hc        1 D33      0.049200
     26 H3'        -0.1660   -1.4700   -1.2110 h1        1 D33      0.103700
     27 HO3'        1.0580   -2.9910   -0.2260 ho        1 D33      0.501000
     28 OP3         4.4170   -0.5870   -0.3980 o         1 D33     -0.931833
@<TRIPOS>BOND
     1    1    2 2   
     2    1   13 1   
     3    1   23 1   
     4    2    4 1   
     5    2   21 1   
     6    3    4 1   
     7    3   13 2   
     8    3   22 1   
     9    4   12 1   
    10    5    6 1   
    11    5    7 1   
    12    5    8 1   
    13    5   28 1   
    14    8    9 1   
    15    9   10 1   
    16    9   17 1   
    17    9   18 1   
    18   10   11 1   
    19   10   15 1   
    20   10   19 1   
    21   11   12 1   
    22   12   14 1   
    23   12   20 1   
    24   14   15 1   
    25   14   24 1   
    26   14   25 1   
    27   15   16 1   
    28   15   26 1   
    29   16   27 1   
@<TRIPOS>SUBSTRUCTURE
     1 D33         1 TEMP              0 ****  ****    0 ROOT
