@<TRIPOS>MOLECULE
D33
   28    24     1     0     0
SMALL
bcc


@<TRIPOS>ATOM
      1 C4         -3.4550   -0.5370   -2.6530 c1        1 D33     -0.214500
      2 C5         -2.0880   -0.6000   -2.6730 c1        1 D33     -0.214500
      3 C2         -2.7380   -0.5360   -0.6130 c1        1 D33     -0.039000
      4 N1         -1.6610   -0.5980   -1.4200 n2        1 D33     -0.190000
      5 P           1.2870    2.1110    3.6880 p3        1 D33      2.528000
      6 OP1         1.4000    3.4400    2.9430 o         1 D33     -1.246333
      7 OP2        -0.1280    1.9510    4.2290 o         1 D33     -1.246333
      8 O5'         1.6100    0.9150    2.6910 o         1 D33     -0.731000
      9 C5'         0.8910    0.8390    1.4600 c3        1 D33      0.069000
     10 C4'         1.1170   -0.5570    0.8150 c3        1 D33     -0.045000
     11 O4'        -0.2450   -1.2190    0.4710 os        1 D33     -0.302000
     12 C1'        -0.3640   -1.1370   -1.0490 c2        1 D33      0.165000
     13 N3         -3.8430   -0.4990   -1.3910 n2        1 D33     -0.190000
     14 C2'         0.5900   -0.3230   -1.4230 c3        1 D33     -0.195000
     15 C3'         1.7260   -0.4310   -0.3130 c3        1 D33     -0.002000
     16 O3'         2.5700   -1.6130   -0.5670 oh        1 D33     -0.392000
     17 H15'        1.2130    1.5380    0.8470 h1        1 D33      0.039500
     18 H25'       -0.0870    0.9720    1.6340 h1        1 D33      0.039500
     19 H4'         1.6250   -1.1240    1.4090 h1        1 D33      0.085000
     20 H1'        -0.2360   -2.0100   -1.4460 h4        1 D33      0.077000
     21 H55        -1.5290   -0.6370   -3.4680 DU        1 D33      0.200333
     22 H22        -2.7220   -0.5210    0.3580 DU        1 D33      0.200333
     23 H44        -4.0460   -0.5240   -3.4410 DU        1 D33      0.200333
     24 H22'        0.2560    0.5800   -1.4700 hc        1 D33      0.086500
     25 H12'        0.9460   -0.5970   -2.2950 hc        1 D33      0.086500
     26 H3'         2.2770    0.3860   -0.3110 h1        1 D33      0.196000
     27 HO3'        3.3440   -1.3580   -0.8690 ho        1 D33      0.283000
     28 OP3         2.2910    2.0900    4.8590 o         1 D33     -1.246333
@<TRIPOS>BOND
     1    1    2 1   
     2    1   13 1   
     3    2    4 1   
     4    3    4 1   
     5    3   13 1   
     6    5    6 1   
     7    5    7 1   
     8    5   28 1   
     9    8    9 1   
    10    9   10 1   
    11    9   17 1   
    12    9   18 1   
    13   10   11 1   
    14   10   15 1   
    15   10   19 1   
    16   11   12 1   
    17   12   14 1   
    18   12   20 1   
    19   14   15 1   
    20   14   24 1   
    21   14   25 1   
    22   15   16 1   
    23   15   26 1   
    24   16   27 1   
@<TRIPOS>SUBSTRUCTURE
     1 D33         1 TEMP              0 ****  ****    0 ROOT
