@<TRIPOS>MOLECULE
D34
   67    71     1     0     0
SMALL
bcc


@<TRIPOS>ATOM
      1 C7          1.4700    0.1820   -0.1120 c3        1 D34      0.412000
      2 N2          0.6240   -0.6870   -1.0250 n4        1 D34     -0.779500
      3 N1          0.7990    0.4760    1.2220 n4        1 D34     -0.867100
      4 C8          0.2060   -1.9870   -0.4200 cy        1 D34      0.023000
      5 C9         -1.0970   -1.9770    0.4360 cy        1 D34     -0.101650
      6 C10        -1.7310   -3.0100   -0.5190 cy        1 D34     -0.072400
      7 C11        -0.4780   -2.9870   -1.4150 cy        1 D34     -0.101650
      8 C1          2.5670    3.8680   -2.0690 ca        1 D34     -0.024000
      9 C2          3.5480    2.9550   -1.6470 ca        1 D34     -0.096750
     10 C3          3.1880    1.7670   -1.0150 ca        1 D34     -0.080000
     11 C4          1.8360    1.4690   -0.7910 ca        1 D34     -0.274300
     12 C5          0.8470    2.3760   -1.2070 ca        1 D34     -0.080000
     13 C6          1.2070    3.5580   -1.8370 ca        1 D34     -0.096750
     14 CA          2.8910    5.1040   -2.7320 cc        1 D34      0.277700
     15 O1          4.2430    5.4360   -2.9400 os        1 D34     -0.349800
     16 CB          2.0710    6.1030   -3.2480 cd        1 D34     -0.172300
     17 CB'         2.9320    7.1060   -3.8070 cd        1 D34     -0.172300
     18 CA'         4.2410    6.6760   -3.6060 cc        1 D34      0.277700
     19 C1'         5.4940    7.2910   -3.9620 ca        1 D34     -0.024000
     20 C2'         6.7410    6.7410   -3.6050 ca        1 D34     -0.096750
     21 C3'         7.9230    7.3780   -3.9630 ca        1 D34     -0.080000
     22 C4'         7.8870    8.5800   -4.6910 ca        1 D34     -0.274300
     23 C5'         6.6500    9.1330   -5.0550 ca        1 D34     -0.080000
     24 C6'         5.4690    8.4950   -4.6940 ca        1 D34     -0.096750
     25 C7'         9.1350    9.3060   -5.0990 c3        1 D34      0.412000
     26 N2'         9.9280    9.7510   -3.8840 n4        1 D34     -0.779500
     27 N1'         9.9430    8.4550   -6.0660 n4        1 D34     -0.867100
     28 C8'        11.1630   10.5230   -4.2130 cy        1 D34      0.023000
     29 C9'        11.8770   11.1810   -2.9830 cy        1 D34     -0.101650
     30 CAX        13.1630   10.4040   -3.3220 cy        1 D34     -0.072400
     31 CBX        12.4540    9.6970   -4.4980 cy        1 D34     -0.101650
     32 H77         2.4050   -0.4300    0.1370 hx        1 D34      0.166700
     33 HN2         1.2090   -0.8850   -1.8570 hn        1 D34      0.482550
     34 HN1         1.5100    0.9090    1.8350 hn        1 D34      0.489467
     35 HN2A        0.4420   -0.3800    1.6730 hn        1 D34      0.489467
     36 H8          1.0940   -2.4380    0.0980 hx        1 D34      0.126200
     37 H91        -0.9350   -2.3630    1.4690 hc        1 D34      0.095825
     38 H92        -1.6460   -1.0110    0.4670 hc        1 D34      0.095825
     39 H01        -2.6610   -2.6600   -1.0200 hc        1 D34      0.114700
     40 H02        -1.9270   -4.0000   -0.0440 hc        1 D34      0.114700
     41 H11         0.0700   -3.9560   -1.4750 hc        1 D34      0.095825
     42 H12        -0.6550   -2.5960   -2.4410 hc        1 D34      0.095825
     43 H3          3.9820    1.0680   -0.6970 ha        1 D34      0.151750
     44 H5         -0.2240    2.1690   -1.0450 ha        1 D34      0.151750
     45 H6          0.4200    4.2640   -2.1590 ha        1 D34      0.184500
     46 HB          0.9800    6.1440   -3.2440 ha        1 D34      0.197000
     47 HB'         2.5950    8.0250   -4.2900 ha        1 D34      0.197000
     48 H2'         6.7730    5.7970   -3.0330 ha        1 D34      0.184500
     49 H3'         8.8810    6.9240   -3.6640 ha        1 D34      0.151750
     50 H5'         6.5940   10.0760   -5.6280 ha        1 D34      0.151750
     51 H6'         4.5030    8.9450   -4.9890 ha        1 D34      0.184500
     52 H7B         8.8740   10.2630   -5.6740 hx        1 D34      0.166700
     53 HN2'       10.1650    8.9460   -3.2890 hn        1 D34      0.482550
     54 HN'1        9.3850    8.3630   -6.9330 hn        1 D34      0.489467
     55 HN'2       10.0980    7.5110   -5.6880 hn        1 D34      0.489467
     56 H8'        10.9110   11.2710   -5.0110 hx        1 D34      0.126200
     57 H9'1       11.9600   12.2880   -3.0910 hc        1 D34      0.095825
     58 H9'2       11.4420   10.9380   -1.9900 hc        1 D34      0.095825
     59 H0'1       14.0130   11.0530   -3.6360 hc        1 D34      0.114700
     60 H0'2       13.5100    9.7170   -2.5180 hc        1 D34      0.114700
     61 H1'1       12.9010    9.9270   -5.4920 hc        1 D34      0.095825
     62 H1'2       12.3620    8.5980   -4.3600 hc        1 D34      0.095825
     63 H22        -0.2060   -0.1710   -1.3510 hn        1 D34      0.482550
     64 H13         0.0280    1.1480    1.1080 hn        1 D34      0.489467
     65 H2'2        9.2950   10.3640   -3.3380 hn        1 D34      0.482550
     66 H1'3       10.8500    8.8860   -6.2960 hn        1 D34      0.489467
     67 H2          4.6140    3.1820   -1.8210 ha        1 D34      0.184500
@<TRIPOS>BOND
     1    1    2 1   
     2    1    3 1   
     3    1   11 1   
     4    1   32 1   
     5    2    4 1   
     6    2   33 1   
     7    2   63 1   
     8    3   34 1   
     9    3   35 1   
    10    3   64 1   
    11    4    5 1   
    12    4    7 1   
    13    4   36 1   
    14    5    6 1   
    15    5   37 1   
    16    5   38 1   
    17    6    7 1   
    18    6   39 1   
    19    6   40 1   
    20    7   41 1   
    21    7   42 1   
    22    8    9 ar  
    23    8   13 ar  
    24    8   14 1   
    25    9   10 ar  
    26    9   67 1   
    27   10   11 ar  
    28   10   43 1   
    29   11   12 ar  
    30   12   13 ar  
    31   12   44 1   
    32   13   45 1   
    33   14   15 1   
    34   14   16 2   
    35   15   18 1   
    36   16   17 1   
    37   16   46 1   
    38   17   18 2   
    39   17   47 1   
    40   18   19 1   
    41   19   20 ar  
    42   19   24 ar  
    43   20   21 ar  
    44   20   48 1   
    45   21   22 ar  
    46   21   49 1   
    47   22   23 ar  
    48   22   25 1   
    49   23   24 ar  
    50   23   50 1   
    51   24   51 1   
    52   25   26 1   
    53   25   27 1   
    54   25   52 1   
    55   26   28 1   
    56   26   53 1   
    57   26   65 1   
    58   27   54 1   
    59   27   55 1   
    60   27   66 1   
    61   28   29 1   
    62   28   31 1   
    63   28   56 1   
    64   29   30 1   
    65   29   57 1   
    66   29   58 1   
    67   30   31 1   
    68   30   59 1   
    69   30   60 1   
    70   31   61 1   
    71   31   62 1   
@<TRIPOS>SUBSTRUCTURE
     1 D34         1 TEMP              0 ****  ****    0 ROOT
