@<TRIPOS>MOLECULE
D34
   63    67     1     0     0
SMALL
bcc


@<TRIPOS>ATOM
      1 C7         -5.9270    1.2450   -0.4100 c3        1 D34      0.445500
      2 N2         -6.8280    0.4930    0.4810 n3        1 D34     -0.849700
      3 N1         -6.3990    1.6000   -1.7480 n3        1 D34     -0.913800
      4 C8         -8.1350    1.0580    0.6460 cy        1 D34      0.161000
      5 C9         -9.2390    0.8110   -0.4410 cy        1 D34     -0.102400
      6 C10       -10.1420    0.1600    0.6200 cy        1 D34     -0.091400
      7 C11        -9.0540    0.3470    1.6930 cy        1 D34     -0.102400
      8 C1         -2.1380   -0.8230   -0.6780 ca        1 D34     -0.124000
      9 C2         -2.2240    0.4330   -0.0580 ca        1 D34     -0.107000
     10 C3         -3.4460    1.0940    0.0260 ca        1 D34     -0.119000
     11 C4         -4.5980    0.5090   -0.5080 ca        1 D34     -0.078300
     12 C5         -4.5180   -0.7410   -1.1260 ca        1 D34     -0.119000
     13 C6         -3.2980   -1.4060   -1.2120 ca        1 D34     -0.107000
     14 CA         -0.8800   -1.5200   -0.7730 cc        1 D34      0.310200
     15 O1          0.2460   -0.8870   -0.2240 os        1 D34     -0.358800
     16 CB         -0.5120   -2.7440   -1.3160 cd        1 D34     -0.244800
     17 CB'         0.9030   -2.8900   -1.1010 cd        1 D34     -0.244800
     18 CA'         1.3330   -1.7490   -0.4380 cc        1 D34      0.310200
     19 C1'         2.6200   -1.3150    0.0440 ca        1 D34     -0.124000
     20 C2'         2.7640   -0.0950    0.7240 ca        1 D34     -0.107000
     21 C3'         4.0150    0.3090    1.1810 ca        1 D34     -0.119000
     22 C4'         5.1380   -0.4930    0.9650 ca        1 D34     -0.078300
     23 C5'         4.9990   -1.7110    0.2940 ca        1 D34     -0.119000
     24 C6'         3.7500   -2.1210   -0.1650 ca        1 D34     -0.107000
     25 C7'         6.5130   -0.0500    1.4520 c3        1 D34      0.445500
     26 N2'         6.9570    1.2060    0.8130 n3        1 D34     -0.849700
     27 N1'         6.5370   -0.0250    2.9140 n3        1 D34     -0.913800
     28 C8'         7.5100    1.0240   -0.5060 cy        1 D34      0.161000
     29 C9'         7.7990    2.3290   -1.3160 cy        1 D34     -0.102400
     30 CAX         9.2860    1.9430   -1.4120 cy        1 D34     -0.091400
     31 CBX         9.0340    0.6780   -0.5720 cy        1 D34     -0.102400
     32 H77        -5.7520    2.2400    0.1170 h2        1 D34      0.077700
     33 HN2        -6.8730   -0.4770    0.2390 hn        1 D34      0.364300
     34 HN1        -6.4280    0.8090   -2.3590 hn        1 D34      0.353050
     35 HN2A       -7.3030    2.0290   -1.7120 hn        1 D34      0.353050
     36 H8         -8.0270    2.1520    0.8700 h1        1 D34      0.050200
     37 H91        -9.6450    1.7480   -0.8760 hc        1 D34      0.052950
     38 H92        -8.9390    0.1220   -1.2580 hc        1 D34      0.052950
     39 H01       -11.0780    0.7230    0.8220 hc        1 D34      0.049700
     40 H02       -10.3910   -0.9020    0.4100 hc        1 D34      0.049700
     41 H11        -8.6490   -0.6030    2.0990 hc        1 D34      0.052950
     42 H12        -9.3450    1.0150    2.5310 hc        1 D34      0.052950
     43 H3         -3.5030    2.0780    0.5150 ha        1 D34      0.134000
     44 H5         -5.4190   -1.2100   -1.5490 ha        1 D34      0.134000
     45 H6         -3.2400   -2.3900   -1.7000 ha        1 D34      0.141500
     46 HB         -1.1570   -3.4640   -1.8100 ha        1 D34      0.161500
     47 HB'         1.5080   -3.7400   -1.4060 ha        1 D34      0.161500
     48 H2'         1.8790    0.5370    0.8960 ha        1 D34      0.141500
     49 H3'         4.1120    1.2640    1.7180 ha        1 D34      0.134000
     50 H5'         5.8770   -2.3550    0.1320 ha        1 D34      0.134000
     51 H6'         3.6460   -3.0810   -0.6930 ha        1 D34      0.141500
     52 H7B         7.2720   -0.8450    1.1540 h2        1 D34      0.077700
     53 HN2'        6.2180    1.8830    0.7880 hn        1 D34      0.364300
     54 HN'1        7.4290    0.2880    3.2450 hn        1 D34      0.353050
     55 HN'2        5.8240    0.5760    3.2790 hn        1 D34      0.353050
     56 H8'         6.9100    0.2950   -1.1170 h1        1 D34      0.050200
     57 H9'1        7.2680    2.3580   -2.2900 hc        1 D34      0.052950
     58 H9'2        7.6150    3.2730   -0.7610 hc        1 D34      0.052950
     59 H0'1        9.6320    1.7370   -2.4470 hc        1 D34      0.049700
     60 H0'2        9.9710    2.6730   -0.9310 hc        1 D34      0.049700
     61 H1'1        9.5520    0.6790    0.4100 hc        1 D34      0.052950
     62 H1'2        9.2380   -0.2750   -1.1030 hc        1 D34      0.052950
     63 H2         -1.3160    0.8930    0.3630 ha        1 D34      0.141500
@<TRIPOS>BOND
     1    1    2 1   
     2    1    3 1   
     3    1   11 1   
     4    1   32 1   
     5    2    4 1   
     6    2   33 1   
     7    3   34 1   
     8    3   35 1   
     9    4    5 1   
    10    4    7 1   
    11    4   36 1   
    12    5    6 1   
    13    5   37 1   
    14    5   38 1   
    15    6    7 1   
    16    6   39 1   
    17    6   40 1   
    18    7   41 1   
    19    7   42 1   
    20    8    9 ar  
    21    8   13 ar  
    22    8   14 1   
    23    9   10 ar  
    24    9   63 1   
    25   10   11 ar  
    26   10   43 1   
    27   11   12 ar  
    28   12   13 ar  
    29   12   44 1   
    30   13   45 1   
    31   14   15 1   
    32   14   16 2   
    33   15   18 1   
    34   16   17 1   
    35   16   46 1   
    36   17   18 2   
    37   17   47 1   
    38   18   19 1   
    39   19   20 ar  
    40   19   24 ar  
    41   20   21 ar  
    42   20   48 1   
    43   21   22 ar  
    44   21   49 1   
    45   22   23 ar  
    46   22   25 1   
    47   23   24 ar  
    48   23   50 1   
    49   24   51 1   
    50   25   26 1   
    51   25   27 1   
    52   25   52 1   
    53   26   28 1   
    54   26   53 1   
    55   27   54 1   
    56   27   55 1   
    57   28   29 1   
    58   28   31 1   
    59   28   56 1   
    60   29   30 1   
    61   29   57 1   
    62   29   58 1   
    63   30   31 1   
    64   30   59 1   
    65   30   60 1   
    66   31   61 1   
    67   31   62 1   
@<TRIPOS>SUBSTRUCTURE
     1 D34         1 TEMP              0 ****  ****    0 ROOT
