@<TRIPOS>MOLECULE
D34
   63    58     1     0     0
SMALL
bcc


@<TRIPOS>ATOM
      1 C7         -3.9940   -4.8080    2.4800 c3        1 D34      0.086500
      2 N2         -2.9810   -5.5570    3.1870 n3        1 D34     -0.312500
      3 N1         -4.6480   -5.6560    1.5440 n3        1 D34     -0.347000
      4 C8         -3.5840   -6.4490    4.0470 cy        1 D34     -0.033000
      5 C9         -3.3500   -7.8700    3.6670 cy        1 D34     -0.177750
      6 C10        -2.5210   -8.0650    4.9120 cy        1 D34     -0.173000
      7 C11        -2.7950   -6.6570    5.3130 cy        1 D34     -0.177750
      8 C1         -2.3630   -1.5120    0.2720 c1        1 D34     -0.015000
      9 C2         -2.0920   -2.8180   -0.1330 c1        1 D34     -0.115500
     10 C3         -2.5800   -3.8850    0.5990 c1        1 D34     -0.115500
     11 C4         -3.3490   -3.6510    1.7510 c1        1 D34     -0.090500
     12 C5         -3.6170   -2.3530    2.1510 c1        1 D34     -0.112000
     13 C6         -3.1260   -1.2820    1.4140 c1        1 D34     -0.115000
     14 CA         -1.8230   -0.4170   -0.4540 c1        1 D34      0.009000
     15 O1         -0.5690    0.1110   -0.3020 os        1 D34     -0.100000
     16 CB         -2.4660    0.2920   -1.4540 c1        1 D34     -0.180000
     17 CB'        -1.6030    1.2550   -1.9150 c1        1 D34     -0.178000
     18 CA'        -0.4280    1.1480   -1.2060 c2        1 D34      0.005000
     19 C1'         0.6990    1.9850   -1.3390 c1        1 D34     -0.014000
     20 C2'         0.7360    3.2150   -0.6780 c1        1 D34     -0.115500
     21 C3'         1.8300    4.0530   -0.8320 c1        1 D34     -0.115500
     22 C4'         2.9020    3.6640   -1.6540 c1        1 D34     -0.090500
     23 C5'         2.8640    2.4320   -2.3170 c1        1 D34     -0.112000
     24 C6'         1.7720    1.5970   -2.1630 c1        1 D34     -0.104000
     25 C7'         4.1560    4.5110   -1.7100 c3        1 D34      0.086500
     26 N2'         3.8610    5.7660   -2.3590 n3        1 D34     -0.312500
     27 N1'         4.6100    4.7520   -0.4100 n3        1 D34     -0.347000
     28 C8'         4.7800    5.9940   -3.3410 cy        1 D34     -0.033000
     29 C9'         4.1620    6.5010   -4.6210 cy        1 D34     -0.177750
     30 CAX         4.8590    7.8110   -4.4370 cy        1 D34     -0.173000
     31 CBX         5.4950    7.2940   -3.1710 cy        1 D34     -0.177750
     32 H77        -4.6460   -4.4630    3.1150 h2        1 D34      0.098500
     33 HN2        -2.4570   -4.9780    3.6690 hn        1 D34      0.165500
     34 HN1        -5.3630   -5.2020    1.1630 hn        1 D34      0.147500
     35 HN2A       -4.9430   -6.3820    1.9570 hn        1 D34      0.147500
     36 H8         -4.5390   -6.2520    4.2190 h1        1 D34      0.089000
     37 H91        -2.8080   -7.9640    2.8150 hc        1 D34      0.091875
     38 H92        -4.1550   -8.3930    3.6710 hc        1 D34      0.091875
     39 H01        -2.9100   -8.7170    5.5310 hc        1 D34      0.087750
     40 H02        -1.5860   -8.2230    4.7180 hc        1 D34      0.087750
     41 H11        -1.9400   -6.0770    5.3500 hc        1 D34      0.091875
     42 H12        -3.3440   -6.5940    6.1100 hc        1 D34      0.091875
     43 H2         -1.5530   -2.9810   -0.9420 ha        1 D34      0.139500
     44 H3         -2.3900   -4.7940    0.3190 ha        1 D34      0.139500
     45 H5         -4.1610   -2.1870    2.9630 ha        1 D34      0.139000
     46 H6         -3.3220   -0.3390    1.7070 ha        1 D34      0.136000
     47 HB         -3.3890    0.1310   -1.7820 DU        1 D34      0.161500
     48 HB'        -1.7980    1.9270   -2.6480 DU        1 D34      0.161500
     49 H2'        -0.0160    3.4880   -0.1000 ha        1 D34      0.139500
     50 H3'         1.8570    4.9210   -0.3660 ha        1 D34      0.139500
     51 H5'         3.6180    2.1570   -2.8950 ha        1 D34      0.139000
     52 H6'         1.7460    0.7250   -2.6320 ha        1 D34      0.148000
     53 H7B         4.8240    4.0540   -2.1970 h2        1 D34      0.098500
     54 HN2'        3.8970    6.4210   -1.7630 hn        1 D34      0.165500
     55 HN'1        5.4640    5.0290   -0.4370 hn        1 D34      0.147500
     56 HN'2        4.5530    3.9430    0.1020 hn        1 D34      0.147500
     57 H8'         5.4120    5.2150   -3.4940 h1        1 D34      0.089000
     58 H9'1        4.4650    6.0260   -5.3890 hc        1 D34      0.091875
     59 H9'2        3.1870    6.5800   -4.5670 hc        1 D34      0.091875
     60 H0'1        5.5190    7.9970   -5.1450 hc        1 D34      0.087750
     61 H0'2        4.2480    8.5380   -4.2780 hc        1 D34      0.087750
     62 H1'1        6.4910    7.2030   -3.2460 hc        1 D34      0.091875
     63 H1'2        5.2000    7.7880   -2.3660 hc        1 D34      0.091875
@<TRIPOS>BOND
     1    1    2 1   
     2    1    3 1   
     3    1   11 1   
     4    1   32 1   
     5    2    4 1   
     6    2   33 1   
     7    3   34 1   
     8    3   35 1   
     9    4    5 1   
    10    4    7 1   
    11    4   36 1   
    12    5    6 1   
    13    5   37 1   
    14    5   38 1   
    15    6    7 1   
    16    6   39 1   
    17    6   40 1   
    18    7   41 1   
    19    7   42 1   
    20    8   13 1   
    21    9   10 1   
    22    9   43 1   
    23   10   44 1   
    24   11   12 1   
    25   12   45 1   
    26   13   46 1   
    27   14   15 1   
    28   14   16 1   
    29   15   18 1   
    30   16   17 1   
    31   17   18 1   
    32   18   19 1   
    33   19   24 1   
    34   20   21 1   
    35   20   49 1   
    36   21   50 1   
    37   22   23 1   
    38   22   25 1   
    39   23   51 1   
    40   24   52 1   
    41   25   26 1   
    42   25   27 1   
    43   25   53 1   
    44   26   28 1   
    45   26   54 1   
    46   27   55 1   
    47   27   56 1   
    48   28   29 1   
    49   28   31 1   
    50   28   57 1   
    51   29   30 1   
    52   29   58 1   
    53   29   59 1   
    54   30   31 1   
    55   30   60 1   
    56   30   61 1   
    57   31   62 1   
    58   31   63 1   
@<TRIPOS>SUBSTRUCTURE
     1 D34         1 TEMP              0 ****  ****    0 ROOT
