@<TRIPOS>MOLECULE
D34
   67    71     1     0     0
SMALL
bcc


@<TRIPOS>ATOM
      1 C7          1.5120    0.1520   -0.1740 c3        1 D34      0.412000
      2 N2          0.6720   -0.7170   -1.0920 ny        1 D34     -0.779500
      3 N1          0.8410    0.4330    1.1620 nz        1 D34     -0.867100
      4 C8          0.2620   -2.0230   -0.4950 cy        1 D34      0.023000
      5 C9         -1.0410   -2.0260    0.3620 cy        1 D34     -0.101650
      6 C10        -1.6680   -3.0580   -0.5990 cy        1 D34     -0.072400
      7 C11        -0.4160   -3.0210   -1.4950 cy        1 D34     -0.101650
      8 C1          2.5850    3.8560   -2.1090 ca        1 D34     -0.024000
      9 C2          3.5720    2.9470   -1.6940 ca        1 D34     -0.096750
     10 C3          3.2210    1.7530   -1.0680 ca        1 D34     -0.080000
     11 C4          1.8700    1.4450   -0.8460 ca        1 D34     -0.274300
     12 C5          0.8750    2.3480   -1.2560 ca        1 D34     -0.080000
     13 C6          1.2270    3.5370   -1.8780 ca        1 D34     -0.096750
     14 CA          2.9010    5.0980   -2.7650 cc        1 D34      0.277700
     15 O1          4.2510    5.4410   -2.9710 os        1 D34     -0.349800
     16 CB          2.0740    6.0950   -3.2760 cd        1 D34     -0.172300
     17 CB'         2.9280    7.1060   -3.8280 cd        1 D34     -0.172300
     18 CA'         4.2400    6.6840   -3.6290 cc        1 D34      0.277700
     19 C1'         5.4890    7.3100   -3.9820 ca        1 D34     -0.024000
     20 C2'         6.7400    6.7680   -3.6250 ca        1 D34     -0.096750
     21 C3'         7.9180    7.4160   -3.9790 ca        1 D34     -0.080000
     22 C4'         7.8740    8.6200   -4.7010 ca        1 D34     -0.274300
     23 C5'         6.6340    9.1660   -5.0650 ca        1 D34     -0.080000
     24 C6'         5.4570    8.5170   -4.7080 ca        1 D34     -0.096750
     25 C7'         9.1170    9.3570   -5.1040 c3        1 D34      0.412000
     26 N2'         9.9050    9.8030   -3.8860 ny        1 D34     -0.779500
     27 N1'         9.9320    8.5170   -6.0740 nz        1 D34     -0.867100
     28 C8'        11.1350   10.5860   -4.2090 cy        1 D34      0.023000
     29 C9'        11.8420   11.2440   -2.9760 cy        1 D34     -0.101650
     30 CAX        13.1340   10.4780   -3.3160 cy        1 D34     -0.072400
     31 CBX        12.4320    9.7710   -4.4960 cy        1 D34     -0.101650
     32 H77         2.4510   -0.4560    0.0700 hx        1 D34      0.166700
     33 HN2         1.2580   -0.9060   -1.9250 hn        1 D34      0.482550
     34 HN1         0.0660    1.1010    1.0530 hn        1 D34      0.489467
     35 HN2A        1.5490    0.8670    1.7780 hn        1 D34      0.489467
     36 H8          1.1530   -2.4710    0.0200 hx        1 D34      0.126200
     37 H91        -1.5960   -1.0640    0.3990 hc        1 D34      0.095825
     38 H92        -0.8760   -2.4180    1.3920 hc        1 D34      0.095825
     39 H01        -1.8580   -4.0510   -0.1300 hc        1 D34      0.114700
     40 H02        -2.6010   -2.7100   -1.0970 hc        1 D34      0.114700
     41 H11         0.1370   -3.9870   -1.5620 hc        1 D34      0.095825
     42 H12        -0.5960   -2.6260   -2.5190 hc        1 D34      0.095825
     43 H3          4.0190    1.0570   -0.7550 ha        1 D34      0.151750
     44 H5         -0.1940    2.1340   -1.0940 ha        1 D34      0.151750
     45 H6          0.4350    4.2400   -2.1960 ha        1 D34      0.184500
     46 HB          0.9840    6.1270   -3.2730 ha        1 D34      0.197000
     47 HB'         2.5850    8.0250   -4.3070 ha        1 D34      0.197000
     48 H2'         6.7780    5.8220   -3.0570 ha        1 D34      0.184500
     49 H3'         8.8790    6.9670   -3.6800 ha        1 D34      0.151750
     50 H5'         6.5710   10.1110   -5.6330 ha        1 D34      0.151750
     51 H6'         4.4880    8.9610   -5.0030 ha        1 D34      0.184500
     52 H7B         8.8490   10.3150   -5.6750 hx        1 D34      0.166700
     53 HN2'       10.1480    8.9970   -3.2940 hn        1 D34      0.482550
     54 HN'1       10.8370    8.9550   -6.3010 hn        1 D34      0.489467
     55 HN'2        9.3770    8.4250   -6.9410 hn        1 D34      0.489467
     56 H8'        10.8770   11.3360   -5.0050 hx        1 D34      0.126200
     57 H9'1       11.4070   10.9930   -1.9840 hc        1 D34      0.095825
     58 H9'2       11.9160   12.3520   -3.0780 hc        1 D34      0.095825
     59 H0'1       13.9790   11.1360   -3.6260 hc        1 D34      0.114700
     60 H0'2       13.4860    9.7900   -2.5160 hc        1 D34      0.114700
     61 H1'1       12.3490    8.6710   -4.3640 hc        1 D34      0.095825
     62 H1'2       12.8790   10.0090   -5.4890 hc        1 D34      0.095825
     63 H22        -0.1610   -0.2040   -1.4140 hn        1 D34      0.482550
     64 H13         0.4890   -0.4270    1.6080 hn        1 D34      0.489467
     65 H2'2        9.2660   10.4080   -3.3370 hn        1 D34      0.482550
     66 H1'3       10.0940    7.5720   -5.7000 hn        1 D34      0.489467
     67 H2          4.6370    3.1820   -1.8670 ha        1 D34      0.184500
@<TRIPOS>BOND
     1    1    2 1   
     2    1    3 1   
     3    1   11 1   
     4    1   32 1   
     5    2    4 1   
     6    2   33 1   
     7    2   63 1   
     8    3   34 1   
     9    3   35 1   
    10    3   64 1   
    11    4    5 1   
    12    4    7 1   
    13    4   36 1   
    14    5    6 1   
    15    5   37 1   
    16    5   38 1   
    17    6    7 1   
    18    6   39 1   
    19    6   40 1   
    20    7   41 1   
    21    7   42 1   
    22    8    9 ar  
    23    8   13 ar  
    24    8   14 1   
    25    9   10 ar  
    26    9   67 1   
    27   10   11 ar  
    28   10   43 1   
    29   11   12 ar  
    30   12   13 ar  
    31   12   44 1   
    32   13   45 1   
    33   14   15 1   
    34   14   16 2   
    35   15   18 1   
    36   16   17 1   
    37   16   46 1   
    38   17   18 2   
    39   17   47 1   
    40   18   19 1   
    41   19   20 ar  
    42   19   24 ar  
    43   20   21 ar  
    44   20   48 1   
    45   21   22 ar  
    46   21   49 1   
    47   22   23 ar  
    48   22   25 1   
    49   23   24 ar  
    50   23   50 1   
    51   24   51 1   
    52   25   26 1   
    53   25   27 1   
    54   25   52 1   
    55   26   28 1   
    56   26   53 1   
    57   26   65 1   
    58   27   54 1   
    59   27   55 1   
    60   27   66 1   
    61   28   29 1   
    62   28   31 1   
    63   28   56 1   
    64   29   30 1   
    65   29   57 1   
    66   29   58 1   
    67   30   31 1   
    68   30   59 1   
    69   30   60 1   
    70   31   61 1   
    71   31   62 1   
@<TRIPOS>SUBSTRUCTURE
     1 D34         1 TEMP              0 ****  ****    0 ROOT
