@<TRIPOS>MOLECULE
D35
   75    70     1     0     0
SMALL
bcc


@<TRIPOS>ATOM
      1 C7         -2.0010   -5.9130    2.2850 c3        1 D35      0.091000
      2 N2         -3.2580   -6.3300    1.7440 n3        1 D35     -0.292000
      3 N1         -2.1350   -5.6980    3.6790 n3        1 D35     -0.383500
      4 C8         -3.4390   -7.7440    1.9600 c3        1 D35     -0.015000
      5 C9         -4.5970   -7.9470    2.9010 c3        1 D35     -0.168500
      6 C10        -4.9750   -9.4080    3.0480 c3        1 D35     -0.154000
      7 C11        -5.1930  -10.0920    1.6970 c3        1 D35     -0.157000
      8 C12        -4.0340   -9.8850    0.7520 c3        1 D35     -0.154000
      9 C13        -3.6560   -8.4290    0.6090 c3        1 D35     -0.168500
     10 C1         -0.7560   -2.2540    0.3700 c1        1 D35     -0.016000
     11 C2         -2.0260   -2.3450    0.9830 c1        1 D35     -0.115250
     12 C3         -2.4130   -3.5160    1.5890 c1        1 D35     -0.115250
     13 C4         -1.5620   -4.6060    1.6010 c1        1 D35     -0.088500
     14 C5         -0.3070   -4.5180    0.9950 c1        1 D35     -0.113000
     15 C6          0.0890   -3.3370    0.3810 c1        1 D35     -0.115000
     16 CA         -0.3950   -1.0890   -0.3360 c1        1 D35      0.009000
     17 O1          0.1880    0.0400    0.2030 os        1 D35     -0.100000
     18 CB         -0.5840   -0.8660   -1.6960 c1        1 D35     -0.180000
     19 CB'        -0.1240    0.3860   -1.9860 c1        1 D35     -0.179000
     20 CA'         0.3570    0.9530   -0.8080 c2        1 D35      0.006000
     21 C1'         0.9650    2.1920   -0.6940 c1        1 D35     -0.015000
     22 C2'         0.2070    3.3070   -0.5040 c1        1 D35     -0.115250
     23 C3'         0.8190    4.5640   -0.4050 c1        1 D35     -0.115250
     24 C4'         2.2040    4.6700   -0.5010 c1        1 D35     -0.088500
     25 C5'         2.9660    3.5390   -0.6940 c1        1 D35     -0.113000
     26 C6'         2.3510    2.2980   -0.7910 c1        1 D35     -0.104000
     27 C7'         2.8820    6.0130   -0.2900 c3        1 D35      0.091000
     28 N2'         2.4270    6.9460   -1.2870 n3        1 D35     -0.292000
     29 N1'         2.5620    6.5010    0.9890 n3        1 D35     -0.383500
     30 C8'         3.5480    7.7190   -1.7800 c3        1 D35     -0.015000
     31 C9'         3.6240    7.5540   -3.2830 c3        1 D35     -0.168500
     32 CAX         4.6420    8.4660   -3.9120 c3        1 D35     -0.154000
     33 CBX         4.4590    9.9290   -3.4940 c3        1 D35     -0.157000
     34 CCX         4.3890   10.0960   -1.9960 c3        1 D35     -0.154000
     35 CDX         3.3640    9.1840   -1.3610 c3        1 D35     -0.168500
     36 H77        -1.3010   -6.6330    2.1200 h2        1 D35      0.094000
     37 HN2        -3.9030   -5.8910    2.1330 hn        1 D35      0.159000
     38 HN1        -1.8820   -6.4660    4.1370 hn        1 D35      0.151750
     39 HN2A       -1.6090   -5.0130    3.9280 hn        1 D35      0.151750
     40 H8         -2.6200   -8.1160    2.3780 h1        1 D35      0.091000
     41 H91        -5.4300   -7.4170    2.5340 hc        1 D35      0.085625
     42 H92        -4.3600   -7.5960    3.7710 hc        1 D35      0.085625
     43 H01        -4.2470   -9.8800    3.5410 hc        1 D35      0.078000
     44 H02        -5.7760   -9.4700    3.5530 hc        1 D35      0.078000
     45 H11        -5.3070  -11.0130    1.8380 hc        1 D35      0.078250
     46 H12        -6.0510   -9.7150    1.2670 hc        1 D35      0.078250
     47 H21        -3.2730  -10.3760    1.0800 hc        1 D35      0.078000
     48 H22        -4.2810  -10.2360   -0.1360 hc        1 D35      0.078000
     49 H31        -2.8370   -8.3700    0.0930 hc        1 D35      0.085625
     50 H32        -4.3440   -7.9760    0.1450 hc        1 D35      0.085625
     51 H2         -2.6140   -1.5960    0.9750 ha        1 D35      0.140000
     52 H3         -3.2900   -3.5790    2.0120 ha        1 D35      0.140000
     53 H5          0.2650   -5.2520    1.0030 ha        1 D35      0.138000
     54 H6          0.9880   -3.2740   -0.0540 ha        1 D35      0.136000
     55 HB         -0.9910   -1.5170   -2.3560 DU        1 D35      0.161500
     56 HB'        -0.1310    0.8210   -2.8890 DU        1 D35      0.161500
     57 H2'        -0.7780    3.2280   -0.4380 ha        1 D35      0.140000
     58 H3'         0.2960    5.3310   -0.2740 ha        1 D35      0.140000
     59 H5'         3.9190    3.6070   -0.7610 ha        1 D35      0.138000
     60 H6'         2.9050    1.4750   -0.9310 ha        1 D35      0.148000
     61 H7B         3.9100    5.8950   -0.3690 h2        1 D35      0.094000
     62 HN2'        1.7880    7.5260   -0.9070 hn        1 D35      0.159000
     63 HN'1        1.8130    6.0360    1.3240 hn        1 D35      0.151750
     64 HN'2        3.2660    6.3790    1.5430 hn        1 D35      0.151750
     65 H8'         4.4160    7.3590   -1.3600 h1        1 D35      0.091000
     66 H9'1        3.8550    6.6530   -3.4830 hc        1 D35      0.085625
     67 H9'2        2.7970    7.7350   -3.6460 hc        1 D35      0.085625
     68 H0'1        4.5670    8.4020   -4.8750 hc        1 D35      0.078000
     69 H0'2        5.5160    8.1790   -3.6500 hc        1 D35      0.078000
     70 H1'1        5.2180   10.4600   -3.8440 hc        1 D35      0.078250
     71 H1'2        3.5710   10.2920   -3.9130 hc        1 D35      0.078250
     72 H2'1        4.1660   11.0030   -1.7970 hc        1 D35      0.078000
     73 H2'2        5.3040    9.8860   -1.5980 hc        1 D35      0.078000
     74 H3'1        2.4330    9.4910   -1.6370 hc        1 D35      0.085625
     75 H3'2        3.4410    9.2480   -0.4230 hc        1 D35      0.085625
@<TRIPOS>BOND
     1    1    2 1   
     2    1    3 1   
     3    1   13 1   
     4    1   36 1   
     5    2    4 1   
     6    2   37 1   
     7    3   38 1   
     8    3   39 1   
     9    4    5 1   
    10    4    9 1   
    11    4   40 1   
    12    5    6 1   
    13    5   41 1   
    14    5   42 1   
    15    6    7 1   
    16    6   43 1   
    17    6   44 1   
    18    7    8 1   
    19    7   45 1   
    20    7   46 1   
    21    8    9 1   
    22    8   47 1   
    23    8   48 1   
    24    9   49 1   
    25    9   50 1   
    26   10   15 1   
    27   11   12 1   
    28   11   51 1   
    29   12   52 1   
    30   13   14 1   
    31   14   53 1   
    32   15   54 1   
    33   16   17 1   
    34   16   18 1   
    35   17   20 1   
    36   18   19 1   
    37   19   20 1   
    38   20   21 1   
    39   21   26 1   
    40   22   23 1   
    41   22   57 1   
    42   23   58 1   
    43   24   25 1   
    44   24   27 1   
    45   25   59 1   
    46   26   60 1   
    47   27   28 1   
    48   27   29 1   
    49   27   61 1   
    50   28   30 1   
    51   28   62 1   
    52   29   63 1   
    53   29   64 1   
    54   30   31 1   
    55   30   35 1   
    56   30   65 1   
    57   31   32 1   
    58   31   66 1   
    59   31   67 1   
    60   32   33 1   
    61   32   68 1   
    62   32   69 1   
    63   33   34 1   
    64   33   70 1   
    65   33   71 1   
    66   34   35 1   
    67   34   72 1   
    68   34   73 1   
    69   35   74 1   
    70   35   75 1   
@<TRIPOS>SUBSTRUCTURE
     1 D35         1 TEMP              0 ****  ****    0 ROOT
