@<TRIPOS>MOLECULE
D35
   79    83     1     0     0
SMALL
bcc


@<TRIPOS>ATOM
      1 C7          0.8910   -1.1250   -1.1050 c3        1 D35      0.410000
      2 N2         -0.1550   -0.2420   -0.4610 n4        1 D35     -0.807000
      3 N1          1.5890   -2.0690   -0.1360 n4        1 D35     -0.866600
      4 C8         -1.4260   -0.9630   -0.0130 c3        1 D35      0.123000
      5 C9         -2.1750   -0.1030    1.0150 c3        1 D35     -0.103900
      6 C10        -3.3940   -0.8700    1.5020 c3        1 D35     -0.080150
      7 C11        -4.3030   -1.2550    0.3560 c3        1 D35     -0.099400
      8 C12        -3.5580   -2.0380   -0.7020 c3        1 D35     -0.080150
      9 C13        -2.3380   -1.2800   -1.2020 c3        1 D35     -0.103900
     10 C1          3.8200    1.2020   -3.2580 ca        1 D35     -0.025500
     11 C2          3.0040    0.2600   -3.9160 ca        1 D35     -0.097000
     12 C3          2.0660   -0.4850   -3.2100 ca        1 D35     -0.080500
     13 C4          1.9210   -0.3030   -1.8260 ca        1 D35     -0.273800
     14 C5          2.7310    0.6320   -1.1600 ca        1 D35     -0.080500
     15 C6          3.6700    1.3740   -1.8670 ca        1 D35     -0.097000
     16 CA          4.7690    1.9560   -4.0370 cc        1 D35      0.278200
     17 O1          5.6510    2.8370   -3.3860 os        1 D35     -0.350800
     18 CB          4.9920    1.9850   -5.4110 cd        1 D35     -0.173300
     19 CB'         6.0570    2.9200   -5.6420 cd        1 D35     -0.173300
     20 CA'         6.4370    3.4190   -4.3990 cc        1 D35      0.278200
     21 C1'         7.4540    4.3720   -4.0390 ca        1 D35     -0.025500
     22 C2'         8.2000    4.9900   -5.0680 ca        1 D35     -0.097000
     23 C3'         9.1960    5.9080   -4.7680 ca        1 D35     -0.080500
     24 C4'         9.4730    6.2350   -3.4300 ca        1 D35     -0.273800
     25 C5'         8.7370    5.6310   -2.4010 ca        1 D35     -0.080500
     26 C6'         7.7370    4.7090   -2.7040 ca        1 D35     -0.097000
     27 C7'        10.5500    7.2240   -3.0840 c3        1 D35      0.410000
     28 N2'        11.8950    6.7500   -3.5900 n4        1 D35     -0.807000
     29 N1'        10.1470    8.5990   -3.6000 n4        1 D35     -0.866600
     30 C8'        13.1060    7.5210   -3.0690 c3        1 D35      0.123000
     31 C9'        13.4250    7.1520   -1.6170 c3        1 D35     -0.103900
     32 CAX        14.6070    7.9850   -1.1430 c3        1 D35     -0.080150
     33 CBX        15.8170    7.7860   -2.0280 c3        1 D35     -0.099400
     34 CCX        15.4950    8.0740   -3.4780 c3        1 D35     -0.080150
     35 CDX        14.3220    7.2400   -3.9660 c3        1 D35     -0.103900
     36 H77         0.3240   -1.7980   -1.8400 hx        1 D35      0.169700
     37 HN2         0.2360    0.2820    0.3310 hn        1 D35      0.476300
     38 HN1         2.2170   -2.6670   -0.7010 hn        1 D35      0.488300
     39 HN2A        0.9260   -2.6730    0.3680 hn        1 D35      0.488300
     40 H8         -1.1020   -1.9240    0.4830 hx        1 D35      0.080200
     41 H91        -1.5160    0.1370    1.8900 hc        1 D35      0.070575
     42 H92        -2.5100    0.8600    0.5440 hc        1 D35      0.070575
     43 H01        -3.0690   -1.7860    2.0630 hc        1 D35      0.084200
     44 H02        -3.9550   -0.2170    2.2270 hc        1 D35      0.084200
     45 H11        -4.7570   -0.3340   -0.0980 hc        1 D35      0.090200
     46 H12        -5.1520   -1.8790    0.7500 hc        1 D35      0.090200
     47 H21        -3.2460   -3.0350   -0.2940 hc        1 D35      0.084200
     48 H22        -4.2370   -2.2320   -1.5770 hc        1 D35      0.084200
     49 H31        -1.8030   -1.9040   -1.9640 hc        1 D35      0.070575
     50 H32        -2.6770   -0.3290   -1.6960 hc        1 D35      0.070575
     51 H3          1.4410   -1.2130   -3.7570 ha        1 D35      0.151250
     52 H5          2.6350    0.7940   -0.0750 ha        1 D35      0.151250
     53 H6          4.3050    2.1080   -1.3410 ha        1 D35      0.184000
     54 HB          4.4730    1.4200   -6.1860 ha        1 D35      0.197000
     55 HB'         6.4710    3.1700   -6.6200 ha        1 D35      0.197000
     56 H2'         7.9910    4.7410   -6.1240 ha        1 D35      0.184000
     57 H3'         9.7580    6.3670   -5.5970 ha        1 D35      0.151250
     58 H5'         8.9390    5.8720   -1.3430 ha        1 D35      0.151250
     59 H6'         7.1620    4.2350   -1.8890 ha        1 D35      0.184000
     60 H7B        10.6570    7.3350   -1.9490 hx        1 D35      0.169700
     61 HN2'       11.9840    5.7690   -3.2700 hn        1 D35      0.476300
     62 HN'1        9.2510    8.8410   -3.1440 hn        1 D35      0.488300
     63 HN'2       10.8400    9.3230   -3.3690 hn        1 D35      0.488300
     64 H8'        12.8530    8.6190   -3.1360 hx        1 D35      0.080200
     65 H9'1       12.5450    7.3480   -0.9520 hc        1 D35      0.070575
     66 H9'2       13.6930    6.0640   -1.5430 hc        1 D35      0.070575
     67 H0'1       14.3220    9.0700   -1.1190 hc        1 D35      0.084200
     68 H0'2       14.8540    7.6800   -0.0900 hc        1 D35      0.084200
     69 H1'1       16.2000    6.7360   -1.9230 hc        1 D35      0.090200
     70 H1'2       16.6410    8.4720   -1.6880 hc        1 D35      0.090200
     71 H2'1       16.3880    7.8340   -4.1190 hc        1 D35      0.084200
     72 H2'2       15.2720    9.1650   -3.6150 hc        1 D35      0.084200
     73 H3'1       14.0990    7.5060   -5.0330 hc        1 D35      0.070575
     74 H3'2       14.5970    6.1530   -3.9170 hc        1 D35      0.070575
     75 H221       -0.4230    0.4490   -1.1850 hn        1 D35      0.476300
     76 H13         2.1670   -1.5540    0.5390 hn        1 D35      0.488300
     77 H2'3       11.9190    6.7370   -4.6180 hn        1 D35      0.476300
     78 H1'3        9.9890    8.5870   -4.6170 hn        1 D35      0.488300
     79 H2          3.1050    0.1040   -5.0050 ha        1 D35      0.184000
@<TRIPOS>BOND
     1    1    2 1   
     2    1    3 1   
     3    1   13 1   
     4    1   36 1   
     5    2    4 1   
     6    2   37 1   
     7    2   75 1   
     8    3   38 1   
     9    3   39 1   
    10    3   76 1   
    11    4    5 1   
    12    4    9 1   
    13    4   40 1   
    14    5    6 1   
    15    5   41 1   
    16    5   42 1   
    17    6    7 1   
    18    6   43 1   
    19    6   44 1   
    20    7    8 1   
    21    7   45 1   
    22    7   46 1   
    23    8    9 1   
    24    8   47 1   
    25    8   48 1   
    26    9   49 1   
    27    9   50 1   
    28   10   11 ar  
    29   10   15 ar  
    30   10   16 1   
    31   11   12 ar  
    32   11   79 1   
    33   12   13 ar  
    34   12   51 1   
    35   13   14 ar  
    36   14   15 ar  
    37   14   52 1   
    38   15   53 1   
    39   16   17 1   
    40   16   18 2   
    41   17   20 1   
    42   18   19 1   
    43   18   54 1   
    44   19   20 2   
    45   19   55 1   
    46   20   21 1   
    47   21   22 ar  
    48   21   26 ar  
    49   22   23 ar  
    50   22   56 1   
    51   23   24 ar  
    52   23   57 1   
    53   24   25 ar  
    54   24   27 1   
    55   25   26 ar  
    56   25   58 1   
    57   26   59 1   
    58   27   28 1   
    59   27   29 1   
    60   27   60 1   
    61   28   30 1   
    62   28   61 1   
    63   28   77 1   
    64   29   62 1   
    65   29   63 1   
    66   29   78 1   
    67   30   31 1   
    68   30   35 1   
    69   30   64 1   
    70   31   32 1   
    71   31   65 1   
    72   31   66 1   
    73   32   33 1   
    74   32   67 1   
    75   32   68 1   
    76   33   34 1   
    77   33   69 1   
    78   33   70 1   
    79   34   35 1   
    80   34   71 1   
    81   34   72 1   
    82   35   73 1   
    83   35   74 1   
@<TRIPOS>SUBSTRUCTURE
     1 D35         1 TEMP              0 ****  ****    0 ROOT
