@<TRIPOS>MOLECULE
D35
   75    79     1     0     0
SMALL
bcc


@<TRIPOS>ATOM
      1 C7         -5.7630    1.1020   -0.5400 c3        1 D35      0.447500
      2 N2         -6.7150    0.1410    0.0350 n3        1 D35     -0.863700
      3 N1         -6.1190    1.8140   -1.7670 n3        1 D35     -0.915800
      4 C8         -8.0530    0.6390    0.3030 c3        1 D35      0.183000
      5 C9         -9.0720    0.3850   -0.8240 c3        1 D35     -0.084650
      6 C10       -10.4160    0.9920   -0.4810 c3        1 D35     -0.076650
      7 C11       -10.9520    0.4430    0.8250 c3        1 D35     -0.078400
      8 C12        -9.9510    0.6300    1.9460 c3        1 D35     -0.076650
      9 C13        -8.6090    0.0220    1.6010 c3        1 D35     -0.084650
     10 C1         -1.9320   -0.8450   -1.0450 ca        1 D35     -0.124500
     11 C2         -2.0890    0.1940   -0.1140 ca        1 D35     -0.107000
     12 C3         -3.3240    0.8160    0.0440 ca        1 D35     -0.119750
     13 C4         -4.4180    0.4100   -0.7240 ca        1 D35     -0.076300
     14 C5         -4.2680   -0.6240   -1.6520 ca        1 D35     -0.119750
     15 C6         -3.0350   -1.2490   -1.8150 ca        1 D35     -0.107000
     16 CA         -0.6600   -1.5000   -1.2220 cc        1 D35      0.310200
     17 O1          0.4060   -1.0490   -0.4280 os        1 D35     -0.358800
     18 CB         -0.2300   -2.5300   -2.0460 cd        1 D35     -0.244800
     19 CB'         1.1650   -2.7410   -1.7620 cd        1 D35     -0.244800
     20 CA'         1.5200   -1.8290   -0.7780 cc        1 D35      0.310200
     21 C1'         2.7560   -1.5530   -0.0900 ca        1 D35     -0.124500
     22 C2'         2.8240   -0.5680    0.9080 ca        1 D35     -0.107000
     23 C3'         4.0270   -0.3140    1.5600 ca        1 D35     -0.119750
     24 C4'         5.1770   -1.0360    1.2290 ca        1 D35     -0.076300
     25 C5'         5.1120   -2.0210    0.2410 ca        1 D35     -0.119750
     26 C6'         3.9120   -2.2800   -0.4170 ca        1 D35     -0.107000
     27 C7'         6.5000   -0.7540    1.9310 c3        1 D35      0.447500
     28 N2'         6.9870    0.6170    1.6750 n3        1 D35     -0.863700
     29 N1'         6.3970   -1.1030    3.3470 n3        1 D35     -0.915800
     30 C8'         7.6740    0.7750    0.3970 c3        1 D35      0.183000
     31 C9'         7.5340    2.2000   -0.1650 c3        1 D35     -0.084650
     32 CAX         8.2210    2.3130   -1.5090 c3        1 D35     -0.076650
     33 CBX         9.6850    1.9350   -1.4170 c3        1 D35     -0.078400
     34 CCX         9.8530    0.5500   -0.8270 c3        1 D35     -0.076650
     35 CDX         9.1710    0.4360    0.5200 c3        1 D35     -0.084650
     36 H77        -5.6450    1.9130    0.2500 h2        1 D35      0.076200
     37 HN2        -6.7390   -0.7210   -0.4720 hn        1 D35      0.363300
     38 HN1        -6.1280    1.2120   -2.5650 hn        1 D35      0.352550
     39 HN2A       -7.0030    2.2730   -1.6800 hn        1 D35      0.352550
     40 H8         -7.9910    1.7580    0.4660 h1        1 D35      0.040200
     41 H91        -8.7070    0.8220   -1.7890 hc        1 D35      0.044450
     42 H92        -9.1890   -0.7200   -0.9790 hc        1 D35      0.044450
     43 H01       -10.3150    2.1070   -0.4050 hc        1 D35      0.040450
     44 H02       -11.1430    0.7760   -1.3060 hc        1 D35      0.040450
     45 H11       -11.9120    0.9610    1.0840 hc        1 D35      0.040700
     46 H12       -11.1800   -0.6490    0.7050 hc        1 D35      0.040700
     47 H21        -9.8260    1.7260    2.1550 hc        1 D35      0.040450
     48 H22       -10.3440    0.1530    2.8820 hc        1 D35      0.040450
     49 H31        -8.7150   -1.0870    1.4760 hc        1 D35      0.044450
     50 H32        -7.8900    0.2010    2.4420 hc        1 D35      0.044450
     51 H3         -3.4360    1.6290    0.7770 ha        1 D35      0.133750
     52 H5         -5.1240   -0.9510   -2.2620 ha        1 D35      0.133750
     53 H6         -2.9220   -2.0620   -2.5470 ha        1 D35      0.141250
     54 HB         -0.8210   -3.0830   -2.7710 ha        1 D35      0.161000
     55 HB'         1.8050   -3.4800   -2.2350 ha        1 D35      0.161000
     56 H2'         1.9190    0.0010    1.1710 ha        1 D35      0.141250
     57 H3'         4.0650    0.4580    2.3440 ha        1 D35      0.133750
     58 H5'         6.0110   -2.6020   -0.0190 ha        1 D35      0.133750
     59 H6'         3.8670   -3.0580   -1.1940 ha        1 D35      0.141250
     60 H7B         7.2850   -1.4620    1.5080 h2        1 D35      0.076200
     61 HN2'        6.2410    1.2810    1.7560 hn        1 D35      0.363300
     62 HN'1        7.2540   -0.8960    3.8230 hn        1 D35      0.352550
     63 HN'2        5.6510   -0.6040    3.7910 hn        1 D35      0.352550
     64 H8'         7.2330    0.0690   -0.3760 h1        1 D35      0.040200
     65 H9'1        6.4500    2.4600   -0.2830 hc        1 D35      0.044450
     66 H9'2        7.9860    2.9340    0.5530 hc        1 D35      0.044450
     67 H0'1        7.7080    1.6450   -2.2500 hc        1 D35      0.040450
     68 H0'2        8.1280    3.3650   -1.8850 hc        1 D35      0.040450
     69 H1'1       10.1470    1.9680   -2.4380 hc        1 D35      0.040700
     70 H1'2       10.2250    2.6820   -0.7780 hc        1 D35      0.040700
     71 H2'1        9.4250   -0.2110   -1.5320 hc        1 D35      0.040450
     72 H2'2       10.9440    0.3220   -0.7090 hc        1 D35      0.040450
     73 H3'1        9.6540    1.1340    1.2510 hc        1 D35      0.044450
     74 H3'2        9.2950   -0.6060    0.9130 hc        1 D35      0.044450
     75 H2         -1.2260    0.5130    0.4910 ha        1 D35      0.141250
@<TRIPOS>BOND
     1    1    2 1   
     2    1    3 1   
     3    1   13 1   
     4    1   36 1   
     5    2    4 1   
     6    2   37 1   
     7    3   38 1   
     8    3   39 1   
     9    4    5 1   
    10    4    9 1   
    11    4   40 1   
    12    5    6 1   
    13    5   41 1   
    14    5   42 1   
    15    6    7 1   
    16    6   43 1   
    17    6   44 1   
    18    7    8 1   
    19    7   45 1   
    20    7   46 1   
    21    8    9 1   
    22    8   47 1   
    23    8   48 1   
    24    9   49 1   
    25    9   50 1   
    26   10   11 ar  
    27   10   15 ar  
    28   10   16 1   
    29   11   12 ar  
    30   11   75 1   
    31   12   13 ar  
    32   12   51 1   
    33   13   14 ar  
    34   14   15 ar  
    35   14   52 1   
    36   15   53 1   
    37   16   17 1   
    38   16   18 2   
    39   17   20 1   
    40   18   19 1   
    41   18   54 1   
    42   19   20 2   
    43   19   55 1   
    44   20   21 1   
    45   21   22 ar  
    46   21   26 ar  
    47   22   23 ar  
    48   22   56 1   
    49   23   24 ar  
    50   23   57 1   
    51   24   25 ar  
    52   24   27 1   
    53   25   26 ar  
    54   25   58 1   
    55   26   59 1   
    56   27   28 1   
    57   27   29 1   
    58   27   60 1   
    59   28   30 1   
    60   28   61 1   
    61   29   62 1   
    62   29   63 1   
    63   30   31 1   
    64   30   35 1   
    65   30   64 1   
    66   31   32 1   
    67   31   65 1   
    68   31   66 1   
    69   32   33 1   
    70   32   67 1   
    71   32   68 1   
    72   33   34 1   
    73   33   69 1   
    74   33   70 1   
    75   34   35 1   
    76   34   71 1   
    77   34   72 1   
    78   35   73 1   
    79   35   74 1   
@<TRIPOS>SUBSTRUCTURE
     1 D35         1 TEMP              0 ****  ****    0 ROOT
