@<TRIPOS>MOLECULE
D35
   79    83     1     0     0
SMALL
bcc


@<TRIPOS>ATOM
      1 C7          1.7180   -0.5020   -1.0590 c3        1 D35      0.410500
      2 N2          0.4300    0.0200   -0.4610 ny        1 D35     -0.807000
      3 N1          2.6000   -1.2570   -0.0740 nz        1 D35     -0.868600
      4 C8         -0.6080   -1.0500   -0.1220 c3        1 D35      0.121500
      5 C9         -1.6260   -0.4850    0.8790 c3        1 D35     -0.104650
      6 C10        -2.6040   -1.5870    1.2590 c3        1 D35     -0.079900
      7 C11        -3.3010   -2.1540    0.0430 c3        1 D35     -0.099400
      8 C12        -2.3070   -2.6440   -0.9870 c3        1 D35     -0.079900
      9 C13        -1.3250   -1.5500   -1.3790 c3        1 D35     -0.104650
     10 C1          3.9830    2.6470   -2.9510 ca        1 D35     -0.024500
     11 C2          3.7160    2.7080   -1.5690 ca        1 D35     -0.097750
     12 C3          2.9880    1.7020   -0.9450 ca        1 D35     -0.080000
     13 C4          2.5110    0.6090   -1.6870 ca        1 D35     -0.274800
     14 C5          2.7750    0.5360   -3.0630 ca        1 D35     -0.080000
     15 C6          3.5020    1.5450   -3.6860 ca        1 D35     -0.097750
     16 CA          4.7220    3.6670   -3.6500 cc        1 D35      0.277200
     17 O1          5.2930    4.7330   -2.9300 os        1 D35     -0.350800
     18 CB          4.9990    3.8070   -5.0080 cd        1 D35     -0.172300
     19 CB'         5.7770    5.0020   -5.1560 cd        1 D35     -0.172300
     20 CA'         5.9420    5.5410   -3.8830 cc        1 D35      0.277200
     21 C1'         6.6420    6.7250   -3.4570 ca        1 D35     -0.024500
     22 C2'         6.6830    7.1480   -2.1130 ca        1 D35     -0.097750
     23 C3'         7.3750    8.2990   -1.7550 ca        1 D35     -0.080000
     24 C4'         8.0450    9.0550   -2.7310 ca        1 D35     -0.274800
     25 C5'         8.0100    8.6430   -4.0720 ca        1 D35     -0.080000
     26 C6'         7.3160    7.4930   -4.4280 ca        1 D35     -0.097750
     27 C7'         8.8100   10.3030   -2.3920 c3        1 D35      0.410500
     28 N2'         7.9080   11.3510   -1.7740 ny        1 D35     -0.807000
     29 N1'        10.0110    9.9360   -1.5300 nz        1 D35     -0.868600
     30 C8'         8.2480   12.7940   -2.1520 c3        1 D35      0.121500
     31 C9'         7.1730   13.7240   -1.5690 c3        1 D35     -0.104650
     32 CAX         7.4610   15.1520   -2.0020 c3        1 D35     -0.079900
     33 CBX         8.8390   15.5910   -1.5640 c3        1 D35     -0.099400
     34 CCX         9.9030   14.6550   -2.0890 c3        1 D35     -0.079900
     35 CDX         9.6390   13.2110   -1.6780 c3        1 D35     -0.104650
     36 H77         1.4060   -1.2730   -1.8490 hx        1 D35      0.170700
     37 HN2         0.0190    0.6420   -1.1790 hn        1 D35      0.473550
     38 HN1         3.4020   -1.6270   -0.6130 hn        1 D35      0.487800
     39 HN2A        2.1080   -2.0450    0.3670 hn        1 D35      0.487800
     40 H8         -0.0530   -1.9040    0.3640 hx        1 D35      0.101200
     41 H91        -2.1930    0.3660    0.4170 hc        1 D35      0.065200
     42 H92        -1.1120   -0.1130    1.8030 hc        1 D35      0.065200
     43 H01        -3.3660   -1.1530    1.9640 hc        1 D35      0.086075
     44 H02        -2.0650   -2.4010    1.8110 hc        1 D35      0.086075
     45 H11        -3.9700   -1.3770   -0.4130 hc        1 D35      0.090200
     46 H12        -3.9590   -3.0100    0.3580 hc        1 D35      0.090200
     47 H21        -1.7480   -3.5330   -0.5900 hc        1 D35      0.086075
     48 H22        -2.8530   -2.9770   -1.9110 hc        1 D35      0.086075
     49 H31        -1.8900   -0.7100   -1.8650 hc        1 D35      0.065200
     50 H32        -0.5930   -1.9610   -2.1220 hc        1 D35      0.065200
     51 H3          2.7910    1.7810    0.1360 ha        1 D35      0.151750
     52 H5          2.4110   -0.3120   -3.6700 ha        1 D35      0.151750
     53 H6          3.7000    1.4720   -4.7710 ha        1 D35      0.183750
     54 HB          4.6940    3.1500   -5.8250 ha        1 D35      0.198000
     55 HB'         6.1540    5.3920   -6.1040 ha        1 D35      0.198000
     56 H2'         6.1580    6.5560   -1.3430 ha        1 D35      0.183750
     57 H3'         7.3830    8.6070   -0.6980 ha        1 D35      0.151750
     58 H5'         8.5250    9.2220   -4.8590 ha        1 D35      0.151750
     59 H6'         7.2980    7.1830   -5.4890 ha        1 D35      0.183750
     60 H7B         9.2440   10.7750   -3.3420 hx        1 D35      0.170700
     61 HN2'        6.9530   11.1590   -2.1260 hn        1 D35      0.473550
     62 HN'1       10.5460   10.7650   -1.2330 hn        1 D35      0.487800
     63 HN'2       10.6240    9.3340   -2.1060 hn        1 D35      0.487800
     64 H8'         8.2030   12.8390   -3.2840 hx        1 D35      0.101200
     65 H9'1        7.1810   13.6720   -0.4480 hc        1 D35      0.065200
     66 H9'2        6.1550   13.4280   -1.9360 hc        1 D35      0.065200
     67 H0'1        7.3610   15.2410   -3.1160 hc        1 D35      0.086075
     68 H0'2        6.6840   15.8230   -1.5420 hc        1 D35      0.086075
     69 H1'1        9.0390   16.6290   -1.9500 hc        1 D35      0.090200
     70 H1'2        8.8900   15.6430   -0.4440 hc        1 D35      0.090200
     71 H2'1       10.9080   14.9590   -1.6870 hc        1 D35      0.086075
     72 H2'2        9.9550   14.7220   -3.2080 hc        1 D35      0.086075
     73 H3'1       10.4270   12.5710   -2.1540 hc        1 D35      0.065200
     74 H3'2        9.7170   13.1310   -0.5620 hc        1 D35      0.065200
     75 H221        0.6110    0.5940    0.3720 hn        1 D35      0.473550
     76 H13         2.9710   -0.6320    0.6530 hn        1 D35      0.487800
     77 H2'3        7.8750   11.2790   -0.7510 hn        1 D35      0.473550
     78 H1'3        9.7250    9.3950   -0.7040 hn        1 D35      0.487800
     79 H2          4.0890    3.5660   -0.9830 ha        1 D35      0.183750
@<TRIPOS>BOND
     1    1    2 1   
     2    1    3 1   
     3    1   13 1   
     4    1   36 1   
     5    2    4 1   
     6    2   37 1   
     7    2   75 1   
     8    3   38 1   
     9    3   39 1   
    10    3   76 1   
    11    4    5 1   
    12    4    9 1   
    13    4   40 1   
    14    5    6 1   
    15    5   41 1   
    16    5   42 1   
    17    6    7 1   
    18    6   43 1   
    19    6   44 1   
    20    7    8 1   
    21    7   45 1   
    22    7   46 1   
    23    8    9 1   
    24    8   47 1   
    25    8   48 1   
    26    9   49 1   
    27    9   50 1   
    28   10   11 ar  
    29   10   15 ar  
    30   10   16 1   
    31   11   12 ar  
    32   11   79 1   
    33   12   13 ar  
    34   12   51 1   
    35   13   14 ar  
    36   14   15 ar  
    37   14   52 1   
    38   15   53 1   
    39   16   17 1   
    40   16   18 2   
    41   17   20 1   
    42   18   19 1   
    43   18   54 1   
    44   19   20 2   
    45   19   55 1   
    46   20   21 1   
    47   21   22 ar  
    48   21   26 ar  
    49   22   23 ar  
    50   22   56 1   
    51   23   24 ar  
    52   23   57 1   
    53   24   25 ar  
    54   24   27 1   
    55   25   26 ar  
    56   25   58 1   
    57   26   59 1   
    58   27   28 1   
    59   27   29 1   
    60   27   60 1   
    61   28   30 1   
    62   28   61 1   
    63   28   77 1   
    64   29   62 1   
    65   29   63 1   
    66   29   78 1   
    67   30   31 1   
    68   30   35 1   
    69   30   64 1   
    70   31   32 1   
    71   31   65 1   
    72   31   66 1   
    73   32   33 1   
    74   32   67 1   
    75   32   68 1   
    76   33   34 1   
    77   33   69 1   
    78   33   70 1   
    79   34   35 1   
    80   34   71 1   
    81   34   72 1   
    82   35   73 1   
    83   35   74 1   
@<TRIPOS>SUBSTRUCTURE
     1 D35         1 TEMP              0 ****  ****    0 ROOT
