@<TRIPOS>MOLECULE
D36
   60    63     1     0     0
SMALL
bcc


@<TRIPOS>ATOM
      1 S          -0.4060   -0.0810    0.1550 s6        1 D36      1.470900
      2 C1          1.1510   -0.6050   -0.1380 c3        1 D36     -0.384300
      3 N1         -0.5360    0.1470    1.8030 nh        1 D36     -0.779200
      4 O1         -0.5650    1.2520   -0.3490 o         1 D36     -0.667800
      5 C2         -0.2970    1.4180    2.4150 c3        1 D36      0.217800
      6 N2         -2.0430    2.8120    1.2050 nz        1 D36     -0.834600
      7 O2         -1.3750   -0.9680   -0.3120 o         1 D36     -0.667800
      8 C3         -1.5290    2.3520    2.5210 c3        1 D36      0.075800
      9 N3         -1.0500   -4.4820    4.9120 nu        1 D36     -0.714300
     10 C4         -0.6750   -0.9810    2.6620 ca        1 D36      0.572200
     11 N4         -0.6530   -5.9610    6.7020 nb        1 D36     -0.736000
     12 C5         -1.3220   -0.9020    3.9160 ca        1 D36     -0.233300
     13 N5         -0.2550   -7.2490    8.8260 na        1 D36      0.001200
     14 C6         -1.4400   -2.0500    4.6970 ca        1 D36     -0.063000
     15 N6          0.0300   -6.9190   10.1030 nc        1 D36     -0.488100
     16 C7         -0.9060   -3.2700    4.2310 ca        1 D36      0.062300
     17 N7         -0.4730   -3.5100    7.0550 nb        1 D36     -0.771000
     18 C8         -0.7010   -4.6510    6.2770 ca        1 D36      0.880900
     19 N8         -0.1580   -2.1570    2.1870 nb        1 D36     -0.708000
     20 C9         -0.3800   -6.0960    8.0300 ca        1 D36      0.473800
     21 C10        -0.4410   -8.6340    8.3640 c3        1 D36      0.083000
     22 C11        -1.6240   -9.3060    9.0830 c3        1 D36     -0.087400
     23 C12        -2.1550  -10.4930    8.3110 c3        1 D36     -0.077400
     24 C13        -1.1270  -11.5730    8.0460 c3        1 D36     -0.080400
     25 C14        -0.1600  -11.2040    6.9420 c3        1 D36     -0.080400
     26 C15         1.0630  -10.4440    7.4100 c3        1 D36     -0.077400
     27 C16         0.8370   -9.4700    8.5470 c3        1 D36     -0.087400
     28 C17         0.1130   -5.5790   10.2110 cd        1 D36      0.380800
     29 C18        -0.1370   -4.9630    8.9260 ca        1 D36     -0.471500
     30 C19        -0.1990   -3.6910    8.3500 ca        1 D36      0.533200
     31 C20        -0.2790   -3.2490    2.9430 ca        1 D36      0.400200
     32 H1          1.5510   -0.1870   -1.1010 h1        1 D36      0.147700
     33 H1A         1.9150   -0.3490    0.6390 h1        1 D36      0.147700
     34 H1B         1.2100   -1.7240   -0.2430 h1        1 D36      0.147700
     35 H2          0.0710    1.2870    3.4770 h1        1 D36      0.093200
     36 H2A         0.5090    1.9590    1.8340 h1        1 D36      0.093200
     37 HN2        -2.5340    2.0460    0.7250 hn        1 D36      0.471133
     38 HN2A       -2.6780    3.6040    1.3200 hn        1 D36      0.471133
     39 H3         -1.2150    3.2620    3.1090 hx        1 D36      0.111200
     40 H3A        -2.3700    1.8340    3.0650 hx        1 D36      0.111200
     41 HN3        -0.9520   -5.3030    4.3460 hn        1 D36      0.455800
     42 H5         -1.7420    0.0440    4.2840 ha        1 D36      0.133000
     43 H6         -1.9580   -1.9880    5.6680 ha        1 D36      0.180000
     44 H10        -0.6790   -8.5580    7.2610 h1        1 D36      0.087700
     45 H11        -2.4630   -8.5710    9.2120 hc        1 D36      0.058200
     46 H11A       -1.3040   -9.6270   10.1090 hc        1 D36      0.058200
     47 H12        -2.5890  -10.1430    7.3360 hc        1 D36      0.044700
     48 H12A       -2.9980  -10.9380    8.9060 hc        1 D36      0.044700
     49 H13        -0.5670  -11.8080    8.9880 hc        1 D36      0.044700
     50 H13A       -1.6730  -12.5080    7.7450 hc        1 D36      0.044700
     51 H14        -0.6990  -10.6020    6.1620 hc        1 D36      0.044700
     52 H14A        0.1890  -12.1440    6.4350 hc        1 D36      0.044700
     53 H15         1.4910   -9.8900    6.5310 hc        1 D36      0.044700
     54 H15A        1.8450  -11.1780    7.7460 hc        1 D36      0.044700
     55 H16         0.7750  -10.0270    9.5190 hc        1 D36      0.058200
     56 H16A        1.7420   -8.8080    8.6150 hc        1 D36      0.058200
     57 H17         0.3380   -5.0840   11.1580 h4        1 D36      0.065800
     58 H19        -0.0210   -2.7730    8.9410 h4        1 D36      0.035100
     59 H20         0.1450   -4.1700    2.4970 h4        1 D36      0.043100
     60 H23        -1.2540    3.0750    0.5870 hn        1 D36      0.471133
@<TRIPOS>BOND
     1    1    2 1   
     2    1    3 1   
     3    1    4 2   
     4    1    7 2   
     5    2   32 1   
     6    2   33 1   
     7    2   34 1   
     8    3    5 1   
     9    3   10 1   
    10    5    8 1   
    11    5   35 1   
    12    5   36 1   
    13    6    8 1   
    14    6   37 1   
    15    6   38 1   
    16    6   60 1   
    17    8   39 1   
    18    8   40 1   
    19    9   16 1   
    20    9   18 1   
    21    9   41 1   
    22   10   12 ar  
    23   10   19 ar  
    24   11   18 ar  
    25   11   20 ar  
    26   12   14 ar  
    27   12   42 1   
    28   13   15 1   
    29   13   20 1   
    30   13   21 1   
    31   14   16 ar  
    32   14   43 1   
    33   15   28 2   
    34   16   31 ar  
    35   17   18 ar  
    36   17   30 ar  
    37   19   31 ar  
    38   20   29 ar  
    39   21   22 1   
    40   21   27 1   
    41   21   44 1   
    42   22   23 1   
    43   22   45 1   
    44   22   46 1   
    45   23   24 1   
    46   23   47 1   
    47   23   48 1   
    48   24   25 1   
    49   24   49 1   
    50   24   50 1   
    51   25   26 1   
    52   25   51 1   
    53   25   52 1   
    54   26   27 1   
    55   26   53 1   
    56   26   54 1   
    57   27   55 1   
    58   27   56 1   
    59   28   29 1   
    60   28   57 1   
    61   29   30 ar  
    62   30   58 1   
    63   31   59 1   
@<TRIPOS>SUBSTRUCTURE
     1 D36         1 TEMP              0 ****  ****    0 ROOT
