@<TRIPOS>MOLECULE
D36
   60    63     1     0     0
SMALL
bcc


@<TRIPOS>ATOM
      1 S          -0.2950   -0.0620    0.1770 s6        1 D36      1.470900
      2 C1          1.2860   -0.5450   -0.0450 c3        1 D36     -0.384300
      3 N1         -0.5050    0.1580    1.8180 nh        1 D36     -0.779200
      4 O1         -0.4650    1.2680   -0.3310 o         1 D36     -0.667800
      5 C2         -0.3280    1.4320    2.4430 c3        1 D36      0.217800
      6 N2         -2.0530    2.7840    1.1570 n4        1 D36     -0.834600
      7 O2         -1.2200   -0.9720   -0.3350 o         1 D36     -0.667800
      8 C3         -1.5870    2.3330    2.4950 c3        1 D36      0.075800
      9 N3         -1.0360   -4.4940    4.8910 nh        1 D36     -0.714300
     10 C4         -0.6530   -0.9770    2.6680 ca        1 D36      0.572200
     11 N4         -0.6770   -5.9680    6.6940 nb        1 D36     -0.736000
     12 C5         -1.3580   -0.9190    3.8920 ca        1 D36     -0.233300
     13 N5         -0.3370   -7.2520    8.8300 na        1 D36      0.001200
     14 C6         -1.4800   -2.0720    4.6640 ca        1 D36     -0.063000
     15 N6         -0.1170   -6.9180   10.1190 nc        1 D36     -0.488100
     16 C7         -0.8940   -3.2760    4.2200 ca        1 D36      0.061300
     17 N7         -0.5800   -3.5140    7.0600 nb        1 D36     -0.771000
     18 C8         -0.7430   -4.6580    6.2700 ca        1 D36      0.880900
     19 N8         -0.0850   -2.1380    2.2140 nb        1 D36     -0.708000
     20 C9         -0.4580   -6.1000    8.0320 ca        1 D36      0.473800
     21 C10        -0.4640   -8.6390    8.3570 c3        1 D36      0.083000
     22 C11        -1.6570   -9.3460    9.0220 c3        1 D36     -0.087400
     23 C12        -2.1220  -10.5440    8.2240 c3        1 D36     -0.077400
     24 C13        -1.0540  -11.5950    8.0020 c3        1 D36     -0.080400
     25 C14        -0.0500  -11.1950    6.9420 c3        1 D36     -0.080400
     26 C15         1.1300  -10.4030    7.4650 c3        1 D36     -0.077400
     27 C16         0.8280   -9.4410    8.5930 c3        1 D36     -0.087400
     28 C17        -0.0760   -5.5770   10.2340 cd        1 D36      0.380800
     29 C18        -0.2860   -4.9640    8.9410 ca        1 D36     -0.471500
     30 C19        -0.3580   -3.6910    8.3650 ca        1 D36      0.533200
     31 C20        -0.2100   -3.2340    2.9620 ca        1 D36      0.400200
     32 H1          1.3790   -1.6620   -0.1540 h1        1 D36      0.147700
     33 H1A         1.7200   -0.1120   -0.9870 h1        1 D36      0.147700
     34 H1B         2.0070   -0.2760    0.7670 h1        1 D36      0.147700
     35 H2         -0.0050    1.3070    3.5200 h1        1 D36      0.093200
     36 H2A         0.4890    1.9960    1.9010 h1        1 D36      0.093200
     37 HN2        -1.2440    3.0690    0.5760 hn        1 D36      0.471133
     38 HN2A       -2.5020    2.0070    0.6540 hn        1 D36      0.471133
     39 H3         -1.3250    3.2490    3.0980 hx        1 D36      0.111200
     40 H3A        -2.4390    1.7920    2.9980 hx        1 D36      0.111200
     41 HN3        -0.8920   -5.3100    4.3290 hn        1 D36      0.455800
     42 H5         -1.8180    0.0150    4.2420 ha        1 D36      0.133000
     43 H6         -2.0430   -2.0270    5.6110 ha        1 D36      0.180000
     44 H10        -0.6550   -8.5660    7.2450 h1        1 D36      0.087700
     45 H11        -2.5220   -8.6350    9.1160 hc        1 D36      0.058200
     46 H11A       -1.3740   -9.6620   10.0600 hc        1 D36      0.058200
     47 H12        -2.5220  -10.2020    7.2330 hc        1 D36      0.044700
     48 H12A       -2.9780  -11.0150    8.7810 hc        1 D36      0.044700
     49 H13        -1.5600  -12.5430    7.6740 hc        1 D36      0.044700
     50 H13A       -0.5290  -11.8180    8.9670 hc        1 D36      0.044700
     51 H14         0.3470  -12.1230    6.4480 hc        1 D36      0.044700
     52 H14A       -0.5710  -10.6050    6.1400 hc        1 D36      0.044700
     53 H15         1.9160  -11.1170    7.8330 hc        1 D36      0.044700
     54 H15A        1.5810   -9.8350    6.6070 hc        1 D36      0.044700
     55 H16         0.7390  -10.0020    9.5610 hc        1 D36      0.058200
     56 H16A        1.7100   -8.7540    8.7030 hc        1 D36      0.058200
     57 H17         0.0940   -5.0790   11.1900 h4        1 D36      0.065800
     58 H19        -0.2310   -2.7710    8.9660 h4        1 D36      0.035100
     59 H20         0.2560   -4.1430    2.5330 h4        1 D36      0.043100
     60 H23        -2.7130    3.5580    1.2450 hn        1 D36      0.471133
@<TRIPOS>BOND
     1    1    2 1   
     2    1    3 1   
     3    1    4 2   
     4    1    7 2   
     5    2   32 1   
     6    2   33 1   
     7    2   34 1   
     8    3    5 1   
     9    3   10 1   
    10    5    8 1   
    11    5   35 1   
    12    5   36 1   
    13    6    8 1   
    14    6   37 1   
    15    6   38 1   
    16    6   60 1   
    17    8   39 1   
    18    8   40 1   
    19    9   16 1   
    20    9   18 1   
    21    9   41 1   
    22   10   12 ar  
    23   10   19 ar  
    24   11   18 ar  
    25   11   20 ar  
    26   12   14 ar  
    27   12   42 1   
    28   13   15 1   
    29   13   20 1   
    30   13   21 1   
    31   14   16 ar  
    32   14   43 1   
    33   15   28 2   
    34   16   31 ar  
    35   17   18 ar  
    36   17   30 ar  
    37   19   31 ar  
    38   20   29 ar  
    39   21   22 1   
    40   21   27 1   
    41   21   44 1   
    42   22   23 1   
    43   22   45 1   
    44   22   46 1   
    45   23   24 1   
    46   23   47 1   
    47   23   48 1   
    48   24   25 1   
    49   24   49 1   
    50   24   50 1   
    51   25   26 1   
    52   25   51 1   
    53   25   52 1   
    54   26   27 1   
    55   26   53 1   
    56   26   54 1   
    57   27   55 1   
    58   27   56 1   
    59   28   29 1   
    60   28   57 1   
    61   29   30 ar  
    62   30   58 1   
    63   31   59 1   
@<TRIPOS>SUBSTRUCTURE
     1 D36         1 TEMP              0 ****  ****    0 ROOT
