@<TRIPOS>MOLECULE
D36
   62    64     1     0     0
SMALL
bcc


@<TRIPOS>ATOM
      1 S           2.2680    0.2090    2.5100 s4        1 D36      1.690500
      2 C1          2.9230   -0.2340    1.1360 c3        1 D36     -0.606800
      3 N1         -1.4620    0.1970    2.5640 nh        1 D36     -0.866900
      4 O1          2.7680   -0.3170    3.6380 o         1 D36     -0.402400
      5 C2         -2.7060    0.7460    3.0290 c3        1 D36      0.196800
      6 N2         -4.8600    1.8380    2.2650 n4        1 D36     -0.835600
      7 O2          1.3400    1.1860    2.4630 o         1 D36     -0.402400
      8 C3         -3.7130    0.9780    1.8670 c3        1 D36      0.069800
      9 N3          0.2420   -5.0960    3.5110 n4        1 D36     -0.597100
     10 C4         -1.0580   -1.1060    2.8160 ca        1 D36      0.751200
     11 N4          0.3490   -6.1380    5.6880 nb        1 D36     -0.643000
     12 C5         -2.0140   -2.1220    3.1570 ca        1 D36     -0.282300
     13 N5          0.8170   -7.1030    7.9740 na        1 D36      0.062200
     14 C6         -1.6050   -3.4200    3.3940 ca        1 D36      0.021000
     15 N6          1.7780   -6.9170    8.8910 nc        1 D36     -0.426100
     16 C7         -0.2310   -3.7380    3.2730 ca        1 D36     -0.175700
     17 N7          2.0660   -4.4710    5.0100 nb        1 D36     -0.752000
     18 C8          0.9300   -5.2450    4.8450 ca        1 D36      0.690900
     19 N8          0.2860   -1.4290    2.6960 nb        1 D36     -0.918000
     20 C9          1.0440   -6.2900    6.8570 ca        1 D36      0.419800
     21 C10        -0.2780   -8.0980    8.1250 c3        1 D36      0.075000
     22 C11        -1.0710   -7.8410    9.4160 c3        1 D36     -0.090400
     23 C12        -2.4450   -8.4740    9.3600 c3        1 D36     -0.079400
     24 C13        -2.4340   -9.9700    9.1260 c3        1 D36     -0.084900
     25 C14        -2.1320  -10.3380    7.6890 c3        1 D36     -0.084900
     26 C15        -0.6590  -10.4880    7.3760 c3        1 D36     -0.079400
     27 C16         0.2680   -9.5340    8.1010 c3        1 D36     -0.090400
     28 C17         2.6660   -5.9930    8.4560 cd        1 D36      0.394800
     29 C18         2.2780   -5.5270    7.1480 ca        1 D36     -0.397500
     30 C19         2.7250   -4.6330    6.1690 ca        1 D36      0.543200
     31 C20         0.6600   -2.7010    2.9280 ca        1 D36      0.526200
     32 H1          2.2300   -0.6500    0.3390 h1        1 D36      0.225700
     33 H1A         3.7450   -1.0180    1.2000 h1        1 D36      0.225700
     34 H1B         3.4430    0.5970    0.5450 h1        1 D36      0.225700
     35 H2         -3.1840    0.0810    3.8040 h1        1 D36      0.092200
     36 H2A        -2.4790    1.7400    3.5230 h1        1 D36      0.092200
     37 HN2        -5.5000    1.9500    1.4640 hn        1 D36      0.478133
     38 HN2A       -5.3830    1.4180    3.0430 hn        1 D36      0.478133
     39 H3         -3.1990    1.4800    0.9940 hx        1 D36      0.126200
     40 H3A        -4.1270   -0.0110    1.5150 hx        1 D36      0.126200
     41 HN3        -0.5570   -5.7510    3.4710 hn        1 D36      0.485300
     42 H5         -3.0870   -1.8840    3.2270 ha        1 D36      0.175000
     43 H6         -2.3530   -4.1880    3.6700 ha        1 D36      0.195000
     44 H10        -0.9510   -7.9330    7.2340 h1        1 D36      0.078700
     45 H11        -1.2000   -6.7380    9.5830 hc        1 D36      0.067450
     46 H11A       -0.4990   -8.2460   10.2940 hc        1 D36      0.067450
     47 H12        -3.0570   -7.9730    8.5640 hc        1 D36      0.052450
     48 H12A       -2.9500   -8.2690   10.3440 hc        1 D36      0.052450
     49 H13        -1.6990  -10.4620    9.8150 hc        1 D36      0.054450
     50 H13A       -3.4500  -10.3700    9.3910 hc        1 D36      0.054450
     51 H14        -2.5870   -9.5730    7.0040 hc        1 D36      0.054450
     52 H14A       -2.6360  -11.3160    7.4530 hc        1 D36      0.054450
     53 H15        -0.3330  -11.5320    7.6390 hc        1 D36      0.052450
     54 H15A       -0.5170  -10.3720    6.2680 hc        1 D36      0.052450
     55 H16         1.2710   -9.5800    7.5980 hc        1 D36      0.067450
     56 H16A        0.4240   -9.8830    9.1570 hc        1 D36      0.067450
     57 H17         3.5320   -5.6930    9.0570 h4        1 D36      0.099800
     58 H19         3.6420   -4.0210    6.3000 h4        1 D36      0.072100
     59 H20         1.7530   -2.8950    2.8530 h4        1 D36      0.061100
     60 H111       -0.7760    0.8780    2.3040 hn        1 D36      0.474800
     61 H23        -4.5350    2.7700    2.5550 hn        1 D36      0.478133
     62 H32         0.9230   -5.3580    2.7820 hn        1 D36      0.485300
@<TRIPOS>BOND
     1    1    2 1   
     2    1    4 1   
     3    1    7 1   
     4    2   32 1   
     5    2   33 1   
     6    2   34 1   
     7    3    5 1   
     8    3   10 1   
     9    3   60 1   
    10    5    8 1   
    11    5   35 1   
    12    5   36 1   
    13    6    8 1   
    14    6   37 1   
    15    6   38 1   
    16    6   61 1   
    17    8   39 1   
    18    8   40 1   
    19    9   16 1   
    20    9   18 1   
    21    9   41 1   
    22    9   62 1   
    23   10   12 ar  
    24   10   19 ar  
    25   11   18 ar  
    26   11   20 ar  
    27   12   14 ar  
    28   12   42 1   
    29   13   15 1   
    30   13   20 1   
    31   13   21 1   
    32   14   16 ar  
    33   14   43 1   
    34   15   28 2   
    35   16   31 ar  
    36   17   18 ar  
    37   17   30 ar  
    38   19   31 ar  
    39   20   29 ar  
    40   21   22 1   
    41   21   27 1   
    42   21   44 1   
    43   22   23 1   
    44   22   45 1   
    45   22   46 1   
    46   23   24 1   
    47   23   47 1   
    48   23   48 1   
    49   24   25 1   
    50   24   49 1   
    51   24   50 1   
    52   25   26 1   
    53   25   51 1   
    54   25   52 1   
    55   26   27 1   
    56   26   53 1   
    57   26   54 1   
    58   27   55 1   
    59   27   56 1   
    60   28   29 1   
    61   28   57 1   
    62   29   30 ar  
    63   30   58 1   
    64   31   59 1   
@<TRIPOS>SUBSTRUCTURE
     1 D36         1 TEMP              0 ****  ****    0 ROOT
