@<TRIPOS>MOLECULE
D36
   59    62     1     0     0
SMALL
bcc


@<TRIPOS>ATOM
      1 S           5.9370    1.5120   -0.2140 s6        1 D36      1.458900
      2 C1          5.4110    2.1600   -1.6900 c3        1 D36     -0.359300
      3 N1          5.1290    0.0640   -0.0790 nh        1 D36     -0.765200
      4 O1          7.3160    1.2270   -0.3370 o         1 D36     -0.644300
      5 C2          5.8420   -1.1840   -0.2170 c3        1 D36      0.211800
      6 N2          6.9780   -3.0350    0.9580 n3        1 D36     -0.917800
      7 O2          5.5960    2.3830    0.8310 o         1 D36     -0.644300
      8 C3          6.4750   -1.6920    1.1040 c3        1 D36      0.134800
      9 N3         -0.3800    0.1220    0.9560 nh        1 D36     -0.693300
     10 C4          3.7440    0.0100    0.1840 ca        1 D36      0.650200
     11 N4         -2.6240   -0.2680    0.3200 nb        1 D36     -0.756000
     12 C5          3.1230   -1.1340    0.7540 ca        1 D36     -0.262300
     13 N5         -4.9150   -1.0630   -0.3460 na        1 D36     -0.009800
     14 C6          1.7520   -1.1240    0.9920 ca        1 D36     -0.039000
     15 N6         -5.4120   -2.1880   -0.9060 nc        1 D36     -0.505100
     16 C7          0.9970    0.0190    0.6640 ca        1 D36     -0.017700
     17 N7         -0.8770   -1.9700   -0.1530 nb        1 D36     -0.752000
     18 C8         -1.3220   -0.7310    0.3320 ca        1 D36      0.883900
     19 N8          3.0170    1.1290   -0.1360 nb        1 D36     -0.723000
     20 C9         -3.5190   -1.1610   -0.1860 ca        1 D36      0.479800
     21 C10        -5.7380    0.0930    0.0280 c3        1 D36      0.085000
     22 C11        -6.8070   -0.2950    1.0650 c3        1 D36     -0.086900
     23 C12        -7.3140    0.9040    1.8340 c3        1 D36     -0.076900
     24 C13        -7.9160    1.9910    0.9680 c3        1 D36     -0.078900
     25 C14        -6.8680    2.8120    0.2470 c3        1 D36     -0.078900
     26 C15        -6.4520    2.2550   -1.0980 c3        1 D36     -0.076900
     27 C16        -6.4010    0.7460   -1.1970 c3        1 D36     -0.086900
     28 C17        -4.4060   -3.0530   -1.1330 cd        1 D36      0.380800
     29 C18        -3.1510   -2.4780   -0.7020 ca        1 D36     -0.484500
     30 C19        -1.7890   -2.8040   -0.6510 ca        1 D36      0.530200
     31 C20         1.7030    1.1210    0.1010 ca        1 D36      0.414200
     32 H1          4.6310    2.9500   -1.5400 h1        1 D36      0.122367
     33 H1A         6.2620    2.6460   -2.2320 h1        1 D36      0.122367
     34 H1B         4.9670    1.4290   -2.4080 h1        1 D36      0.122367
     35 H2          5.1540   -1.9690   -0.6420 h1        1 D36      0.071700
     36 H2A         6.6760   -1.0240   -0.9630 h1        1 D36      0.071700
     37 HN2         7.5820   -3.2690    1.7190 hn        1 D36      0.354800
     38 HN2A        6.2320   -3.6980    0.9040 hn        1 D36      0.354800
     39 H3          7.3410   -1.0150    1.3580 h1        1 D36      0.042200
     40 H3A         5.7180   -1.6000    1.9380 h1        1 D36      0.042200
     41 HN3        -0.6970    1.0630    1.0890 hn        1 D36      0.439800
     42 H5          3.7120   -2.0220    1.0210 ha        1 D36      0.150000
     43 H6          1.2720   -2.0100    1.4370 ha        1 D36      0.164000
     44 H10        -5.0270    0.8350    0.5010 h1        1 D36      0.089700
     45 H11        -7.6600   -0.8080    0.5480 hc        1 D36      0.056200
     46 H11A       -6.3780   -1.0260    1.8020 hc        1 D36      0.056200
     47 H12        -8.0980    0.5440    2.5540 hc        1 D36      0.043200
     48 H12A       -6.4780    1.3350    2.4480 hc        1 D36      0.043200
     49 H13        -8.6280    1.5400    0.2290 hc        1 D36      0.041950
     50 H13A       -8.5140    2.6740    1.6290 hc        1 D36      0.041950
     51 H14        -7.2680    3.8500    0.0850 hc        1 D36      0.041950
     52 H14A       -5.9630    2.9170    0.9030 hc        1 D36      0.041950
     53 H15        -7.1690    2.6210   -1.8830 hc        1 D36      0.043200
     54 H15A       -5.4430    2.6750   -1.3560 hc        1 D36      0.043200
     55 H16        -5.8450    0.4840   -2.1370 hc        1 D36      0.056200
     56 H16A       -7.4380    0.3350   -1.3150 hc        1 D36      0.056200
     57 H17        -4.5710   -4.0340   -1.5800 h4        1 D36      0.057800
     58 H19        -1.4090   -3.7730   -1.0270 h4        1 D36      0.032100
     59 H20         1.1810    2.0590   -0.1690 h4        1 D36      0.027100
@<TRIPOS>BOND
     1    1    2 1   
     2    1    3 1   
     3    1    4 2   
     4    1    7 2   
     5    2   32 1   
     6    2   33 1   
     7    2   34 1   
     8    3    5 1   
     9    3   10 1   
    10    5    8 1   
    11    5   35 1   
    12    5   36 1   
    13    6    8 1   
    14    6   37 1   
    15    6   38 1   
    16    8   39 1   
    17    8   40 1   
    18    9   16 1   
    19    9   18 1   
    20    9   41 1   
    21   10   12 ar  
    22   10   19 ar  
    23   11   18 ar  
    24   11   20 ar  
    25   12   14 ar  
    26   12   42 1   
    27   13   15 1   
    28   13   20 1   
    29   13   21 1   
    30   14   16 ar  
    31   14   43 1   
    32   15   28 2   
    33   16   31 ar  
    34   17   18 ar  
    35   17   30 ar  
    36   19   31 ar  
    37   20   29 ar  
    38   21   22 1   
    39   21   27 1   
    40   21   44 1   
    41   22   23 1   
    42   22   45 1   
    43   22   46 1   
    44   23   24 1   
    45   23   47 1   
    46   23   48 1   
    47   24   25 1   
    48   24   49 1   
    49   24   50 1   
    50   25   26 1   
    51   25   51 1   
    52   25   52 1   
    53   26   27 1   
    54   26   53 1   
    55   26   54 1   
    56   27   55 1   
    57   27   56 1   
    58   28   29 1   
    59   28   57 1   
    60   29   30 ar  
    61   30   58 1   
    62   31   59 1   
@<TRIPOS>SUBSTRUCTURE
     1 D36         1 TEMP              0 ****  ****    0 ROOT
