@<TRIPOS>MOLECULE
D36
   59    53     1     0     0
SMALL
bcc


@<TRIPOS>ATOM
      1 S           1.0790    6.4270   -2.1050 ss        1 D36      2.820000
      2 C1          0.6120    7.7670   -1.0920 c2        1 D36     -0.937000
      3 N1         -0.2670    5.5880   -2.5940 n2        1 D36     -0.769000
      4 O1          1.8620    6.8690   -3.2330 o         1 D36     -0.920000
      5 C2         -1.2270    6.2160   -3.4030 c3        1 D36     -0.014000
      6 N2         -1.4950    7.1350   -5.5810 n3        1 D36     -0.349000
      7 O2          2.0110    5.5740   -1.4400 o         1 D36     -0.920000
      8 C3         -0.7600    6.2020   -4.8450 c3        1 D36     -0.115000
      9 N3         -0.3890    0.2430   -0.9430 n3        1 D36     -0.216000
     10 C4         -0.4980    4.2770   -2.1110 c2        1 D36      0.096000
     11 N4         -0.0510   -1.6080    0.6640 n1        1 D36     -0.230000
     12 C5         -1.6510    3.6870   -1.5670 c2        1 D36     -0.157000
     13 N5          0.4970   -3.3240    2.3770 n2        1 D36     -0.145000
     14 C6         -1.6080    2.3900   -1.1050 c1        1 D36     -0.123000
     15 N6          1.2060   -3.2620    3.5350 n2        1 D36     -0.040000
     16 C7         -0.4380    1.6760   -1.1770 c1        1 D36     -0.007000
     17 N7          0.8230    0.5590    1.1150 n1        1 D36     -0.219000
     18 C8          0.1060   -0.2690    0.3160 c1        1 D36      0.163000
     19 N8          0.6740    3.5590   -2.1830 n1        1 D36     -0.153000
     20 C9          0.5140   -2.0890    1.8080 c1        1 D36      0.086000
     21 C10         0.1110   -4.7220    2.2170 c2        1 D36      0.066000
     22 C11        -0.9010   -5.0730    3.2640 c3        1 D36     -0.165500
     23 C12        -1.5690   -6.3830    2.9490 c3        1 D36     -0.156000
     24 C13        -0.5310   -7.4990    2.7830 c3        1 D36     -0.157500
     25 C14         0.0390   -7.5110    1.3650 c3        1 D36     -0.157500
     26 C15         1.3410   -6.7180    1.2980 c3        1 D36     -0.156000
     27 C16         1.3540   -5.6030    2.3420 c3        1 D36     -0.165500
     28 C17         1.6590   -1.9990    3.6810 c1        1 D36     -0.118000
     29 C18         1.2290   -1.2690    2.6080 c1        1 D36     -0.268000
     30 C19         1.3890    0.0790    2.2600 c1        1 D36      0.068000
     31 C20         0.7180    2.2710   -1.7230 c1        1 D36     -0.009000
     32 H1          0.4800    8.5600   -1.6430 ha        1 D36      0.153000
     33 H1A        -0.2400    7.5460   -0.6210 ha        1 D36      0.153000
     34 H1B         1.3130    7.9410   -0.4340 ha        1 D36      0.153000
     35 H2         -1.3520    7.1700   -3.0970 h1        1 D36      0.096000
     36 H2A        -2.0930    5.7270   -3.3310 h1        1 D36      0.096000
     37 HN2        -1.0520    7.9370   -5.5870 hn        1 D36      0.148000
     38 HN2A       -1.5920    6.8360   -6.4360 hn        1 D36      0.148000
     39 H3         -0.8950    5.3050   -5.2240 h1        1 D36      0.091000
     40 H3A         0.1660    6.4260   -4.8820 h1        1 D36      0.091000
     41 HN3        -0.6570   -0.3470   -1.6110 hn        1 D36      0.232000
     42 H5         -2.4670    4.1870   -1.5170 ha        1 D36      0.150000
     43 H6         -2.4410    1.9630   -0.7100 ha        1 D36      0.142000
     44 H10        -0.2810   -4.8460    1.3390 ha        1 D36      0.128000
     45 H11        -1.5920   -4.3530    3.3060 hc        1 D36      0.095500
     46 H11A       -0.4610   -5.1410    4.1200 hc        1 D36      0.095500
     47 H12        -2.0810   -6.2920    2.1250 hc        1 D36      0.082250
     48 H12A       -2.1820   -6.6180    3.6860 hc        1 D36      0.082250
     49 H13         0.2100   -7.3540    3.4310 hc        1 D36      0.080750
     50 H13A       -0.9540   -8.3600    2.9650 hc        1 D36      0.080750
     51 H14         0.2140   -8.4470    1.0940 hc        1 D36      0.080750
     52 H14A       -0.6100   -7.1150    0.7550 hc        1 D36      0.080750
     53 H15         1.4400   -6.3090    0.3690 hc        1 D36      0.082250
     54 H15A        2.1110   -7.3340    1.4680 hc        1 D36      0.082250
     55 H16         1.3780   -6.0070    3.2480 hc        1 D36      0.095500
     56 H16A        2.1470   -5.0570    2.2150 hc        1 D36      0.095500
     57 H17         2.1900   -1.6700    4.4110 DU        1 D36      0.188000
     58 H19         1.9210    0.6940    2.8540 ha        1 D36      0.175000
     59 H20         1.5420    1.7690   -1.7730 ha        1 D36      0.191000
@<TRIPOS>BOND
     1    1    4 1   
     2    1    7 1   
     3    2   32 1   
     4    2   33 1   
     5    2   34 1   
     6    3    5 1   
     7    3   10 1   
     8    5    8 1   
     9    5   35 1   
    10    5   36 1   
    11    6    8 1   
    12    6   37 1   
    13    6   38 1   
    14    8   39 1   
    15    8   40 1   
    16    9   16 1   
    17    9   18 1   
    18    9   41 1   
    19   10   12 1   
    20   10   19 1   
    21   11   20 1   
    22   12   14 1   
    23   12   42 1   
    24   13   15 1   
    25   13   20 1   
    26   14   43 1   
    27   15   28 1   
    28   16   31 1   
    29   17   18 1   
    30   21   22 1   
    31   21   27 1   
    32   21   44 1   
    33   22   23 1   
    34   22   45 1   
    35   22   46 1   
    36   23   24 1   
    37   23   47 1   
    38   23   48 1   
    39   24   25 1   
    40   24   49 1   
    41   24   50 1   
    42   25   26 1   
    43   25   51 1   
    44   25   52 1   
    45   26   27 1   
    46   26   53 1   
    47   26   54 1   
    48   27   55 1   
    49   27   56 1   
    50   28   29 1   
    51   29   30 1   
    52   30   58 1   
    53   31   59 1   
@<TRIPOS>SUBSTRUCTURE
     1 D36         1 TEMP              0 ****  ****    0 ROOT
