@<TRIPOS>MOLECULE
D37
   51    50     1     0     0
SMALL
bcc


@<TRIPOS>ATOM
      1 N1          0.2620   -1.1760   -0.3360 n3        1 D37     -0.890000
      2 N3         -4.9390   -4.8110    3.5270 n2        1 D37     -0.285000
      3 C4         -3.4020   -1.2500    1.5300 c1        1 D37     -0.637000
      4 C5         -2.7250   -2.1270    2.2920 c2        1 D37      0.336000
      5 C6         -4.4360   -3.8840    2.5620 c2        1 D37      0.267000
      6 C7         -6.1340   -5.2950    3.2260 c2        1 D37      0.091000
      7 C8         -6.6990   -6.8590    5.0800 c3        1 D37      0.011000
      8 C10        -4.7250  -10.9130    6.1460 c1        1 D37     -0.220000
      9 C13        -7.2200   -6.0120    7.3790 c3        1 D37     -0.212000
     10 C15        -8.0150   -5.8620    1.8710 c1        1 D37      0.057000
     11 C17        -6.1790   -4.1340    1.0090 c1        1 D37      0.013000
     12 S           1.7820   -0.5990   -0.3470 s6        1 D37      2.817000
     13 O1          2.3200   -0.7990    0.9470 o         1 D37     -0.931500
     14 C1          2.5900   -1.6330   -1.4210 c3        1 D37     -0.947000
     15 C2         -0.1580   -2.2110    0.5640 c3        1 D37      0.036000
     16 N7         -0.2780   -1.7990    1.9820 n3        1 D37     -0.144000
     17 C18        -1.3590   -1.8000    2.6810 c1        1 D37     -0.126000
     18 C3         -4.0350   -0.4310    0.8020 c1        1 D37      0.185000
     19 N6         -4.9570   -3.7280    1.2810 n2        1 D37     -0.266000
     20 C16        -7.0280   -4.7310    2.1020 c3        1 D37     -0.287000
     21 N5         -7.7980   -6.7640    2.8350 n3        1 D37     -0.200000
     22 N4         -6.6500   -6.5720    3.6320 n3        1 D37     -0.135000
     23 C14        -7.5160   -5.8560    5.9100 c3        1 D37     -0.180000
     24 C12        -8.4140   -8.6900    5.2710 c2        1 D37     -0.208000
     25 C11        -4.9460  -11.8600    5.4510 c1        1 D37     -0.220000
     26 C9         -7.1540   -8.2690    5.3390 c2        1 D37     -0.172000
     27 HN1        -0.4800   -0.7330   -0.8280 hn        1 D37      0.267000
     28 H4         -1.1640   -2.6140    0.2340 h2        1 D37      0.124500
     29 H8         -5.6140   -6.7710    5.4050 h1        1 D37      0.138000
     30 H10        -4.4620   -7.9260    7.5550 ha        1 D37      0.001000
     31 H10A       -5.1040   -7.8640    7.3450 ha        1 D37      0.001000
     32 H13        -6.1490   -5.7760    7.5940 hc        1 D37      0.082000
     33 H13A       -7.4220   -7.0590    7.7130 hc        1 D37      0.082000
     34 H15        -8.2460   -7.6480    2.9450 hn        1 D37      0.278000
     35 H17        -7.6430   -3.8480    2.4620 hc        1 D37      0.201000
     36 H1          2.5890   -2.7040   -1.1040 h1        1 D37      0.160000
     37 H1A         2.1810   -1.6070   -2.4610 h1        1 D37      0.160000
     38 H1B         3.6680   -1.3380   -1.5090 h1        1 D37      0.160000
     39 H18         0.5670   -1.4480    2.4080 hn        1 D37      0.282000
     40 H3          0.6100   -3.0460    0.5370 h2        1 D37      0.124500
     41 HN2        -2.8330   -3.5130    3.8070 hn        1 D37      0.268000
     42 H14        -8.6110   -6.0090    5.7220 hc        1 D37      0.090500
     43 H14A       -7.2610   -4.8100    5.5910 hc        1 D37      0.090500
     44 H12        -7.8620   -5.3180    7.9740 hc        1 D37      0.082000
     45 H12A       -8.6870   -9.7330    5.4850 ha        1 D37      0.121500
     46 H11        -5.1430  -12.7000    4.8330 ha        1 D37      0.220000
     47 H11A       -9.2620   -8.0370    5.0210 ha        1 D37      0.121500
     48 H9         -6.3340   -8.9630    5.6000 ha        1 D37      0.143000
     49 H9A        -4.5190  -10.0760    6.7660 ha        1 D37      0.220000
     50 N2         -3.2750   -3.2260    2.9540 n3        1 D37     -0.239000
     51 O2          1.7990    0.7010   -0.8760 o         1 D37     -0.931500
@<TRIPOS>BOND
     1    1   12 1   
     2    1   15 1   
     3    1   27 1   
     4    2    5 1   
     5    2    6 1   
     6    3    4 1   
     7    3   18 1   
     8    4   17 1   
     9    4   50 1   
    10    5   19 1   
    11    5   50 1   
    12    6   20 1   
    13    6   22 1   
    14    7   22 1   
    15    7   23 1   
    16    7   26 1   
    17    7   29 1   
    18    8   25 1   
    19    8   49 1   
    20    9   23 1   
    21    9   32 1   
    22    9   33 1   
    23    9   44 1   
    24   10   20 1   
    25   10   21 1   
    26   11   19 1   
    27   11   20 1   
    28   12   13 1   
    29   12   14 1   
    30   12   51 1   
    31   14   36 1   
    32   14   37 1   
    33   14   38 1   
    34   15   16 1   
    35   15   28 1   
    36   15   40 1   
    37   16   17 1   
    38   16   39 1   
    39   20   35 1   
    40   21   22 1   
    41   21   34 1   
    42   23   42 1   
    43   23   43 1   
    44   24   26 1   
    45   24   45 1   
    46   24   47 1   
    47   25   46 1   
    48   26   48 1   
    49   30   31 1   
    50   41   50 1   
@<TRIPOS>SUBSTRUCTURE
     1 D37         1 TEMP              0 ****  ****    0 ROOT
