@<TRIPOS>MOLECULE
D37
   51    50     1     0     0
SMALL
bcc


@<TRIPOS>ATOM
      1 N1          0.9570   -0.0760    1.5200 n7        1 D37     -0.815000
      2 N3         -4.9990   -5.4390    3.0210 n2        1 D37     -0.280000
      3 C4         -2.3930   -3.8850   -0.0810 c1        1 D37     -0.161000
      4 C5         -2.2050   -3.6940    1.3090 c2        1 D37      0.252000
      5 C6         -4.3800   -4.6540    1.9980 c2        1 D37      0.248000
      6 C7         -6.3130   -5.5300    2.9150 c2        1 D37      0.078000
      7 C8         -7.0390   -6.9950    4.7890 c3        1 D37      0.006000
      8 C10        -4.2080  -10.6150    7.4800 c1        1 D37     -0.220000
      9 C13        -6.9780   -6.1820    7.1580 c3        1 D37     -0.212000
     10 C15        -8.4590   -5.4320    1.8760 c1        1 D37      0.045000
     11 C17        -6.3440   -4.2480    0.7800 c1        1 D37     -0.050000
     12 S           2.4050   -0.3930    0.8510 s6        1 D37      2.814000
     13 O1          2.6610   -1.7780    0.9950 o         1 D37     -0.938000
     14 C1          2.1960   -0.0520   -0.7940 c3        1 D37     -0.948000
     15 C2         -0.1410   -0.9150    1.3270 c2        1 D37     -0.222000
     16 N7         -0.1390   -2.2280    1.6730 n7        1 D37      0.145000
     17 C18        -1.1990   -2.9780    1.7940 c1        1 D37     -0.386000
     18 C3         -2.5430   -4.0320   -1.2590 c1        1 D37     -0.116000
     19 N6         -5.0450   -4.2660    0.8100 n2        1 D37     -0.265000
     20 C16        -7.1640   -4.6470    1.9780 c3        1 D37     -0.259000
     21 N5         -8.3710   -6.4380    2.7540 n7        1 D37     -0.201000
     22 N4         -7.1120   -6.6490    3.3550 n3        1 D37     -0.133000
     23 C14        -7.4080   -5.8550    5.7520 c3        1 D37     -0.180000
     24 C12        -9.1640   -8.2750    5.2090 c2        1 D37     -0.212000
     25 C11        -4.5240  -11.6400    8.0070 c1        1 D37     -0.220000
     26 C9         -7.8400   -8.2320    5.0880 c2        1 D37     -0.164000
     27 HN1         0.7820    0.7180    2.0920 hn        1 D37      0.256000
     28 H4         -1.1190   -0.4410    1.1200 h5        1 D37      0.187000
     29 H8         -5.9400   -7.2370    4.9480 h1        1 D37      0.137000
     30 H10        -3.7730   -7.6900    5.8450 ha        1 D37      0.002000
     31 H10A       -4.0960   -7.4810    6.4020 ha        1 D37      0.002000
     32 H13        -5.8700   -6.3200    7.2110 hc        1 D37      0.081000
     33 H13A       -7.4660   -7.1230    7.5110 hc        1 D37      0.081000
     34 H15        -9.0360   -7.1680    2.8990 hn        1 D37      0.276000
     35 H17        -7.4270   -3.6570    2.4600 hc        1 D37      0.186000
     36 H1          1.2650   -0.4860   -1.2360 h1        1 D37      0.162000
     37 H1A         2.1710    1.0440   -1.0140 h1        1 D37      0.162000
     38 H1B         3.0440   -0.4710   -1.3950 h1        1 D37      0.162000
     39 H18         0.7530   -2.6890    1.8490 hn        1 D37      0.272000
     40 H3         -2.6910   -4.1640   -2.3010 ha        1 D37      0.230000
     41 HN2        -2.6800   -4.4990    3.1430 hn        1 D37      0.261000
     42 H14        -8.5140   -5.6740    5.7230 hc        1 D37      0.089000
     43 H14A       -6.9020   -4.9090    5.4210 hc        1 D37      0.089000
     44 H12        -9.8140   -7.3950    5.1060 ha        1 D37      0.120500
     45 H12A       -7.2650   -5.3530    7.8490 hc        1 D37      0.081000
     46 H11        -9.6940   -9.2100    5.4410 ha        1 D37      0.120500
     47 H11A       -4.8030  -12.5500    8.4740 ha        1 D37      0.219000
     48 H9         -7.2280   -9.1430    5.2030 ha        1 D37      0.138000
     49 H9A        -3.9250   -9.7050    7.0110 ha        1 D37      0.219000
     50 N2         -3.0730   -4.3280    2.2370 n7        1 D37     -0.197000
     51 O2          3.3570    0.4980    1.3820 o         1 D37     -0.938000
@<TRIPOS>BOND
     1    1   12 1   
     2    1   15 1   
     3    1   27 1   
     4    2    5 1   
     5    2    6 1   
     6    3    4 1   
     7    3   18 1   
     8    4   17 1   
     9    4   50 1   
    10    5   19 1   
    11    5   50 1   
    12    6   20 1   
    13    6   22 1   
    14    7   22 1   
    15    7   23 1   
    16    7   26 1   
    17    7   29 1   
    18    8   25 1   
    19    8   49 1   
    20    9   23 1   
    21    9   32 1   
    22    9   33 1   
    23    9   45 1   
    24   10   20 1   
    25   10   21 1   
    26   11   19 1   
    27   11   20 1   
    28   12   13 1   
    29   12   14 1   
    30   12   51 1   
    31   14   36 1   
    32   14   37 1   
    33   14   38 1   
    34   15   16 1   
    35   15   28 1   
    36   16   17 1   
    37   16   39 1   
    38   18   40 1   
    39   20   35 1   
    40   21   22 1   
    41   21   34 1   
    42   23   42 1   
    43   23   43 1   
    44   24   26 1   
    45   24   44 1   
    46   24   46 1   
    47   25   47 1   
    48   26   48 1   
    49   30   31 1   
    50   41   50 1   
@<TRIPOS>SUBSTRUCTURE
     1 D37         1 TEMP              0 ****  ****    0 ROOT
