@<TRIPOS>MOLECULE
D37
   51    50     1     0     0
SMALL
bcc


@<TRIPOS>ATOM
      1 N1          1.5490   -0.6540    1.4370 n3        1 D37     -0.813000
      2 N3         -4.9990   -5.1820    3.1240 n2        1 D37     -0.281000
      3 C4         -3.1560   -2.7100   -0.0250 c1        1 D37     -0.163000
      4 C5         -2.6040   -3.0770    1.2260 c2        1 D37      0.257000
      5 C6         -4.5150   -4.4700    1.9790 c2        1 D37      0.251000
      6 C7         -6.2090   -5.6890    2.9720 c2        1 D37      0.081000
      7 C8         -6.7150   -6.8660    5.1040 c3        1 D37      0.008000
      8 C10        -4.7480  -10.6620    6.9510 c1        1 D37     -0.219500
      9 C13        -7.1580   -5.5770    7.2050 c3        1 D37     -0.212000
     10 C15        -8.1490   -6.4740    1.8250 c1        1 D37      0.046000
     11 C17        -6.3380   -4.9720    0.5870 c1        1 D37     -0.039000
     12 S           2.6270   -1.0280    0.2790 s6        1 D37      2.813000
     13 O1          2.4490   -2.3890   -0.0640 o         1 D37     -0.938000
     14 C1          2.1750   -0.0740   -1.0460 c3        1 D37     -0.946000
     15 C2          0.2210   -1.0770    1.3630 c2        1 D37     -0.239000
     16 N7         -0.1350   -2.3860    1.3030 n3        1 D37      0.152000
     17 C18        -1.3290   -2.8560    1.5190 c1        1 D37     -0.390000
     18 C3         -3.6010   -2.4000   -1.0920 c1        1 D37     -0.111000
     19 N6         -5.1020   -4.5720    0.7020 n2        1 D37     -0.270000
     20 C16        -7.1520   -5.3300    1.8040 c3        1 D37     -0.266000
     21 N5         -7.8910   -7.1910    2.9260 n3        1 D37     -0.201000
     22 N4         -6.7090   -6.8730    3.6270 n3        1 D37     -0.133000
     23 C14        -7.5030   -5.7130    5.7450 c3        1 D37     -0.180000
     24 C12        -8.4270   -8.6110    5.7020 c2        1 D37     -0.211000
     25 C11        -5.0380  -11.7560    6.5640 c1        1 D37     -0.219500
     26 C9         -7.1650   -8.1930    5.6510 c2        1 D37     -0.168000
     27 HN1         1.7770   -0.1230    2.2460 hn        1 D37      0.254000
     28 H4         -0.5640   -0.3420    1.6150 h5        1 D37      0.181000
     29 H8         -5.6200   -6.7260    5.3720 h1        1 D37      0.137000
     30 H10        -4.3800   -7.4330    7.6410 ha        1 D37      0.001000
     31 H10A       -5.0340   -7.4100    7.4630 ha        1 D37      0.001000
     32 H13        -7.3490   -6.5370    7.7460 hc        1 D37      0.080667
     33 H13A       -6.0800   -5.3110    7.3340 hc        1 D37      0.080667
     34 H15        -8.3320   -8.0400    3.2060 hn        1 D37      0.276000
     35 H17        -7.7410   -4.3880    2.0160 hc        1 D37      0.187000
     36 H1          2.6790   -0.4340   -1.9800 h1        1 D37      0.161000
     37 H1A         1.0790   -0.0890   -1.2650 h1        1 D37      0.161000
     38 H1B         2.4630    0.9990   -0.9290 h1        1 D37      0.161000
     39 H18         0.5710   -3.0780    1.0510 hn        1 D37      0.276000
     40 H3         -4.0100   -2.1410   -2.0360 ha        1 D37      0.231000
     41 HN2        -3.0050   -3.7060    3.1350 hn        1 D37      0.260000
     42 H14        -8.6040   -5.8930    5.6280 hc        1 D37      0.089000
     43 H14A       -7.2590   -4.7530    5.2160 hc        1 D37      0.089000
     44 H12        -7.7790   -4.7760    7.6730 hc        1 D37      0.080667
     45 H12A       -9.2800   -8.0150    5.3490 ha        1 D37      0.120000
     46 H11        -5.2950  -12.7260    6.2190 ha        1 D37      0.219500
     47 H11A       -8.6950   -9.5890    6.1260 ha        1 D37      0.120000
     48 H9         -6.3390   -8.8270    6.0220 ha        1 D37      0.141000
     49 H9A        -4.4820   -9.6940    7.2960 ha        1 D37      0.219500
     50 N2         -3.4150   -3.6830    2.2200 n3        1 D37     -0.197000
     51 O2          3.9100   -0.6320    0.7060 o         1 D37     -0.938000
@<TRIPOS>BOND
     1    1   12 1   
     2    1   15 1   
     3    1   27 1   
     4    2    5 1   
     5    2    6 1   
     6    3    4 1   
     7    3   18 1   
     8    4   17 1   
     9    4   50 1   
    10    5   19 1   
    11    5   50 1   
    12    6   20 1   
    13    6   22 1   
    14    7   22 1   
    15    7   23 1   
    16    7   26 1   
    17    7   29 1   
    18    8   25 1   
    19    8   49 1   
    20    9   23 1   
    21    9   32 1   
    22    9   33 1   
    23    9   44 1   
    24   10   20 1   
    25   10   21 1   
    26   11   19 1   
    27   11   20 1   
    28   12   13 1   
    29   12   14 1   
    30   12   51 1   
    31   14   36 1   
    32   14   37 1   
    33   14   38 1   
    34   15   16 1   
    35   15   28 1   
    36   16   17 1   
    37   16   39 1   
    38   18   40 1   
    39   20   35 1   
    40   21   22 1   
    41   21   34 1   
    42   23   42 1   
    43   23   43 1   
    44   24   26 1   
    45   24   45 1   
    46   24   47 1   
    47   25   46 1   
    48   26   48 1   
    49   30   31 1   
    50   41   50 1   
@<TRIPOS>SUBSTRUCTURE
     1 D37         1 TEMP              0 ****  ****    0 ROOT
