@<TRIPOS>MOLECULE
D37
   51    46     1     0     0
SMALL
bcc


@<TRIPOS>ATOM
      1 N1          3.7030    4.1700   -4.7270 n3        1 D37     -0.810000
      2 N3         -0.2110   -0.3740    0.3570 n1        1 D37     -0.229000
      3 C4          1.4060    2.9100   -2.1100 c1        1 D37     -0.034000
      4 C5          2.0210    1.7460   -1.7640 c1        1 D37     -0.041000
      5 C6          0.4030    0.1660   -0.7400 c1        1 D37      0.165000
      6 C7         -1.2910   -1.2030    0.2020 c1        1 D37      0.088000
      7 C8         -2.0750   -2.0400    2.5640 c3        1 D37      0.064000
      8 C10        -1.6110   -3.7640    4.3230 c3        1 D37     -0.152500
      9 C13        -3.3390   -1.5720    4.6620 c3        1 D37     -0.152500
     10 C15        -2.8420   -2.3400   -0.8980 c1        1 D37     -0.119000
     11 C17        -1.1220   -0.9340   -2.1500 c1        1 D37      0.065000
     12 O2          5.6990    5.2530   -3.5470 o         1 D37     -0.524400
     13 S           5.3110    4.5670   -4.7510 s4        1 D37      2.063800
     14 O1          6.1350    3.3980   -4.6830 o         1 D37     -0.524400
     15 C1          5.6850    5.5400   -6.1950 c2        1 D37     -0.948000
     16 C2          3.1750    3.3750   -3.6480 c2        1 D37      0.129000
     17 N7          3.7910    2.2070   -3.3000 n2        1 D37     -0.181000
     18 C18         3.2270    1.3900   -2.3650 c1        1 D37     -0.046000
     19 C3          1.9740    3.7320   -3.0500 c1        1 D37     -0.209000
     20 N2          1.6050    0.9360   -0.6530 n3        1 D37     -0.212000
     21 N6         -0.0610   -0.1200   -1.9930 n1        1 D37     -0.225000
     22 C16        -1.7490   -1.4850   -1.0320 c1        1 D37     -0.270000
     23 N5         -3.0370   -2.5670    0.4260 n2        1 D37     -0.039000
     24 N4         -2.0880   -1.8730    1.1190 n2        1 D37     -0.145000
     25 C14        -3.2630   -1.3360    3.1560 c3        1 D37     -0.167000
     26 C12        -3.9050   -2.9480    4.9640 c3        1 D37     -0.156000
     27 C11        -2.7930   -3.9330    5.2900 c3        1 D37     -0.156000
     28 C9         -2.1030   -3.5160    2.8960 c3        1 D37     -0.167000
     29 HN1         3.1690    4.3870   -5.4350 hn        1 D37      0.250000
     30 H4          0.5610    3.1610   -1.6890 ha        1 D37      0.164000
     31 H8         -1.2590   -1.6470    2.9250 h1        1 D37      0.123000
     32 H10        -1.0590   -4.5840    4.3380 hc        1 D37      0.082500
     33 H10A       -1.0670   -3.0060    4.6100 hc        1 D37      0.082500
     34 H13        -3.9160   -0.8890    5.0670 hc        1 D37      0.082500
     35 H13A       -2.4390   -1.5030    5.0450 hc        1 D37      0.082500
     36 H15        -3.3760   -2.7110   -1.6310 DU        1 D37      0.187000
     37 H17        -1.4540   -1.1390   -3.0510 ha        1 D37      0.169000
     38 H1          4.8550    5.8760   -6.5850 ha        1 D37      0.153000
     39 H1A         6.2580    6.2990   -5.9400 ha        1 D37      0.153000
     40 H1B         6.1540    4.9810   -6.8550 ha        1 D37      0.153000
     41 H18         3.6670    0.5570   -2.1180 ha        1 D37      0.169000
     42 H3          1.5340    4.5650   -3.2990 ha        1 D37      0.145000
     43 HN2         2.0820    0.9460    0.1180 hn        1 D37      0.233000
     44 H14        -3.1880   -0.3740    2.9830 hc        1 D37      0.096500
     45 H14A       -4.0790   -1.6750    2.7360 hc        1 D37      0.096500
     46 H12        -4.5180   -2.8840    5.7340 hc        1 D37      0.079250
     47 H12A       -4.3990   -3.2680    4.1880 hc        1 D37      0.079250
     48 H11        -3.1420   -4.8490    5.2170 hc        1 D37      0.079250
     49 H11A       -2.4810   -3.7770    6.2150 hc        1 D37      0.079250
     50 H9         -1.5250   -3.9990    2.2670 hc        1 D37      0.096500
     51 H9A        -3.0240   -3.8490    2.8090 hc        1 D37      0.096500
@<TRIPOS>BOND
     1    1   13 1   
     2    1   16 1   
     3    1   29 1   
     4    2    6 1   
     5    3    4 1   
     6    3   30 1   
     7    4   20 1   
     8    5   20 1   
     9    5   21 1   
    10    7   24 1   
    11    7   25 1   
    12    7   28 1   
    13    7   31 1   
    14    8   27 1   
    15    8   28 1   
    16    8   32 1   
    17    8   33 1   
    18    9   25 1   
    19    9   26 1   
    20    9   34 1   
    21    9   35 1   
    22   10   22 1   
    23   10   23 1   
    24   11   22 1   
    25   11   37 1   
    26   12   13 1   
    27   13   14 1   
    28   15   38 1   
    29   15   39 1   
    30   15   40 1   
    31   16   17 1   
    32   16   19 1   
    33   17   18 1   
    34   18   41 1   
    35   19   42 1   
    36   20   43 1   
    37   23   24 1   
    38   25   44 1   
    39   25   45 1   
    40   26   27 1   
    41   26   46 1   
    42   26   47 1   
    43   27   48 1   
    44   27   49 1   
    45   28   50 1   
    46   28   51 1   
@<TRIPOS>SUBSTRUCTURE
     1 D37         1 TEMP              0 ****  ****    0 ROOT
