@<TRIPOS>MOLECULE
D37
   51    54     1     0     0
SMALL
bcc


@<TRIPOS>ATOM
      1 N1          5.9260   -0.3190   -0.2720 nh        1 D37     -0.868800
      2 N3         -1.8310   -0.1520   -0.2750 nb        1 D37     -0.755000
      3 C4          2.4510   -1.0850   -1.3350 ca        1 D37     -0.033000
      4 C5          1.7830    0.0120   -0.7530 ca        1 D37     -0.020700
      5 C6         -0.5590   -0.6670   -0.4380 ca        1 D37      0.883900
      6 C7         -2.7540   -1.0780    0.1040 ca        1 D37      0.478800
      7 C8         -4.9150    0.2830    0.1490 c3        1 D37      0.084000
      8 C10        -6.1990    2.0700    1.3780 c3        1 D37     -0.073900
      9 C13        -6.4570    1.4800   -1.4660 c3        1 D37     -0.073900
     10 C15        -3.7090   -3.0660    0.7310 cc        1 D37      0.381800
     11 C17        -1.1040   -2.8620    0.1710 ca        1 D37      0.530200
     12 S           6.9120    0.8380    0.3560 s6        1 D37      1.472900
     13 O1          6.7830    2.0590   -0.3160 o         1 D37     -0.646300
     14 C1          6.3950    1.0220    1.9580 c3        1 D37     -0.364300
     15 C2          4.5370   -0.2270   -0.4400 ca        1 D37      0.655200
     16 N7          3.9010    0.8450    0.1320 nb        1 D37     -0.721000
     17 C18         2.5780    0.9440   -0.0260 ca        1 D37      0.413200
     18 C3          3.8260   -1.2120   -1.1790 ca        1 D37     -0.272300
     19 N6         -0.1670   -1.9950   -0.2110 nb        1 D37     -0.752000
     20 C16        -2.4420   -2.4850    0.3480 ca        1 D37     -0.484500
     21 N5         -4.6720   -2.1260    0.7210 nd        1 D37     -0.506100
     22 N4         -4.1300   -0.9370    0.3780 na        1 D37     -0.008800
     23 C14        -5.7260    0.1910   -1.1530 c3        1 D37     -0.088400
     24 C12        -7.7130    1.6640   -0.6410 c3        1 D37     -0.077400
     25 C11        -7.4950    2.3950    0.6660 c3        1 D37     -0.077400
     26 C9         -5.8230    0.6030    1.3480 c3        1 D37     -0.088400
     27 HN1         6.3100   -1.1710   -0.6160 hn        1 D37      0.462800
     28 H4          1.8960   -1.8430   -1.9110 ha        1 D37      0.165000
     29 H8         -4.1550    1.1140    0.0390 h1        1 D37      0.082700
     30 H10        -5.3690    2.6860    0.9390 hc        1 D37      0.043200
     31 H10A       -6.3010    2.3900    2.4500 hc        1 D37      0.043200
     32 H13        -5.7710    2.3560   -1.3260 hc        1 D37      0.043200
     33 H13A       -6.7420    1.4560   -2.5530 hc        1 D37      0.043200
     34 H15        -3.9120   -4.1050    0.9990 h4        1 D37      0.058800
     35 H17        -0.7650   -3.9000    0.3450 h4        1 D37      0.033100
     36 H1          5.9260    0.1180    2.4160 h1        1 D37      0.123033
     37 H1A         7.2600    1.2870    2.6200 h1        1 D37      0.123033
     38 H1B         5.6460    1.8470    2.0670 h1        1 D37      0.123033
     39 H18         2.1250    1.8350    0.4510 h4        1 D37      0.028100
     40 H3          4.3530   -2.0640   -1.6310 ha        1 D37      0.150000
     41 HN2         0.1380    1.2030   -0.8810 hn        1 D37      0.439800
     42 H14        -5.0270   -0.0390   -2.0010 hc        1 D37      0.057450
     43 H14A       -6.4600   -0.6550   -1.0840 hc        1 D37      0.057450
     44 H12        -8.4630    2.2430   -1.2450 hc        1 D37      0.040450
     45 H12A       -8.1720    0.6600   -0.4350 hc        1 D37      0.040450
     46 H11        -8.3570    2.1590    1.3470 hc        1 D37      0.040450
     47 H11A       -7.5210    3.5020    0.4780 hc        1 D37      0.040450
     48 H9         -6.7420   -0.0380    1.3060 hc        1 D37      0.057450
     49 H9A        -5.2870    0.3540    2.3030 hc        1 D37      0.057450
     50 N2          0.4040    0.2390   -0.9440 nh        1 D37     -0.693300
     51 O2          8.2060    0.2710    0.3680 o         1 D37     -0.646300
@<TRIPOS>BOND
     1    1   12 1   
     2    1   15 1   
     3    1   27 1   
     4    2    5 ar  
     5    2    6 ar  
     6    3    4 ar  
     7    3   18 ar  
     8    3   28 1   
     9    4   17 ar  
    10    4   50 1   
    11    5   19 ar  
    12    5   50 1   
    13    6   20 ar  
    14    6   22 1   
    15    7   22 1   
    16    7   23 1   
    17    7   26 1   
    18    7   29 1   
    19    8   25 1   
    20    8   26 1   
    21    8   30 1   
    22    8   31 1   
    23    9   23 1   
    24    9   24 1   
    25    9   32 1   
    26    9   33 1   
    27   10   20 1   
    28   10   21 2   
    29   10   34 1   
    30   11   19 ar  
    31   11   20 ar  
    32   11   35 1   
    33   12   13 2   
    34   12   14 1   
    35   12   51 2   
    36   14   36 1   
    37   14   37 1   
    38   14   38 1   
    39   15   16 ar  
    40   15   18 ar  
    41   16   17 ar  
    42   17   39 1   
    43   18   40 1   
    44   21   22 1   
    45   23   42 1   
    46   23   43 1   
    47   24   25 1   
    48   24   44 1   
    49   24   45 1   
    50   25   46 1   
    51   25   47 1   
    52   26   48 1   
    53   26   49 1   
    54   41   50 1   
@<TRIPOS>SUBSTRUCTURE
     1 D37         1 TEMP              0 ****  ****    0 ROOT
