@<TRIPOS>MOLECULE
D38
   63    64     1     0     0
SMALL
bcc


@<TRIPOS>ATOM
      1 C1         -0.8850    1.6490    5.0450 ca        1 D38     -0.113000
      2 C2         -1.4190    0.9420    6.1260 ca        1 D38     -0.095600
      3 C3         -2.3510   -0.0760    5.8970 ca        1 D38     -0.113000
      4 C4         -2.8870   -0.2530    4.6230 ca        1 D38     -0.114500
      5 C5         -2.4810    0.5820    3.5770 ca        1 D38     -0.142300
      6 C6         -1.4120    1.4660    3.7690 ca        1 D38     -0.114500
      7 C7         -1.1380    1.3620    7.5280 c         1 D38      0.927200
      8 O8         -0.5110    0.6380    8.3550 o         1 D38     -0.875800
      9 O9         -1.6180    2.4820    7.9350 o         1 D38     -0.875800
     10 C10        -3.3510    0.7190    2.3580 c3        1 D38      0.091600
     11 N11        -4.4320    1.6680    2.6620 na        1 D38      0.046400
     12 C12        -4.0670    2.9300    3.2080 cc        1 D38     -0.227600
     13 C13        -5.0660    3.2320    4.1380 cd        1 D38      0.255600
     14 N14        -6.0060    2.1510    4.0770 nd        1 D38     -0.335000
     15 N15        -5.5930    1.2720    3.2740 nc        1 D38     -0.157800
     16 C16        -5.1460    4.3450    5.1040 c3        1 D38     -0.095700
     17 C17        -3.7510    4.9280    5.3770 c3        1 D38     -0.133700
     18 C18        -3.5210    6.1670    4.5010 c3        1 D38     -0.062700
     19 C19        -4.1470    7.4100    5.0950 c3        1 D38     -0.126600
     20 C20        -2.0590    6.4030    4.1840 c3        1 D38     -0.126600
     21 C21        -3.5790    5.2020    6.8590 c         1 D38      0.577100
     22 N22        -2.1630    5.3730    7.3210 ny        1 D38     -0.661800
     23 C23        -2.0090    6.2440    8.5290 c3        1 D38     -0.062500
     24 C24        -1.9880    7.7840    8.0850 c         1 D38      0.929600
     25 O25        -1.5230    7.9970    6.9340 o         1 D38     -0.772300
     26 O26        -2.4070    8.5870    8.9360 o         1 D38     -0.772300
     27 O27        -4.4680    5.2290    7.7010 o         1 D38     -0.458100
     28 C28        -0.6960    6.0360    9.2700 c3        1 D38     -0.086400
     29 C29        -0.4630    4.6730    9.8770 c3        1 D38     -0.117400
     30 C30        -1.4810    4.3350   10.9440 c3        1 D38     -0.098400
     31 C31        -1.2490    2.9540   11.5480 c3        1 D38      0.111800
     32 N32        -1.3990    1.8590   10.5650 nz        1 D38     -0.858600
     33 H1         -0.0760    2.3750    5.2110 ha        1 D38      0.140000
     34 H3         -2.6920   -0.7030    6.7350 ha        1 D38      0.140000
     35 H4         -3.6710   -1.0070    4.4530 ha        1 D38      0.137500
     36 H6         -1.0230    2.0500    2.9220 ha        1 D38      0.137500
     37 H10        -3.7980   -0.2680    2.0550 h1        1 D38      0.081700
     38 H10A       -2.7740    1.1430    1.4900 h1        1 D38      0.081700
     39 H12        -3.1840    3.4710    2.8770 h4        1 D38      0.190000
     40 H16        -5.8280    5.1490    4.7130 hc        1 D38      0.085700
     41 H16A       -5.6070    3.9720    6.0620 hc        1 D38      0.085700
     42 H17        -2.9770    4.1470    5.1070 hc        1 D38      0.087700
     43 H18        -4.0420    5.9410    3.5220 hc        1 D38      0.060700
     44 H19        -3.5780    7.7520    5.9990 hc        1 D38      0.057867
     45 H19A       -5.2090    7.2190    5.3830 hc        1 D38      0.057867
     46 H19B       -4.1230    8.2370    4.3450 hc        1 D38      0.057867
     47 H20        -1.5670    7.0510    4.9560 hc        1 D38      0.057867
     48 H20A       -1.5010    5.4410    4.0920 hc        1 D38      0.057867
     49 H20B       -1.9780    6.9440    3.2090 hc        1 D38      0.057867
     50 HN22       -1.7660    4.4340    7.4900 hn        1 D38      0.477800
     51 H23        -2.8900    6.0740    9.2050 hx        1 D38      0.101700
     52 H28        -0.6880    6.8190   10.0810 hc        1 D38      0.081700
     53 H28A        0.1580    6.2730    8.5780 hc        1 D38      0.081700
     54 H29        -0.4610    3.8900    9.0710 hc        1 D38      0.061700
     55 H29A        0.5630    4.6670   10.3380 hc        1 D38      0.061700
     56 H30        -2.5180    4.3960   10.5170 hc        1 D38      0.076200
     57 H30A       -1.4190    5.0820   11.7800 hc        1 D38      0.076200
     58 H31        -1.9930    2.7870   12.3780 hx        1 D38      0.083200
     59 H31A       -0.2100    2.8940   11.9810 hx        1 D38      0.083200
     60 HN32       -2.1290    2.0880    9.8610 hn        1 D38      0.473133
     61 HN3A       -0.5370    1.7210    9.9830 hn        1 D38      0.473133
     62 H222       -1.6350    5.8500    6.5650 hn        1 D38      0.477800
     63 H323       -1.6230    0.9770   11.0190 hn        1 D38      0.473133
@<TRIPOS>BOND
     1    1    2 ar  
     2    1    6 ar  
     3    1   33 1   
     4    2    3 ar  
     5    2    7 1   
     6    3    4 ar  
     7    3   34 1   
     8    4    5 ar  
     9    4   35 1   
    10    5    6 ar  
    11    5   10 1   
    12    6   36 1   
    13    7    8 1   
    14    7    9 1   
    15   10   11 1   
    16   10   37 1   
    17   10   38 1   
    18   11   12 1   
    19   11   15 1   
    20   12   13 2   
    21   12   39 1   
    22   13   14 1   
    23   13   16 1   
    24   14   15 2   
    25   16   17 1   
    26   16   40 1   
    27   16   41 1   
    28   17   18 1   
    29   17   21 1   
    30   17   42 1   
    31   18   19 1   
    32   18   20 1   
    33   18   43 1   
    34   19   44 1   
    35   19   45 1   
    36   19   46 1   
    37   20   47 1   
    38   20   48 1   
    39   20   49 1   
    40   21   22 1   
    41   21   27 2   
    42   22   23 1   
    43   22   50 1   
    44   22   62 1   
    45   23   24 1   
    46   23   28 1   
    47   23   51 1   
    48   24   25 1   
    49   24   26 1   
    50   28   29 1   
    51   28   52 1   
    52   28   53 1   
    53   29   30 1   
    54   29   54 1   
    55   29   55 1   
    56   30   31 1   
    57   30   56 1   
    58   30   57 1   
    59   31   32 1   
    60   31   58 1   
    61   31   59 1   
    62   32   60 1   
    63   32   61 1   
    64   32   63 1   
@<TRIPOS>SUBSTRUCTURE
     1 D38         1 TEMP              0 ****  ****    0 ROOT
