@<TRIPOS>MOLECULE
D38
   63    64     1     0     0
SMALL
bcc


@<TRIPOS>ATOM
      1 C1         -0.0840    1.4610    6.6860 ca        1 D38     -0.107500
      2 C2         -1.0190    0.8870    7.5520 ca        1 D38     -0.125600
      3 C3         -2.0700    0.1210    7.0370 ca        1 D38     -0.107500
      4 C4         -0.2730    1.3830    5.3060 ca        1 D38     -0.125000
      5 C5         -1.3830    0.7050    4.7950 ca        1 D38     -0.140300
      6 C6         -2.2450    0.0200    5.6600 ca        1 D38     -0.125000
      7 C7         -0.9740    1.2020    9.0080 c         1 D38      0.913200
      8 O8         -2.0780    1.3380    9.6400 o         1 D38     -0.855800
      9 O9          0.1250    1.4270    9.6070 o         1 D38     -0.855800
     10 C10        -1.7240    0.8010    3.3360 c3        1 D38      0.095600
     11 N11        -2.9420    1.5790    3.1350 na        1 D38      0.053400
     12 C12        -3.0250    2.9600    3.3840 cc        1 D38     -0.224600
     13 C13        -4.4060    3.2080    3.5080 cd        1 D38      0.200600
     14 N14        -5.0570    1.9560    3.3210 nd        1 D38     -0.345000
     15 N15        -4.1940    1.0480    3.1390 nc        1 D38     -0.167800
     16 C16        -5.1250    4.4740    3.7300 c3        1 D38     -0.090700
     17 C17        -4.4020    5.4000    4.7060 c3        1 D38     -0.136700
     18 C18        -5.1260    6.7470    4.8410 c3        1 D38     -0.056700
     19 C19        -5.1150    7.4900    3.5190 c3        1 D38     -0.107600
     20 C20        -4.4720    7.6000    5.9110 c3        1 D38     -0.107600
     21 C21        -4.3440    4.7310    6.0660 c         1 D38      0.573100
     22 N22        -3.0090    4.2070    6.5120 n4        1 D38     -0.660800
     23 C23        -2.0920    5.3170    6.9400 c3        1 D38     -0.048500
     24 C24        -1.3190    5.8990    5.6700 c         1 D38      0.929600
     25 O25        -0.9340    7.0770    5.7800 o         1 D38     -0.777300
     26 O26        -1.2020    5.1100    4.6930 o         1 D38     -0.777300
     27 O27        -5.2710    4.5520    6.8480 o         1 D38     -0.468100
     28 C28        -1.0380    4.8750    7.9400 c3        1 D38     -0.094400
     29 C29        -1.5760    4.6070    9.3310 c3        1 D38     -0.106400
     30 C30        -0.4240    4.5530   10.3150 c3        1 D38     -0.101400
     31 C31        -0.8490    4.0750   11.6990 c3        1 D38      0.120800
     32 N32        -1.0070    2.6050   11.7770 n4        1 D38     -0.888600
     33 H1          0.7840    1.9940    7.1060 ha        1 D38      0.156000
     34 H3         -2.7720   -0.3660    7.7330 ha        1 D38      0.156000
     35 H4          0.4340    1.8840    4.6270 ha        1 D38      0.146500
     36 H6         -3.0810   -0.5690    5.2520 ha        1 D38      0.146500
     37 H10        -0.9010    1.3220    2.7680 h1        1 D38      0.084700
     38 H10A       -1.8740   -0.2270    2.9000 h1        1 D38      0.084700
     39 H12        -2.1510    3.6230    3.4180 h4        1 D38      0.244000
     40 H16        -5.2130    5.0100    2.7430 hc        1 D38      0.082200
     41 H16A       -6.1680    4.2770    4.1020 hc        1 D38      0.082200
     42 H17        -3.3540    5.5950    4.3190 hc        1 D38      0.137700
     43 H18        -6.1930    6.5430    5.1390 hc        1 D38      0.060700
     44 H19        -4.0770    7.5560    3.1120 hc        1 D38      0.049200
     45 H19A       -5.7670    6.9840    2.7690 hc        1 D38      0.049200
     46 H19B       -5.5010    8.5280    3.6680 hc        1 D38      0.049200
     47 H20        -4.9230    8.6210    5.9150 hc        1 D38      0.049200
     48 H20A       -4.6310    7.1480    6.9200 hc        1 D38      0.049200
     49 H20B       -3.3710    7.6990    5.7250 hc        1 D38      0.049200
     50 HN22       -3.1260    3.5300    7.2730 hn        1 D38      0.464300
     51 H23        -2.7240    6.1380    7.3800 hx        1 D38      0.091700
     52 H28        -0.4940    3.9650    7.5640 hc        1 D38      0.087200
     53 H28A       -0.2890    5.7160    7.9790 hc        1 D38      0.087200
     54 H29        -2.1300    3.6280    9.3440 hc        1 D38      0.054700
     55 H29A       -2.2940    5.4140    9.6320 hc        1 D38      0.054700
     56 H30         0.3810    3.8800    9.9030 hc        1 D38      0.084700
     57 H30A        0.0170    5.5790   10.4340 hc        1 D38      0.084700
     58 H31        -0.0650    4.3790   12.4500 hx        1 D38      0.075200
     59 H31A       -1.8270    4.5510   11.9880 hx        1 D38      0.075200
     60 HN32       -1.1230    2.3040   12.7370 hn        1 D38      0.473133
     61 HN3A       -0.1840    2.1240   11.3340 hn        1 D38      0.473133
     62 H222       -2.5470    3.7480    5.7000 hn        1 D38      0.464300
     63 H323       -1.8220    2.2850   11.1920 hn        1 D38      0.473133
@<TRIPOS>BOND
     1    1    2 ar  
     2    1    4 ar  
     3    1   33 1   
     4    2    3 ar  
     5    2    7 1   
     6    3    6 ar  
     7    3   34 1   
     8    4    5 ar  
     9    4   35 1   
    10    5    6 ar  
    11    5   10 1   
    12    6   36 1   
    13    7    8 1   
    14    7    9 1   
    15   10   11 1   
    16   10   37 1   
    17   10   38 1   
    18   11   12 1   
    19   11   15 1   
    20   12   13 2   
    21   12   39 1   
    22   13   14 1   
    23   13   16 1   
    24   14   15 2   
    25   16   17 1   
    26   16   40 1   
    27   16   41 1   
    28   17   18 1   
    29   17   21 1   
    30   17   42 1   
    31   18   19 1   
    32   18   20 1   
    33   18   43 1   
    34   19   44 1   
    35   19   45 1   
    36   19   46 1   
    37   20   47 1   
    38   20   48 1   
    39   20   49 1   
    40   21   22 1   
    41   21   27 2   
    42   22   23 1   
    43   22   50 1   
    44   22   62 1   
    45   23   24 1   
    46   23   28 1   
    47   23   51 1   
    48   24   25 1   
    49   24   26 1   
    50   28   29 1   
    51   28   52 1   
    52   28   53 1   
    53   29   30 1   
    54   29   54 1   
    55   29   55 1   
    56   30   31 1   
    57   30   56 1   
    58   30   57 1   
    59   31   32 1   
    60   31   58 1   
    61   31   59 1   
    62   32   60 1   
    63   32   61 1   
    64   32   63 1   
@<TRIPOS>SUBSTRUCTURE
     1 D38         1 TEMP              0 ****  ****    0 ROOT
