@<TRIPOS>MOLECULE
D38
   61    57     1     0     0
SMALL
bcc


@<TRIPOS>ATOM
      1 C1          3.1120   -5.4640   -5.4330 c1        1 D38     -0.129000
      2 C2          4.2360   -6.0310   -4.9030 c1        1 D38     -0.089000
      3 C3          4.4020   -6.0900   -3.5130 c1        1 D38     -0.114000
      4 C4          3.4390   -5.5780   -2.6860 c1        1 D38     -0.129000
      5 C5          2.2980   -5.0030   -3.2230 c1        1 D38     -0.147000
      6 C6          2.1340   -4.9450   -4.5940 c1        1 D38     -0.129000
      7 C7          5.3400   -6.4890   -5.8090 c2        1 D38      0.355000
      8 O8          5.3500   -7.6790   -6.2440 o         1 D38     -0.567000
      9 O9          6.2260   -5.6820   -6.1750 o         1 D38     -0.567000
     10 C10         1.2010   -4.4930   -2.3060 c3        1 D38      0.046000
     11 N11         1.3260   -3.0970   -2.1530 n3        1 D38     -0.153000
     12 C12         0.3280   -2.2450   -1.9020 c1        1 D38     -0.142000
     13 C13         0.8810   -0.9960   -1.6590 c1        1 D38     -0.159000
     14 N14         2.2030   -1.1070   -1.7660 n2        1 D38     -0.109000
     15 N15         2.4960   -2.4080   -2.0730 n2        1 D38     -0.015000
     16 C16         0.0940    0.3300   -1.5250 c2        1 D38     -0.073000
     17 C17         0.5630    1.0750   -0.2900 c3        1 D38     -0.119000
     18 C18         1.7740    1.9170   -0.6430 c3        1 D38     -0.098000
     19 C19         1.3160    3.2490   -1.2030 c3        1 D38     -0.220500
     20 C20         2.6040    2.1470    0.5810 c3        1 D38     -0.220500
     21 C21        -0.5610    1.9780    0.2160 c2        1 D38      0.288000
     22 N22        -1.0090    1.8730    1.5830 n         1 D38     -0.323000
     23 C23        -2.2490    2.4790    1.9810 c3        1 D38     -0.079000
     24 C24        -2.1990    3.9600    1.7030 c2        1 D38      0.324000
     25 O25        -2.9830    4.4700    0.8410 o         1 D38     -0.572500
     26 O26        -1.3470    4.6800    2.2800 o         1 D38     -0.572500
     27 O27        -1.1220    2.7270   -0.5470 o         1 D38     -0.407000
     28 C28        -2.4690    2.2410    3.4720 c3        1 D38     -0.133000
     29 C29        -3.9790    2.3900    3.8030 c3        1 D38     -0.170000
     30 C30        -4.1480    2.8850    5.2650 c3        1 D38     -0.190000
     31 C31        -5.3210    3.8060    5.3460 c3        1 D38     -0.098000
     32 N32        -5.4700    4.2730    6.7030 n3        1 D38     -0.340000
     33 H1          2.9940   -5.4230   -6.4250 ha        1 D38      0.128000
     34 H3          5.2230   -6.5040   -3.1270 ha        1 D38      0.152000
     35 H4          3.5560   -5.6200   -1.7070 ha        1 D38      0.125000
     36 H6          1.3160   -4.5320   -4.9790 ha        1 D38      0.128000
     37 H10         1.2820   -4.9330   -1.4130 h1        1 D38      0.097000
     38 H10A        0.3190   -4.7050   -2.6990 h1        1 D38      0.097000
     39 H12        -0.6530   -2.4750   -1.8680 DU        1 D38      0.187000
     40 H16         0.2500    0.8780   -2.3130 ha        1 D38      0.110000
     41 H16A       -0.8570    0.1380   -1.4470 ha        1 D38      0.110000
     42 H17         0.8020    0.4380    0.4020 hc        1 D38      0.095000
     43 H18         2.3260    1.4360   -1.3340 hc        1 D38      0.090000
     44 H19         0.7300    3.0960   -1.9650 hc        1 D38      0.080833
     45 H19A        2.1080    3.7770   -1.4950 hc        1 D38      0.080833
     46 H19B        0.8250    3.7490   -0.5070 hc        1 D38      0.080833
     47 H20         3.4590    2.5000    0.3250 hc        1 D38      0.080833
     48 H20A        2.7270    1.3180    1.0450 hc        1 D38      0.080833
     49 H20B        2.1440    2.7960    1.1790 hc        1 D38      0.080833
     50 HN22       -0.5220    1.3650    2.1940 hn        1 D38      0.228000
     51 H23        -2.9950    2.0740    1.4690 h1        1 D38      0.108000
     52 H28        -1.9440    2.9030    3.9960 hc        1 D38      0.066000
     53 H28A       -2.1760    1.3410    3.7000 hc        1 D38      0.066000
     54 H29        -4.3820    3.0320    3.1940 hc        1 D38      0.105000
     55 H29A       -4.4260    1.5120    3.7000 hc        1 D38      0.105000
     56 H30        -3.3440    3.3570    5.5430 hc        1 D38      0.066500
     57 H30A       -4.2970    2.1120    5.8570 hc        1 D38      0.066500
     58 H31        -5.1780    4.5740    4.7510 h1        1 D38      0.092000
     59 H31A       -6.1400    3.3230    5.0710 h1        1 D38      0.092000
     60 HN32       -6.3220    4.1200    6.9870 hn        1 D38      0.126500
     61 HN3A       -5.2910    5.1810    6.7390 hn        1 D38      0.126500
@<TRIPOS>BOND
     1    1    6 1   
     2    1   33 1   
     3    2    3 1   
     4    2    7 1   
     5    3   34 1   
     6    4    5 1   
     7    4   35 1   
     8    5   10 1   
     9    6   36 1   
    10    7    8 1   
    11    7    9 1   
    12   10   11 1   
    13   10   37 1   
    14   10   38 1   
    15   11   12 1   
    16   11   15 1   
    17   12   13 1   
    18   13   14 1   
    19   14   15 1   
    20   16   17 1   
    21   16   40 1   
    22   16   41 1   
    23   17   18 1   
    24   17   21 1   
    25   17   42 1   
    26   18   19 1   
    27   18   20 1   
    28   18   43 1   
    29   19   44 1   
    30   19   45 1   
    31   19   46 1   
    32   20   47 1   
    33   20   48 1   
    34   20   49 1   
    35   21   22 1   
    36   21   27 1   
    37   22   23 1   
    38   22   50 1   
    39   23   24 1   
    40   23   28 1   
    41   23   51 1   
    42   24   25 1   
    43   24   26 1   
    44   28   29 1   
    45   28   52 1   
    46   28   53 1   
    47   29   30 1   
    48   29   54 1   
    49   29   55 1   
    50   30   31 1   
    51   30   56 1   
    52   30   57 1   
    53   31   32 1   
    54   31   58 1   
    55   31   59 1   
    56   32   60 1   
    57   32   61 1   
@<TRIPOS>SUBSTRUCTURE
     1 D38         1 TEMP              0 ****  ****    0 ROOT
