@<TRIPOS>MOLECULE
D38
   61    62     1     0     0
SMALL
bcc


@<TRIPOS>ATOM
      1 C1          5.8620    2.9410    0.4720 ca        1 D38     -0.114500
      2 C2          6.7990    2.1070    1.0920 ca        1 D38     -0.109600
      3 C3          6.6960    0.7230    0.9190 ca        1 D38     -0.114500
      4 C4          5.6920    0.1800    0.1190 ca        1 D38     -0.135500
      5 C5          4.7750    1.0200   -0.5200 ca        1 D38     -0.154300
      6 C6          4.8540    2.4040   -0.3250 ca        1 D38     -0.135500
      7 C7          7.9230    2.7020    1.9280 c         1 D38      0.906200
      8 O8          7.9720    3.9590    2.0460 o         1 D38     -0.832300
      9 O9          8.7560    1.9100    2.4520 o         1 D38     -0.832300
     10 C10         3.7680    0.4620   -1.4750 c3        1 D38      0.112600
     11 N11         2.7290   -0.3720   -0.8910 na        1 D38      0.060400
     12 C12         1.4390    0.0660   -0.5580 cc        1 D38     -0.231600
     13 C13         0.7910   -1.0890   -0.0720 cd        1 D38      0.263600
     14 N14         1.7470   -2.1320   -0.1360 nd        1 D38     -0.372000
     15 N15         2.8430   -1.6890   -0.6050 nc        1 D38     -0.183800
     16 C16        -0.5950   -1.2240    0.4170 c3        1 D38     -0.088700
     17 C17        -1.6160   -1.2120   -0.7190 c3        1 D38     -0.129700
     18 C18        -1.6480   -2.5470   -1.4690 c3        1 D38     -0.058700
     19 C19        -2.4220   -3.6090   -0.7160 c3        1 D38     -0.103100
     20 C20        -2.2070   -2.3940   -2.8700 c3        1 D38     -0.103100
     21 C21        -3.0010   -0.8750   -0.1520 c         1 D38      0.642100
     22 N22        -3.9010   -0.2900   -1.0190 n         1 D38     -0.508900
     23 C23        -5.3300   -0.3230   -0.7680 c3        1 D38     -0.055300
     24 C24        -6.1270   -0.9820   -1.9530 c         1 D38      0.906600
     25 O25        -5.4930   -1.3320   -2.9900 o         1 D38     -0.837300
     26 O26        -7.3660   -1.1310   -1.7840 o         1 D38     -0.837300
     27 O27        -3.2560   -1.0540    1.0610 o         1 D38     -0.650100
     28 C28        -5.9250    1.0670   -0.5220 c3        1 D38     -0.065400
     29 C29        -5.3830    1.7150    0.7330 c3        1 D38     -0.081400
     30 C30        -6.2430    2.8860    1.1600 c3        1 D38     -0.081400
     31 C31        -5.6510    3.5520    2.4010 c3        1 D38      0.147800
     32 N32        -6.4600    4.6250    2.9370 n3        1 D38     -0.915800
     33 H1          5.9460    4.0280    0.6290 ha        1 D38      0.151500
     34 H3          7.4310    0.0770    1.4270 ha        1 D38      0.151500
     35 H4          5.6180   -0.9090   -0.0140 ha        1 D38      0.115000
     36 H6          4.1250    3.0690   -0.8090 ha        1 D38      0.115000
     37 H10         3.2380    1.3040   -2.0070 h1        1 D38      0.057700
     38 H10A        4.3120   -0.1590   -2.2470 h1        1 D38      0.057700
     39 H12         1.1070    1.0930   -0.6770 h4        1 D38      0.187000
     40 H16        -0.7170   -2.1670    1.0140 hc        1 D38      0.069700
     41 H16A       -0.8160   -0.3670    1.1100 hc        1 D38      0.069700
     42 H17        -1.3120   -0.4070   -1.4470 hc        1 D38      0.056700
     43 H18        -0.5760   -2.8910   -1.5580 hc        1 D38      0.051700
     44 H19        -3.5010   -3.3250   -0.6320 hc        1 D38      0.041700
     45 H19A       -2.3530   -4.5830   -1.2570 hc        1 D38      0.041700
     46 H19B       -2.0130   -3.7400    0.3140 hc        1 D38      0.041700
     47 H20        -1.7490   -1.5160   -3.3850 hc        1 D38      0.041700
     48 H20A       -1.9740   -3.3110   -3.4650 hc        1 D38      0.041700
     49 H20B       -3.3210   -2.2640   -2.8630 hc        1 D38      0.041700
     50 HN22       -3.6870   -0.3740   -1.9960 hn        1 D38      0.314500
     51 H23        -5.5250   -0.9540    0.1490 h1        1 D38      0.063700
     52 H28        -5.7360    1.7300   -1.4050 hc        1 D38      0.047200
     53 H28A       -7.0360    0.9250   -0.4390 hc        1 D38      0.047200
     54 H29        -5.3370    0.9550    1.5580 hc        1 D38      0.045200
     55 H29A       -4.3320    2.0650    0.5560 hc        1 D38      0.045200
     56 H30        -6.3130    3.6310    0.3260 hc        1 D38      0.036700
     57 H30A       -7.2840    2.5260    1.3740 hc        1 D38      0.036700
     58 H31        -5.4570    2.7450    3.1690 h1        1 D38      0.028700
     59 H31A       -4.6500    3.9960    2.1330 h1        1 D38      0.028700
     60 HN32       -7.4310    4.3800    2.9190 hn        1 D38      0.334800
     61 HN3A       -6.1960    4.8110    3.8850 hn        1 D38      0.334800
@<TRIPOS>BOND
     1    1    2 ar  
     2    1    6 ar  
     3    1   33 1   
     4    2    3 ar  
     5    2    7 1   
     6    3    4 ar  
     7    3   34 1   
     8    4    5 ar  
     9    4   35 1   
    10    5    6 ar  
    11    5   10 1   
    12    6   36 1   
    13    7    8 1   
    14    7    9 1   
    15   10   11 1   
    16   10   37 1   
    17   10   38 1   
    18   11   12 1   
    19   11   15 1   
    20   12   13 2   
    21   12   39 1   
    22   13   14 1   
    23   13   16 1   
    24   14   15 2   
    25   16   17 1   
    26   16   40 1   
    27   16   41 1   
    28   17   18 1   
    29   17   21 1   
    30   17   42 1   
    31   18   19 1   
    32   18   20 1   
    33   18   43 1   
    34   19   44 1   
    35   19   45 1   
    36   19   46 1   
    37   20   47 1   
    38   20   48 1   
    39   20   49 1   
    40   21   22 1   
    41   21   27 2   
    42   22   23 1   
    43   22   50 1   
    44   23   24 1   
    45   23   28 1   
    46   23   51 1   
    47   24   25 1   
    48   24   26 1   
    49   28   29 1   
    50   28   52 1   
    51   28   53 1   
    52   29   30 1   
    53   29   54 1   
    54   29   55 1   
    55   30   31 1   
    56   30   56 1   
    57   30   57 1   
    58   31   32 1   
    59   31   58 1   
    60   31   59 1   
    61   32   60 1   
    62   32   61 1   
@<TRIPOS>SUBSTRUCTURE
     1 D38         1 TEMP              0 ****  ****    0 ROOT
