@<TRIPOS>MOLECULE
D38
   63    64     1     0     0
SMALL
bcc


@<TRIPOS>ATOM
      1 C1         -2.8580   -1.3480    4.6320 ca        1 D38     -0.111500
      2 C2         -2.5340   -2.4910    3.8920 ca        1 D38     -0.112600
      3 C3         -1.1970   -2.7430    3.5610 ca        1 D38     -0.111500
      4 C4         -1.8480   -0.6130    5.2480 ca        1 D38     -0.129000
      5 C5         -0.5160   -1.0180    5.1060 ca        1 D38     -0.163300
      6 C6         -0.1850   -2.0030    4.1650 ca        1 D38     -0.129000
      7 C7         -3.5780   -3.5550    3.6800 c         1 D38      0.909200
      8 O8         -4.7940   -3.2640    3.5830 o         1 D38     -0.827300
      9 O9         -3.1660   -4.7690    3.7490 o         1 D38     -0.827300
     10 C10         0.4780   -0.6660    6.1730 c3        1 D38      0.099600
     11 N11         0.3080   -1.6450    7.2670 na        1 D38      0.064400
     12 C12         0.4030   -3.0280    6.9590 cc        1 D38     -0.203600
     13 C13        -0.5290   -3.6590    7.7950 cd        1 D38      0.267600
     14 N14        -1.1110   -2.6190    8.5790 nd        1 D38     -0.427000
     15 N15        -0.6450   -1.4950    8.2260 nc        1 D38     -0.179800
     16 C16        -0.9360   -5.0790    7.8420 c3        1 D38     -0.120700
     17 C17        -1.3230   -5.5820    6.4450 c3        1 D38     -0.124700
     18 C18        -0.1630   -6.2550    5.6990 c3        1 D38     -0.052700
     19 C19        -0.6180   -6.6780    4.3160 c3        1 D38     -0.115100
     20 C20         0.4700   -7.4220    6.4230 c3        1 D38     -0.115100
     21 C21        -2.5120   -6.5180    6.5460 c         1 D38      0.577100
     22 N22        -3.8550   -5.9470    6.2030 n4        1 D38     -0.678800
     23 C23        -4.2540   -4.8650    7.1540 c3        1 D38     -0.019500
     24 C24        -4.5700   -5.5050    8.5560 c         1 D38      0.904600
     25 O25        -3.8610   -5.0870    9.5200 o         1 D38     -0.799300
     26 O26        -5.4740   -6.3600    8.6130 o         1 D38     -0.799300
     27 O27        -2.5030   -7.7050    6.8510 o         1 D38     -0.456100
     28 C28        -5.4700   -4.0850    6.6530 c3        1 D38     -0.117400
     29 C29        -5.5010   -2.6750    7.2110 c3        1 D38     -0.078400
     30 C30        -5.9620   -2.5960    8.6550 c3        1 D38     -0.117400
     31 C31        -5.0190   -1.7740    9.5290 c3        1 D38      0.112800
     32 N32        -3.8070   -2.5310    9.9290 n4        1 D38     -0.840600
     33 H1         -3.9200   -1.0860    4.7660 ha        1 D38      0.155000
     34 H3         -0.9630   -3.5800    2.8840 ha        1 D38      0.155000
     35 H4         -2.0960    0.2400    5.8960 ha        1 D38      0.127000
     36 H6          0.8700   -2.2340    3.9590 ha        1 D38      0.127000
     37 H10         0.3180    0.3700    6.5780 h1        1 D38      0.081700
     38 H10A        1.5380   -0.7640    5.8090 h1        1 D38      0.081700
     39 H12         1.0970   -3.4100    6.2120 h4        1 D38      0.201000
     40 H16        -0.0900   -5.6940    8.2510 hc        1 D38      0.096200
     41 H16A       -1.8040   -5.2090    8.5550 hc        1 D38      0.096200
     42 H17        -1.6270   -4.6980    5.7990 hc        1 D38      0.112700
     43 H18         0.6230   -5.4520    5.5830 hc        1 D38      0.046700
     44 H19         0.2650   -6.9590    3.6930 hc        1 D38      0.052033
     45 H19A       -1.2940   -7.5650    4.3850 hc        1 D38      0.052033
     46 H19B       -1.1740   -5.8500    3.8040 hc        1 D38      0.052033
     47 H20         1.0240   -7.0870    7.3330 hc        1 D38      0.052033
     48 H20A       -0.2980   -8.1730    6.7300 hc        1 D38      0.052033
     49 H20B        1.2000   -7.9280    5.7440 hc        1 D38      0.052033
     50 HN22       -3.8270   -5.5590    5.2130 hn        1 D38      0.490300
     51 H23        -3.3700   -4.1710    7.2450 hx        1 D38      0.069700
     52 H28        -6.4030   -4.6400    6.9410 hc        1 D38      0.101200
     53 H28A       -5.4530   -3.9980    5.5240 hc        1 D38      0.101200
     54 H29        -4.4900   -2.2030    7.0860 hc        1 D38      0.055700
     55 H29A       -6.2070   -2.0760    6.5720 hc        1 D38      0.055700
     56 H30        -6.0880   -3.6310    9.0830 hc        1 D38      0.088700
     57 H30A       -6.9670   -2.0980    8.7030 hc        1 D38      0.088700
     58 H31        -4.6860   -0.8510    8.9730 hx        1 D38      0.084700
     59 H31A       -5.5510   -1.4540   10.4690 hx        1 D38      0.084700
     60 HN32       -3.4630   -3.1050    9.1300 hn        1 D38      0.472467
     61 HN3A       -3.0670   -1.9130   10.2550 hn        1 D38      0.472467
     62 H222       -4.5650   -6.6890    6.2610 hn        1 D38      0.490300
     63 H323       -4.0380   -3.2300   10.6520 hn        1 D38      0.472467
@<TRIPOS>BOND
     1    1    2 ar  
     2    1    4 ar  
     3    1   33 1   
     4    2    3 ar  
     5    2    7 1   
     6    3    6 ar  
     7    3   34 1   
     8    4    5 ar  
     9    4   35 1   
    10    5    6 ar  
    11    5   10 1   
    12    6   36 1   
    13    7    8 1   
    14    7    9 1   
    15   10   11 1   
    16   10   37 1   
    17   10   38 1   
    18   11   12 1   
    19   11   15 1   
    20   12   13 2   
    21   12   39 1   
    22   13   14 1   
    23   13   16 1   
    24   14   15 2   
    25   16   17 1   
    26   16   40 1   
    27   16   41 1   
    28   17   18 1   
    29   17   21 1   
    30   17   42 1   
    31   18   19 1   
    32   18   20 1   
    33   18   43 1   
    34   19   44 1   
    35   19   45 1   
    36   19   46 1   
    37   20   47 1   
    38   20   48 1   
    39   20   49 1   
    40   21   22 1   
    41   21   27 2   
    42   22   23 1   
    43   22   50 1   
    44   22   62 1   
    45   23   24 1   
    46   23   28 1   
    47   23   51 1   
    48   24   25 1   
    49   24   26 1   
    50   28   29 1   
    51   28   52 1   
    52   28   53 1   
    53   29   30 1   
    54   29   54 1   
    55   29   55 1   
    56   30   31 1   
    57   30   56 1   
    58   30   57 1   
    59   31   32 1   
    60   31   58 1   
    61   31   59 1   
    62   32   60 1   
    63   32   61 1   
    64   32   63 1   
@<TRIPOS>SUBSTRUCTURE
     1 D38         1 TEMP              0 ****  ****    0 ROOT
