@<TRIPOS>MOLECULE
D3A
   68    72     1     0     0
SMALL
bcc


@<TRIPOS>ATOM
      1 C37         0.6700    1.2010   -0.0370 c3        1 D3A      0.124700
      2 O36         1.5690    0.1010    0.0990 os        1 D3A     -0.333900
      3 C21         2.0560   -0.1230    1.3750 ca        1 D3A      0.096100
      4 C20         2.5300    0.9080    2.2180 ca        1 D3A      0.062100
      5 O34         2.3630    2.2040    1.7520 os        1 D3A     -0.337900
      6 C35         3.0550    3.2150    2.4740 c3        1 D3A      0.116700
      7 C19         3.0990    0.5980    3.4570 ca        1 D3A     -0.175000
      8 C18         3.2130   -0.7340    3.8510 ca        1 D3A     -0.123000
      9 C17         2.7510   -1.7570    3.0280 ca        1 D3A     -0.105000
     10 C8          2.1580   -1.4620    1.7950 ca        1 D3A     -0.094300
     11 C7          1.6950   -2.5830    0.8960 c3        1 D3A      0.247700
     12 C1          0.2770   -3.0100    1.1790 ca        1 D3A     -0.093300
     13 O6          2.7210   -3.5770    0.9740 os        1 D3A     -0.405600
     14 C5          2.3110   -4.9390    1.0970 c3        1 D3A      0.218400
     15 C4          1.6200   -5.3690   -0.1540 cc        1 D3A     -0.126600
     16 C10         1.9750   -6.2670   -1.1660 cd        1 D3A     -0.173000
     17 C11         0.9040   -6.2830   -2.1260 cd        1 D3A     -0.192000
     18 C12        -0.0780   -5.3960   -1.6770 cc        1 D3A     -0.152300
     19 N3          0.3660   -4.8140   -0.4850 na        1 D3A     -0.001200
     20 C2         -0.3710   -4.0040    0.3970 ca        1 D3A      0.022800
     21 C13        -1.7600   -4.2140    0.5400 ca        1 D3A     -0.145000
     22 C14        -2.4950   -3.4870    1.4670 ca        1 D3A     -0.108000
     23 C15        -1.8450   -2.5540    2.2780 ca        1 D3A      0.003400
     24 C16        -0.4760   -2.3210    2.1340 ca        1 D3A     -0.088000
     25 CL1        -2.7300   -1.6890    3.4440 cl        1 D3A     -0.096400
     26 C9          3.5910   -5.7350    1.3450 c3        1 D3A     -0.144400
     27 C22         4.0000   -5.6770    2.8090 c         1 D3A      0.660100
     28 O24         3.2760   -5.0810    3.6400 o         1 D3A     -0.647100
     29 N23         5.2040   -6.2340    3.1930 n         1 D3A     -0.448800
     30 C25         6.0060   -7.0640    2.3190 c3        1 D3A      0.084000
     31 C26         6.1340   -8.5180    2.7760 c3        1 D3A     -0.104400
     32 C27         6.6090   -8.5880    4.2210 c3        1 D3A     -0.039700
     33 C28         5.6760   -7.7770    5.1050 c3        1 D3A     -0.104400
     34 C29         5.5450   -6.3410    4.6050 c3        1 D3A      0.084000
     35 C30         6.7090  -10.0220    4.7010 c3        1 D3A     -0.194400
     36 C31         7.5990  -10.1500    5.9520 c         1 D3A      0.909600
     37 O32         8.5360  -10.9980    5.9160 o         1 D3A     -0.848300
     38 O33         7.3500   -9.4210    6.9570 o         1 D3A     -0.848300
     39 H1          1.2580    2.1350   -0.2120 h1        1 D3A      0.042033
     40 H2          0.0610    0.9410   -0.9390 h1        1 D3A      0.042033
     41 H3          0.0220    1.3170    0.8630 h1        1 D3A      0.042033
     42 H4          4.1440    2.9790    2.5530 h1        1 D3A      0.041033
     43 H5          2.8940    4.1340    1.8550 h1        1 D3A      0.041033
     44 H6          2.6080    3.3450    3.4900 h1        1 D3A      0.041033
     45 H7          3.4680    1.3940    4.1190 ha        1 D3A      0.134000
     46 H8          3.6760   -0.9800    4.8180 ha        1 D3A      0.143000
     47 H9          2.8640   -2.8170    3.3290 ha        1 D3A      0.189000
     48 H10         1.7160   -2.2220   -0.1810 h1        1 D3A      0.086700
     49 H11         1.6170   -5.0420    1.9840 h1        1 D3A      0.087700
     50 H12         2.8940   -6.8430   -1.2220 ha        1 D3A      0.156000
     51 H13         0.8720   -6.8730   -3.0360 ha        1 D3A      0.150000
     52 H14        -1.0340   -5.1170   -2.1190 h4        1 D3A      0.164000
     53 H15        -2.2690   -4.9710   -0.0780 ha        1 D3A      0.146000
     54 H16        -3.5760   -3.6620    1.5690 ha        1 D3A      0.147000
     55 H17         0.0170   -1.5760    2.7840 ha        1 D3A      0.167000
     56 H18         3.4090   -6.8040    1.0580 hc        1 D3A      0.081700
     57 H19         4.4100   -5.3150    0.7040 hc        1 D3A      0.081700
     58 H20         5.6050   -7.0450    1.2690 h1        1 D3A      0.045700
     59 H21         7.0400   -6.6070    2.2960 h1        1 D3A      0.045700
     60 H22         6.8670   -9.0340    2.1050 hc        1 D3A      0.058450
     61 H23         5.1500   -9.0430    2.6760 hc        1 D3A      0.058450
     62 H24         7.6360   -8.1280    4.2770 hc        1 D3A      0.052700
     63 H25         6.0920   -7.7800    6.1510 hc        1 D3A      0.058450
     64 H26         4.6660   -8.2620    5.1380 hc        1 D3A      0.058450
     65 H27         6.5330   -5.8140    4.7420 h1        1 D3A      0.045700
     66 H28         4.7690   -5.8010    5.2150 h1        1 D3A      0.045700
     67 H29         7.1400  -10.6620    3.8890 hc        1 D3A      0.024700
     68 H30         5.6930  -10.4170    4.9510 hc        1 D3A      0.024700
@<TRIPOS>BOND
     1    1    2 1   
     2    1   39 1   
     3    1   40 1   
     4    1   41 1   
     5    2    3 1   
     6    3    4 ar  
     7    3   10 ar  
     8    4    5 1   
     9    4    7 ar  
    10    5    6 1   
    11    6   42 1   
    12    6   43 1   
    13    6   44 1   
    14    7    8 ar  
    15    7   45 1   
    16    8    9 ar  
    17    8   46 1   
    18    9   10 ar  
    19    9   47 1   
    20   10   11 1   
    21   11   12 1   
    22   11   13 1   
    23   11   48 1   
    24   12   20 ar  
    25   12   24 ar  
    26   13   14 1   
    27   14   15 1   
    28   14   26 1   
    29   14   49 1   
    30   15   16 2   
    31   15   19 1   
    32   16   17 1   
    33   16   50 1   
    34   17   18 2   
    35   17   51 1   
    36   18   19 1   
    37   18   52 1   
    38   19   20 1   
    39   20   21 ar  
    40   21   22 ar  
    41   21   53 1   
    42   22   23 ar  
    43   22   54 1   
    44   23   24 ar  
    45   23   25 1   
    46   24   55 1   
    47   26   27 1   
    48   26   56 1   
    49   26   57 1   
    50   27   28 2   
    51   27   29 1   
    52   29   30 1   
    53   29   34 1   
    54   30   31 1   
    55   30   58 1   
    56   30   59 1   
    57   31   32 1   
    58   31   60 1   
    59   31   61 1   
    60   32   33 1   
    61   32   35 1   
    62   32   62 1   
    63   33   34 1   
    64   33   63 1   
    65   33   64 1   
    66   34   65 1   
    67   34   66 1   
    68   35   36 1   
    69   35   67 1   
    70   35   68 1   
    71   36   37 1   
    72   36   38 1   
@<TRIPOS>SUBSTRUCTURE
     1 D3A         1 TEMP              0 ****  ****    0 ROOT
