@<TRIPOS>MOLECULE
D3A
   68    72     1     0     0
SMALL
bcc


@<TRIPOS>ATOM
      1 C37         0.6780    1.2050   -0.0430 c3        1 D3A      0.124700
      2 O36         1.5750    0.1040    0.0950 os        1 D3A     -0.333900
      3 C21         2.0610   -0.1190    1.3710 ca        1 D3A      0.096100
      4 C20         2.5340    0.9120    2.2140 ca        1 D3A      0.062100
      5 O34         2.3690    2.2080    1.7470 os        1 D3A     -0.337900
      6 C35         3.0620    3.2190    2.4690 c3        1 D3A      0.116700
      7 C19         3.1020    0.6030    3.4540 ca        1 D3A     -0.175000
      8 C18         3.2150   -0.7300    3.8490 ca        1 D3A     -0.123000
      9 C17         2.7540   -1.7520    3.0250 ca        1 D3A     -0.105000
     10 C8          2.1610   -1.4580    1.7920 ca        1 D3A     -0.094300
     11 C7          1.6990   -2.5790    0.8930 c3        1 D3A      0.247700
     12 C1          0.2800   -3.0060    1.1750 ca        1 D3A     -0.093300
     13 O6          2.7250   -3.5740    0.9720 os        1 D3A     -0.405600
     14 C5          2.3140   -4.9350    1.0960 c3        1 D3A      0.218400
     15 C4          1.6230   -5.3660   -0.1560 cc        1 D3A     -0.126600
     16 C10         1.9790   -6.2640   -1.1680 cd        1 D3A     -0.173000
     17 C11         0.9090   -6.2790   -2.1280 cd        1 D3A     -0.192000
     18 C12        -0.0740   -5.3930   -1.6800 cc        1 D3A     -0.152300
     19 N3          0.3700   -4.8100   -0.4880 na        1 D3A     -0.001200
     20 C2         -0.3670   -4.0000    0.3940 ca        1 D3A      0.022800
     21 C13        -1.7560   -4.2100    0.5360 ca        1 D3A     -0.145000
     22 C14        -2.4910   -3.4820    1.4630 ca        1 D3A     -0.108000
     23 C15        -1.8420   -2.5490    2.2730 ca        1 D3A      0.003400
     24 C16        -0.4730   -2.3160    2.1300 ca        1 D3A     -0.088000
     25 Cl1        -2.7270   -1.6830    3.4390 cl        1 D3A     -0.096400
     26 C9          3.5930   -5.7320    1.3450 c3        1 D3A     -0.144400
     27 C22         4.0020   -5.6740    2.8100 c         1 D3A      0.660100
     28 O24         3.2760   -5.0770    3.6400 o         1 D3A     -0.647100
     29 N23         5.2050   -6.2310    3.1950 n         1 D3A     -0.448800
     30 C25         6.0070   -7.0620    2.3220 c3        1 D3A      0.084000
     31 C26         6.1310   -8.5160    2.7810 c3        1 D3A     -0.104400
     32 C27         6.6050   -8.5870    4.2250 c3        1 D3A     -0.039700
     33 C28         5.6710   -7.7740    5.1080 c3        1 D3A     -0.104400
     34 C29         5.5440   -6.3380    4.6070 c3        1 D3A      0.084000
     35 C30         6.7020  -10.0200    4.7070 c3        1 D3A     -0.194400
     36 C31         7.5900  -10.1490    5.9590 c         1 D3A      0.909600
     37 O32         8.5240  -11.0000    5.9250 o         1 D3A     -0.848300
     38 O33         7.3410   -9.4180    6.9620 o         1 D3A     -0.848300
     39 H1          1.2670    2.1390   -0.2190 h1        1 D3A      0.042033
     40 H2          0.0690    0.9450   -0.9450 h1        1 D3A      0.042033
     41 H3          0.0290    1.3230    0.8560 h1        1 D3A      0.042033
     42 H4          2.6140    3.3500    3.4840 h1        1 D3A      0.041033
     43 H5          4.1500    2.9810    2.5490 h1        1 D3A      0.041033
     44 H6          2.9020    4.1370    1.8490 h1        1 D3A      0.041033
     45 H7          3.4710    1.3990    4.1160 ha        1 D3A      0.134000
     46 H8          3.6770   -0.9750    4.8170 ha        1 D3A      0.143000
     47 H9          2.8660   -2.8120    3.3280 ha        1 D3A      0.189000
     48 H10         1.7210   -2.2190   -0.1840 h1        1 D3A      0.086700
     49 H11         1.6200   -5.0380    1.9820 h1        1 D3A      0.087700
     50 H12         2.8980   -6.8400   -1.2230 ha        1 D3A      0.156000
     51 H13         0.8770   -6.8700   -3.0380 ha        1 D3A      0.150000
     52 H14        -1.0290   -5.1140   -2.1230 h4        1 D3A      0.164000
     53 H15        -2.2650   -4.9660   -0.0820 ha        1 D3A      0.146000
     54 H16        -3.5730   -3.6560    1.5640 ha        1 D3A      0.147000
     55 H17         0.0200   -1.5720    2.7800 ha        1 D3A      0.167000
     56 H18         3.4110   -6.8010    1.0580 hc        1 D3A      0.081700
     57 H19         4.4130   -5.3120    0.7040 hc        1 D3A      0.081700
     58 H20         7.0410   -6.6070    2.3010 h1        1 D3A      0.045700
     59 H21         5.6070   -7.0430    1.2720 h1        1 D3A      0.045700
     60 H22         6.8650   -9.0330    2.1110 hc        1 D3A      0.058450
     61 H23         5.1470   -9.0400    2.6790 hc        1 D3A      0.058450
     62 H24         7.6330   -8.1280    4.2830 hc        1 D3A      0.052700
     63 H25         6.0870   -7.7770    6.1550 hc        1 D3A      0.058450
     64 H26         4.6610   -8.2570    5.1410 hc        1 D3A      0.058450
     65 H27         4.7680   -5.7960    5.2160 h1        1 D3A      0.045700
     66 H28         6.5330   -5.8110    4.7450 h1        1 D3A      0.045700
     67 H29         5.6840  -10.4130    4.9550 hc        1 D3A      0.024700
     68 H30         7.1330  -10.6610    3.8960 hc        1 D3A      0.024700
@<TRIPOS>BOND
     1    1    2 1   
     2    1   39 1   
     3    1   40 1   
     4    1   41 1   
     5    2    3 1   
     6    3    4 ar  
     7    3   10 ar  
     8    4    5 1   
     9    4    7 ar  
    10    5    6 1   
    11    6   42 1   
    12    6   43 1   
    13    6   44 1   
    14    7    8 ar  
    15    7   45 1   
    16    8    9 ar  
    17    8   46 1   
    18    9   10 ar  
    19    9   47 1   
    20   10   11 1   
    21   11   12 1   
    22   11   13 1   
    23   11   48 1   
    24   12   20 ar  
    25   12   24 ar  
    26   13   14 1   
    27   14   15 1   
    28   14   26 1   
    29   14   49 1   
    30   15   16 2   
    31   15   19 1   
    32   16   17 1   
    33   16   50 1   
    34   17   18 2   
    35   17   51 1   
    36   18   19 1   
    37   18   52 1   
    38   19   20 1   
    39   20   21 ar  
    40   21   22 ar  
    41   21   53 1   
    42   22   23 ar  
    43   22   54 1   
    44   23   24 ar  
    45   23   25 1   
    46   24   55 1   
    47   26   27 1   
    48   26   56 1   
    49   26   57 1   
    50   27   28 2   
    51   27   29 1   
    52   29   30 1   
    53   29   34 1   
    54   30   31 1   
    55   30   58 1   
    56   30   59 1   
    57   31   32 1   
    58   31   60 1   
    59   31   61 1   
    60   32   33 1   
    61   32   35 1   
    62   32   62 1   
    63   33   34 1   
    64   33   63 1   
    65   33   64 1   
    66   34   65 1   
    67   34   66 1   
    68   35   36 1   
    69   35   67 1   
    70   35   68 1   
    71   36   37 1   
    72   36   38 1   
@<TRIPOS>SUBSTRUCTURE
     1 D3A         1 TEMP              0 ****  ****    0 ROOT
