@<TRIPOS>MOLECULE
D3A
   68    72     1     0     0
SMALL
bcc


@<TRIPOS>ATOM
      1 C37         5.7530    0.4040    1.0060 c3        1 D3A      0.114700
      2 O36         4.5310    0.7110    1.6770 os        1 D3A     -0.332900
      3 C21         3.6770    1.5230    0.9440 ca        1 D3A      0.076100
      4 C20         3.9810    2.8860    0.7200 ca        1 D3A      0.084100
      5 O34         5.2380    3.3000    1.1290 os        1 D3A     -0.329900
      6 C35         5.4320    4.7070    1.1980 c3        1 D3A      0.115700
      7 C19         3.0540    3.7190    0.0870 ca        1 D3A     -0.186000
      8 C18         1.8250    3.1970   -0.3170 ca        1 D3A     -0.111000
      9 C17         1.5190    1.8560   -0.1050 ca        1 D3A     -0.114000
     10 C8          2.4430    1.0060    0.5150 ca        1 D3A     -0.086300
     11 C7          2.0840   -0.4350    0.7830 c3        1 D3A      0.244700
     12 C1          2.4410   -1.3480   -0.3630 ca        1 D3A     -0.095300
     13 O6          0.7250   -0.4120    1.2300 os        1 D3A     -0.405600
     14 C5         -0.1730   -1.3690    0.6680 c3        1 D3A      0.217400
     15 C4          0.2040   -2.7360    1.1390 cc        1 D3A     -0.125600
     16 C10        -0.4230   -3.6430    1.9980 cd        1 D3A     -0.173000
     17 C11         0.4130   -4.8110    2.0790 cd        1 D3A     -0.191000
     18 C12         1.5280   -4.5880    1.2670 cc        1 D3A     -0.152300
     19 N3          1.4200   -3.3080    0.7120 na        1 D3A     -0.001200
     20 C2          2.2170   -2.7500   -0.3020 ca        1 D3A      0.024800
     21 C13         2.7670   -3.5910   -1.2950 ca        1 D3A     -0.145000
     22 C14         3.4910   -3.0600   -2.3540 ca        1 D3A     -0.108000
     23 C15         3.6620   -1.6770   -2.4420 ca        1 D3A      0.002400
     24 C16         3.1430   -0.8340   -1.4580 ca        1 D3A     -0.092000
     25 CL1         4.5170   -1.0140   -3.7540 cl        1 D3A     -0.094400
     26 C9         -1.5640   -0.9640    1.1490 c3        1 D3A     -0.144400
     27 C22        -2.1600    0.1220    0.2650 c         1 D3A      0.659100
     28 O24        -1.5360    0.5190   -0.7470 o         1 D3A     -0.648100
     29 N23        -3.3600    0.7020    0.6280 n         1 D3A     -0.447800
     30 C25        -4.1980    0.1860    1.6890 c3        1 D3A      0.083000
     31 C26        -5.5470   -0.3580    1.2150 c3        1 D3A     -0.104400
     32 C27        -6.2760    0.6740    0.3670 c3        1 D3A     -0.039700
     33 C28        -5.3830    1.1100   -0.7840 c3        1 D3A     -0.104400
     34 C29        -4.0350    1.6180   -0.2810 c3        1 D3A      0.083000
     35 C30        -7.6000    0.1390   -0.1400 c3        1 D3A     -0.194400
     36 C31        -8.5440    1.2700   -0.5930 c         1 D3A      0.909600
     37 O32        -9.7120    1.2800   -0.1120 o         1 D3A     -0.848300
     38 O33        -8.1200    2.1210   -1.4290 o         1 D3A     -0.848300
     39 H1          6.2850   -0.2690    1.7230 h1        1 D3A      0.041033
     40 H2          5.5450   -0.1240    0.0440 h1        1 D3A      0.041033
     41 H3          6.3430    1.3350    0.8210 h1        1 D3A      0.041033
     42 H4          6.4290    4.8100    1.6970 h1        1 D3A      0.041033
     43 H5          5.4620    5.1450    0.1700 h1        1 D3A      0.041033
     44 H6          4.6330    5.1940    1.8070 h1        1 D3A      0.041033
     45 H7          3.2800    4.7790   -0.0880 ha        1 D3A      0.134000
     46 H8          1.0880    3.8530   -0.8040 ha        1 D3A      0.143000
     47 H9          0.5330    1.4500   -0.4060 ha        1 D3A      0.189000
     48 H10         2.6790   -0.7950    1.6810 h1        1 D3A      0.087700
     49 H11        -0.1240   -1.3140   -0.4600 h1        1 D3A      0.088700
     50 H12        -1.3650   -3.4940    2.5170 ha        1 D3A      0.156000
     51 H13         0.2130   -5.6990    2.6700 ha        1 D3A      0.151000
     52 H14         2.3930   -5.2200    1.0650 h4        1 D3A      0.164000
     53 H15         2.6090   -4.6800   -1.2430 ha        1 D3A      0.146000
     54 H16         3.9120   -3.7270   -3.1220 ha        1 D3A      0.148000
     55 H17         3.2940    0.2560   -1.5460 ha        1 D3A      0.167000
     56 H18        -2.2320   -1.8650    1.1180 hc        1 D3A      0.081700
     57 H19        -1.4900   -0.5960    2.2070 hc        1 D3A      0.081700
     58 H20        -3.6640   -0.6160    2.2680 h1        1 D3A      0.045950
     59 H21        -4.3920    1.0450    2.3970 h1        1 D3A      0.045950
     60 H22        -5.4000   -1.2980    0.6240 hc        1 D3A      0.058700
     61 H23        -6.1590   -0.6140    2.1180 hc        1 D3A      0.058700
     62 H24        -6.4860    1.5750    1.0100 hc        1 D3A      0.052700
     63 H25        -5.2290    0.2550   -1.4910 hc        1 D3A      0.058700
     64 H26        -5.9130    1.9290   -1.3480 hc        1 D3A      0.058700
     65 H27        -4.1940    2.5800    0.2860 h1        1 D3A      0.045950
     66 H28        -3.3630    1.8310   -1.1590 h1        1 D3A      0.045950
     67 H29        -7.4320   -0.5470   -1.0080 hc        1 D3A      0.025200
     68 H30        -8.1050   -0.4440    0.6710 hc        1 D3A      0.025200
@<TRIPOS>BOND
     1    1    2 1   
     2    1   39 1   
     3    1   40 1   
     4    1   41 1   
     5    2    3 1   
     6    3    4 ar  
     7    3   10 ar  
     8    4    5 1   
     9    4    7 ar  
    10    5    6 1   
    11    6   42 1   
    12    6   43 1   
    13    6   44 1   
    14    7    8 ar  
    15    7   45 1   
    16    8    9 ar  
    17    8   46 1   
    18    9   10 ar  
    19    9   47 1   
    20   10   11 1   
    21   11   12 1   
    22   11   13 1   
    23   11   48 1   
    24   12   20 ar  
    25   12   24 ar  
    26   13   14 1   
    27   14   15 1   
    28   14   26 1   
    29   14   49 1   
    30   15   16 2   
    31   15   19 1   
    32   16   17 1   
    33   16   50 1   
    34   17   18 2   
    35   17   51 1   
    36   18   19 1   
    37   18   52 1   
    38   19   20 1   
    39   20   21 ar  
    40   21   22 ar  
    41   21   53 1   
    42   22   23 ar  
    43   22   54 1   
    44   23   24 ar  
    45   23   25 1   
    46   24   55 1   
    47   26   27 1   
    48   26   56 1   
    49   26   57 1   
    50   27   28 2   
    51   27   29 1   
    52   29   30 1   
    53   29   34 1   
    54   30   31 1   
    55   30   58 1   
    56   30   59 1   
    57   31   32 1   
    58   31   60 1   
    59   31   61 1   
    60   32   33 1   
    61   32   35 1   
    62   32   62 1   
    63   33   34 1   
    64   33   63 1   
    65   33   64 1   
    66   34   65 1   
    67   34   66 1   
    68   35   36 1   
    69   35   67 1   
    70   35   68 1   
    71   36   37 1   
    72   36   38 1   
@<TRIPOS>SUBSTRUCTURE
     1 D3A         1 TEMP              0 ****  ****    0 ROOT
