@<TRIPOS>MOLECULE
D3A
   68    72     1     0     0
SMALL
bcc


@<TRIPOS>ATOM
      1 C37         0.4020    0.8990    0.0950 c3        1 D3A      0.114700
      2 O36         1.6450    0.1980    0.1000 os        1 D3A     -0.332900
      3 C21         2.1200   -0.0940    1.3710 ca        1 D3A      0.076100
      4 C20         2.6080    0.9270    2.2190 ca        1 D3A      0.084100
      5 O34         2.4300    2.2240    1.7670 os        1 D3A     -0.329900
      6 C35         3.1830    3.2220    2.4450 c3        1 D3A      0.115700
      7 C19         3.1960    0.6010    3.4450 ca        1 D3A     -0.186000
      8 C18         3.3010   -0.7370    3.8220 ca        1 D3A     -0.111000
      9 C17         2.8180   -1.7480    2.9970 ca        1 D3A     -0.114000
     10 C8          2.2140   -1.4360    1.7720 ca        1 D3A     -0.086300
     11 C7          1.7360   -2.5420    0.8630 c3        1 D3A      0.244700
     12 C1          0.3110   -2.9500    1.1390 ca        1 D3A     -0.095300
     13 O6          2.7500   -3.5500    0.9220 os        1 D3A     -0.405600
     14 C5          2.3290   -4.9040    1.0840 c3        1 D3A      0.217400
     15 C4          1.6260   -5.3540   -0.1550 cc        1 D3A     -0.125600
     16 C10         1.9640   -6.2790   -1.1480 cd        1 D3A     -0.173000
     17 C11         0.8920   -6.2970   -2.1050 cd        1 D3A     -0.191000
     18 C12        -0.0750   -5.3850   -1.6740 cc        1 D3A     -0.152300
     19 N3          0.3820   -4.7840   -0.4960 na        1 D3A     -0.001200
     20 C2         -0.3450   -3.9510    0.3730 ca        1 D3A      0.024800
     21 C13        -1.7370   -4.1430    0.5150 ca        1 D3A     -0.145000
     22 C14        -2.4680   -3.3900    1.4240 ca        1 D3A     -0.108000
     23 C15        -1.8120   -2.4450    2.2160 ca        1 D3A      0.002400
     24 C16        -0.4410   -2.2300    2.0730 ca        1 D3A     -0.092000
     25 CL1        -2.6930   -1.5440    3.3580 cl        1 D3A     -0.094400
     26 C9          3.6030   -5.7060    1.3400 c3        1 D3A     -0.144400
     27 C22         4.0050   -5.6510    2.8070 c         1 D3A      0.659100
     28 O24         3.2780   -5.0520    3.6350 o         1 D3A     -0.648100
     29 N23         5.2050   -6.2120    3.1970 n         1 D3A     -0.447800
     30 C25         6.0070   -7.0460    2.3270 c3        1 D3A      0.083000
     31 C26         6.1210   -8.5020    2.7830 c3        1 D3A     -0.104400
     32 C27         6.5850   -8.5780    4.2300 c3        1 D3A     -0.039700
     33 C28         5.6520   -7.7610    5.1090 c3        1 D3A     -0.104400
     34 C29         5.5360   -6.3240    4.6110 c3        1 D3A      0.083000
     35 C30         6.6710  -10.0140    4.7090 c3        1 D3A     -0.194400
     36 C31         7.5510  -10.1510    5.9670 c         1 D3A      0.909600
     37 O32         8.4770  -11.0090    5.9370 o         1 D3A     -0.848300
     38 O33         7.3020   -9.4180    6.9690 o         1 D3A     -0.848300
     39 H1         -0.3860    0.2950    0.6070 h1        1 D3A      0.041033
     40 H2          0.1700    1.0160   -0.9930 h1        1 D3A      0.041033
     41 H3          0.5120    1.8960    0.5880 h1        1 D3A      0.041033
     42 H4          3.0190    4.1400    1.8260 h1        1 D3A      0.041033
     43 H5          2.7880    3.3720    3.4790 h1        1 D3A      0.041033
     44 H6          4.2670    2.9560    2.4760 h1        1 D3A      0.041033
     45 H7          3.5820    1.3880    4.1080 ha        1 D3A      0.134000
     46 H8          3.7740   -0.9970    4.7820 ha        1 D3A      0.143000
     47 H9          2.9220   -2.8110    3.2900 ha        1 D3A      0.189000
     48 H10         1.7630   -2.1660   -0.2090 h1        1 D3A      0.087700
     49 H11         1.6390   -4.9800    1.9770 h1        1 D3A      0.088700
     50 H12         2.8730   -6.8710   -1.1940 ha        1 D3A      0.156000
     51 H13         0.8480   -6.9050   -3.0030 ha        1 D3A      0.151000
     52 H14        -1.0260   -5.0990   -2.1200 h4        1 D3A      0.164000
     53 H15        -2.2520   -4.9070   -0.0880 ha        1 D3A      0.146000
     54 H16        -3.5520   -3.5520    1.5260 ha        1 D3A      0.148000
     55 H17         0.0560   -1.4740    2.7070 ha        1 D3A      0.167000
     56 H18         3.4180   -6.7750    1.0550 hc        1 D3A      0.081700
     57 H19         4.4270   -5.2910    0.7030 hc        1 D3A      0.081700
     58 H20         7.0440   -6.5970    2.3130 h1        1 D3A      0.045950
     59 H21         5.6140   -7.0220    1.2740 h1        1 D3A      0.045950
     60 H22         5.1340   -9.0200    2.6750 hc        1 D3A      0.058700
     61 H23         6.8550   -9.0220    2.1160 hc        1 D3A      0.058700
     62 H24         7.6160   -8.1260    4.2950 hc        1 D3A      0.052700
     63 H25         6.0620   -7.7690    6.1590 hc        1 D3A      0.058700
     64 H26         4.6390   -8.2390    5.1360 hc        1 D3A      0.058700
     65 H27         6.5270   -5.8040    4.7550 h1        1 D3A      0.045950
     66 H28         4.7600   -5.7780    5.2170 h1        1 D3A      0.045950
     67 H29         5.6500  -10.4010    4.9510 hc        1 D3A      0.025200
     68 H30         7.1030  -10.6550    3.8990 hc        1 D3A      0.025200
@<TRIPOS>BOND
     1    1    2 1   
     2    1   39 1   
     3    1   40 1   
     4    1   41 1   
     5    2    3 1   
     6    3    4 ar  
     7    3   10 ar  
     8    4    5 1   
     9    4    7 ar  
    10    5    6 1   
    11    6   42 1   
    12    6   43 1   
    13    6   44 1   
    14    7    8 ar  
    15    7   45 1   
    16    8    9 ar  
    17    8   46 1   
    18    9   10 ar  
    19    9   47 1   
    20   10   11 1   
    21   11   12 1   
    22   11   13 1   
    23   11   48 1   
    24   12   20 ar  
    25   12   24 ar  
    26   13   14 1   
    27   14   15 1   
    28   14   26 1   
    29   14   49 1   
    30   15   16 2   
    31   15   19 1   
    32   16   17 1   
    33   16   50 1   
    34   17   18 2   
    35   17   51 1   
    36   18   19 1   
    37   18   52 1   
    38   19   20 1   
    39   20   21 ar  
    40   21   22 ar  
    41   21   53 1   
    42   22   23 ar  
    43   22   54 1   
    44   23   24 ar  
    45   23   25 1   
    46   24   55 1   
    47   26   27 1   
    48   26   56 1   
    49   26   57 1   
    50   27   28 2   
    51   27   29 1   
    52   29   30 1   
    53   29   34 1   
    54   30   31 1   
    55   30   58 1   
    56   30   59 1   
    57   31   32 1   
    58   31   60 1   
    59   31   61 1   
    60   32   33 1   
    61   32   35 1   
    62   32   62 1   
    63   33   34 1   
    64   33   63 1   
    65   33   64 1   
    66   34   65 1   
    67   34   66 1   
    68   35   36 1   
    69   35   67 1   
    70   35   68 1   
    71   36   37 1   
    72   36   38 1   
@<TRIPOS>SUBSTRUCTURE
     1 D3A         1 TEMP              0 ****  ****    0 ROOT
