@<TRIPOS>MOLECULE
D3A
   68    63     1     0     0
SMALL
bcc


@<TRIPOS>ATOM
      1 C37        -1.4530    4.3740   -1.7770 c3        1 D3A     -0.075000
      2 O36        -2.3520    3.5060   -1.1740 os        1 D3A     -0.215000
      3 C21        -2.2160    3.4160    0.2300 c2        1 D3A      0.036000
      4 C20        -2.3010    4.5880    1.0260 c1        1 D3A      0.046000
      5 O34        -2.6240    5.8210    0.4230 o         1 D3A     -0.207000
      6 C35        -1.7940    6.9140    0.8580 c3        1 D3A     -0.076000
      7 C19        -2.1780    4.5010    2.4130 c2        1 D3A     -0.189000
      8 C18        -1.9710    3.2590    3.0190 c1        1 D3A     -0.113000
      9 C17        -1.8850    2.0820    2.2190 c1        1 D3A     -0.119000
     10 C8         -2.0090    2.1730    0.8320 c2        1 D3A     -0.059000
     11 C7         -2.1010    0.8560   -0.0400 c3        1 D3A      0.119000
     12 C1         -3.5410    0.3970   -0.1010 c1        1 D3A     -0.089000
     13 O6         -1.3180   -0.0940    0.5040 os        1 D3A     -0.269000
     14 C5         -0.8820   -0.7930   -0.3410 c3        1 D3A      0.097000
     15 C4         -1.3360   -0.3110   -1.6890 c2        1 D3A     -0.106000
     16 C10        -0.5480    0.0430   -2.7950 c1        1 D3A     -0.166000
     17 C11        -1.1150   -0.4720   -3.8820 c1        1 D3A     -0.195000
     18 C12        -2.2350   -1.1400   -3.4970 c1        1 D3A     -0.122000
     19 N3         -2.3510   -1.0240   -2.1270 n2        1 D3A     -0.095000
     20 C2         -3.7690   -0.6990   -1.2530 c1        1 D3A      0.068000
     21 C13        -4.9540   -1.3950   -1.3110 c1        1 D3A     -0.138000
     22 C14        -5.9910   -1.1390   -0.3360 c1        1 D3A     -0.108000
     23 C15        -5.7780   -0.1180    0.7360 c1        1 D3A     -0.072000
     24 C16        -4.5120    0.6310    0.8050 c2        1 D3A     -0.082000
     25 CL1        -6.7110   -0.6330    2.0910 cl        1 D3A     -0.020000
     26 C9          0.7740   -0.7560   -0.2780 c3        1 D3A     -0.174000
     27 C22         1.2840   -1.7320    0.8210 c2        1 D3A      0.300000
     28 O24         0.5260   -2.1840    1.6180 o         1 D3A     -0.402000
     29 N23         2.7020   -2.0070    0.9310 n         1 D3A     -0.306000
     30 C25         3.5880   -1.5160    0.0460 c3        1 D3A     -0.035000
     31 C26         4.4820   -2.5600   -0.5510 c3        1 D3A     -0.184500
     32 C27         5.2500   -3.4370    0.5180 c3        1 D3A     -0.080000
     33 C28         4.0980   -3.9010    1.4320 c3        1 D3A     -0.184500
     34 C29         3.2180   -2.7850    1.9300 c3        1 D3A     -0.035000
     35 C30         5.9130   -4.5630   -0.1060 c3        1 D3A     -0.222000
     36 C31         7.3550   -4.6150    0.3610 c2        1 D3A      0.328000
     37 O32         8.1210   -3.7120    0.0730 o         1 D3A     -0.584500
     38 O33         7.7500   -5.5700    1.1110 o         1 D3A     -0.584500
     39 H1         -0.8370    3.8630   -2.3470 h1        1 D3A      0.082667
     40 H2         -0.9440    4.8430   -1.0920 h1        1 D3A      0.082667
     41 H3         -1.9430    5.0230   -2.3240 h1        1 D3A      0.082667
     42 H4         -2.1380    7.7600    0.4790 h1        1 D3A      0.081333
     43 H5         -0.8780    6.7690    0.5540 h1        1 D3A      0.081333
     44 H6         -1.8080    6.9620    1.7890 h1        1 D3A      0.081333
     45 H7         -2.2390    5.3170    2.9660 ha        1 D3A      0.135000
     46 H8         -1.8790    3.1950    4.0350 ha        1 D3A      0.137000
     47 H9         -1.6410    1.2160    2.6380 ha        1 D3A      0.168000
     48 H10        -1.7910    1.0470   -0.9380 h1        1 D3A      0.113000
     49 H11        -1.1870   -1.6830   -0.2060 h1        1 D3A      0.134000
     50 H12         0.2060    0.4030   -3.2990 DU        1 D3A      0.159000
     51 H13        -1.0170   -0.6880   -4.7920 DU        1 D3A      0.159000
     52 H14        -2.7430   -1.8110   -3.9680 DU        1 D3A      0.159000
     53 H15        -5.0970   -2.0720   -2.0230 ha        1 D3A      0.146000
     54 H16        -6.8560   -1.7160   -0.3370 ha        1 D3A      0.147000
     55 H17        -4.3750    1.2910    1.4990 ha        1 D3A      0.164000
     56 H18         1.1510   -1.0350   -1.1760 hc        1 D3A      0.123500
     57 H19         1.0700    0.1430   -0.0690 hc        1 D3A      0.123500
     58 H20         4.1420   -0.8520    0.4960 h1        1 D3A      0.085250
     59 H21         3.0750   -1.0570   -0.7040 h1        1 D3A      0.085250
     60 H22         5.1320   -2.1230   -1.1100 hc        1 D3A      0.098750
     61 H23         3.9330   -3.1560   -1.1140 hc        1 D3A      0.098750
     62 H24         5.8900   -2.8940    1.0150 hc        1 D3A      0.089000
     63 H25         4.5030   -4.3920    2.2510 hc        1 D3A      0.098750
     64 H26         3.5560   -4.5170    0.9460 hc        1 D3A      0.098750
     65 H27         3.7450   -2.2130    2.5310 h1        1 D3A      0.085250
     66 H28         2.4810   -3.1730    2.4350 h1        1 D3A      0.085250
     67 H29         5.4600   -5.3920    0.1440 hc        1 D3A      0.065000
     68 H30         5.8920   -4.4640   -1.0170 hc        1 D3A      0.065000
@<TRIPOS>BOND
     1    1    2 1   
     2    1   39 1   
     3    1   40 1   
     4    1   41 1   
     5    2    3 1   
     6    3    4 1   
     7    3   10 1   
     8    4    7 1   
     9    5    6 1   
    10    6   42 1   
    11    6   43 1   
    12    6   44 1   
    13    7    8 1   
    14    7   45 1   
    15    8   46 1   
    16    9   10 1   
    17    9   47 1   
    18   10   11 1   
    19   11   12 1   
    20   11   13 1   
    21   11   48 1   
    22   12   24 1   
    23   13   14 1   
    24   14   15 1   
    25   14   26 1   
    26   14   49 1   
    27   15   16 1   
    28   15   19 1   
    29   16   17 1   
    30   17   18 1   
    31   18   19 1   
    32   20   21 1   
    33   21   53 1   
    34   22   23 1   
    35   22   54 1   
    36   23   24 1   
    37   24   55 1   
    38   26   27 1   
    39   26   56 1   
    40   26   57 1   
    41   27   28 1   
    42   27   29 1   
    43   29   30 1   
    44   29   34 1   
    45   30   31 1   
    46   30   58 1   
    47   30   59 1   
    48   31   32 1   
    49   31   60 1   
    50   31   61 1   
    51   32   33 1   
    52   32   35 1   
    53   32   62 1   
    54   33   34 1   
    55   33   63 1   
    56   33   64 1   
    57   34   65 1   
    58   34   66 1   
    59   35   36 1   
    60   35   67 1   
    61   35   68 1   
    62   36   37 1   
    63   36   38 1   
@<TRIPOS>SUBSTRUCTURE
     1 D3A         1 TEMP              0 ****  ****    0 ROOT
