@<TRIPOS>MOLECULE
D3C
   52    54     1     0     0
SMALL
bcc


@<TRIPOS>ATOM
      1 FBB        -0.4810    1.4800    0.6750 f         1 D3C     -0.215633
      2 CBA         0.4790    0.8560   -0.0880 c3        1 D3C      0.720200
      3 FBC         1.1200    0.0180    0.7890 f         1 D3C     -0.215633
      4 FBD        -0.2070    0.0460   -0.9470 f         1 D3C     -0.215633
      5 CAX         1.4060    1.8370   -0.7860 cc        1 D3C     -0.166600
      6 CAY         1.5970    2.0250   -2.1670 cd        1 D3C     -0.111000
      7 CAZ         2.5440    3.0860   -2.3240 cd        1 D3C     -0.140000
      8 CAV         2.9020    3.5130   -1.0340 cc        1 D3C     -0.223600
      9 CAU         3.8950    4.5260   -0.5840 c3        1 D3C      0.119300
     10 NAW         2.2110    2.7360   -0.0930 na        1 D3C     -0.042100
     11 CAT         2.3380    2.9100    1.3290 c3        1 D3C     -0.007700
     12 CAS         3.3890    3.9770    1.7260 c3        1 D3C      0.042000
     13 NAQ         3.5630    5.0580    0.7420 n         1 D3C     -0.350800
     14 CAP         2.7290    6.1470    0.9170 c         1 D3C      0.630100
     15 OAR         2.2890    6.6100    1.9700 o         1 D3C     -0.474100
     16 NAO         2.4020    7.0410   -0.3240 n4        1 D3C     -0.678800
     17 CAN         1.5750    8.2170    0.0650 c3        1 D3C      0.101800
     18 CAL         1.1640    9.0880   -1.1180 c3        1 D3C     -0.138400
     19 CAK         0.6360   10.4480   -0.6530 c3        1 D3C      0.121500
     20 NAM        -0.7900   10.3950   -0.1780 n4        1 D3C     -0.843600
     21 CAJ         0.7780   11.4780   -1.7920 c3        1 D3C     -0.042100
     22 CAD         0.2360   12.8100   -1.4180 ca        1 D3C     -0.225300
     23 CAC        -0.8440   13.3490   -2.1230 ca        1 D3C     -0.127000
     24 CAB        -1.3000   14.6470   -1.8590 ca        1 D3C      0.107900
     25 FAI        -2.3470   15.1510   -2.5410 f         1 D3C     -0.082900
     26 CAA        -0.6450   15.4390   -0.8670 ca        1 D3C      0.179900
     27 FAH        -1.0700   16.6880   -0.6170 f         1 D3C     -0.069900
     28 CAF         0.4420   14.9050   -0.1590 ca        1 D3C     -0.169000
     29 CAE         0.8760   13.6000   -0.4360 ca        1 D3C      0.142900
     30 FAG         1.9250   13.0880    0.2530 f         1 D3C     -0.135900
     31 H1          1.1160    1.4520   -2.9600 ha        1 D3C      0.199000
     32 H2          2.9320    3.4640   -3.2680 ha        1 D3C      0.175000
     33 H3          4.9130    4.0360   -0.4630 h1        1 D3C      0.098200
     34 H4          4.0150    5.3330   -1.3560 h1        1 D3C      0.098200
     35 H5          2.6420    1.9270    1.8000 h1        1 D3C      0.104200
     36 H6          1.3270    3.1900    1.7480 h1        1 D3C      0.104200
     37 H7          3.1050    4.4080    2.7280 h1        1 D3C      0.123200
     38 H8          4.4070    3.4950    1.8190 h1        1 D3C      0.123200
     39 H9          1.9010    6.4660   -1.0110 hn        1 D3C      0.462300
     40 H10         2.1810    8.8170    0.8090 hx        1 D3C      0.119700
     41 H11         0.6640    7.8230    0.6040 hx        1 D3C      0.119700
     42 H12         2.0560    9.3010   -1.7750 hc        1 D3C      0.102200
     43 H13         0.4100    8.5560   -1.7590 hc        1 D3C      0.102200
     44 H14         1.2470   10.8210    0.2310 hx        1 D3C      0.133700
     45 H15        -1.1100   11.3640   -0.0090 hn        1 D3C      0.469800
     46 H16        -0.8680    9.8570    0.6880 hn        1 D3C      0.469800
     47 H18         0.2860   11.0930   -2.7250 hc        1 D3C      0.101700
     48 H19         1.8810   11.5820   -2.0050 hc        1 D3C      0.101700
     49 H20        -1.3330   12.7750   -2.9290 ha        1 D3C      0.167000
     50 H21         0.9620   15.5170    0.5990 ha        1 D3C      0.204000
     51 HAO2        3.2780    7.3640   -0.7480 hn        1 D3C      0.462300
     52 HAM3       -1.3950    9.9780   -0.8940 hn        1 D3C      0.469800
@<TRIPOS>BOND
     1    1    2 1   
     2    2    3 1   
     3    2    4 1   
     4    2    5 1   
     5    5    6 2   
     6    5   10 1   
     7    6    7 1   
     8    6   31 1   
     9    7    8 2   
    10    7   32 1   
    11    8    9 1   
    12    8   10 1   
    13    9   13 1   
    14    9   33 1   
    15    9   34 1   
    16   10   11 1   
    17   11   12 1   
    18   11   35 1   
    19   11   36 1   
    20   12   13 1   
    21   12   37 1   
    22   12   38 1   
    23   13   14 1   
    24   14   15 2   
    25   14   16 1   
    26   16   17 1   
    27   16   39 1   
    28   16   51 1   
    29   17   18 1   
    30   17   40 1   
    31   17   41 1   
    32   18   19 1   
    33   18   42 1   
    34   18   43 1   
    35   19   20 1   
    36   19   21 1   
    37   19   44 1   
    38   20   45 1   
    39   20   46 1   
    40   20   52 1   
    41   21   22 1   
    42   21   47 1   
    43   21   48 1   
    44   22   23 ar  
    45   22   29 ar  
    46   23   24 ar  
    47   23   49 1   
    48   24   25 1   
    49   24   26 ar  
    50   26   27 1   
    51   26   28 ar  
    52   28   29 ar  
    53   28   50 1   
    54   29   30 1   
@<TRIPOS>SUBSTRUCTURE
     1 D3C         1 TEMP              0 ****  ****    0 ROOT
