@<TRIPOS>MOLECULE
D3C
   52    54     1     0     0
SMALL
bcc


@<TRIPOS>ATOM
      1 FBB        -0.4800    1.4830    0.6930 f         1 D3C     -0.215633
      2 CBA         0.4750    0.8570   -0.0750 c3        1 D3C      0.720200
      3 FBC         1.1210    0.0200    0.7990 f         1 D3C     -0.215633
      4 FBD        -0.2180    0.0470   -0.9290 f         1 D3C     -0.215633
      5 CAX         1.3980    1.8360   -0.7800 cc        1 D3C     -0.166600
      6 CAY         1.5820    2.0230   -2.1620 cd        1 D3C     -0.111000
      7 CAZ         2.5280    3.0830   -2.3260 cd        1 D3C     -0.140000
      8 CAV         2.8950    3.5110   -1.0390 cc        1 D3C     -0.223600
      9 CAU         3.8910    4.5240   -0.5960 c3        1 D3C      0.119300
     10 NAW         2.2090    2.7350   -0.0920 na        1 D3C     -0.042100
     11 CAT         2.3440    2.9120    1.3290 c3        1 D3C     -0.007700
     12 CAS         3.3980    3.9780    1.7180 c3        1 D3C      0.042000
     13 NAQ         3.5680    5.0570    0.7310 n         1 D3C     -0.350800
     14 CAP         2.7360    6.1480    0.9100 c         1 D3C      0.630100
     15 OAR         2.3020    6.6120    1.9640 o         1 D3C     -0.474100
     16 NAO         2.4020    7.0400   -0.3310 ny        1 D3C     -0.678800
     17 CAN         1.5780    8.2170    0.0620 c3        1 D3C      0.101800
     18 CAL         1.1610    9.0870   -1.1200 c3        1 D3C     -0.138400
     19 CAK         0.6360   10.4480   -0.6530 c3        1 D3C      0.121500
     20 NAM        -0.7880   10.3970   -0.1720 nz        1 D3C     -0.843600
     21 CAJ         0.7750   11.4780   -1.7930 c3        1 D3C     -0.042100
     22 CAD         0.2360   12.8100   -1.4170 ca        1 D3C     -0.225300
     23 CAC        -0.8460   13.3500   -2.1180 ca        1 D3C     -0.127000
     24 CAB        -1.3000   14.6490   -1.8510 ca        1 D3C      0.107900
     25 FAI        -2.3490   15.1540   -2.5280 f         1 D3C     -0.082900
     26 CAA        -0.6390   15.4410   -0.8620 ca        1 D3C      0.179900
     27 FAH        -1.0610   16.6900   -0.6110 f         1 D3C     -0.069900
     28 CAF         0.4500   14.9050   -0.1590 ca        1 D3C     -0.169000
     29 CAE         0.8820   13.6000   -0.4390 ca        1 D3C      0.142900
     30 FAG         1.9330   13.0860    0.2460 f         1 D3C     -0.135900
     31 H1          1.0950    1.4490   -2.9510 ha        1 D3C      0.199000
     32 H2          2.9110    3.4590   -3.2730 ha        1 D3C      0.175000
     33 H3          4.9100    4.0330   -0.4810 h1        1 D3C      0.098200
     34 H4          4.0070    5.3290   -1.3700 h1        1 D3C      0.098200
     35 H5          1.3360    3.1930    1.7530 h1        1 D3C      0.104200
     36 H6          2.6500    1.9280    1.7990 h1        1 D3C      0.104200
     37 H7          3.1200    4.4110    2.7210 h1        1 D3C      0.123200
     38 H8          4.4170    3.4950    1.8050 h1        1 D3C      0.123200
     39 H9          3.2760    7.3620   -0.7600 hn        1 D3C      0.462300
     40 H10         2.1880    8.8170    0.8020 hx        1 D3C      0.119700
     41 H11         0.6700    7.8250    0.6060 hx        1 D3C      0.119700
     42 H12         2.0500    9.2990   -1.7820 hc        1 D3C      0.102200
     43 H13         0.4040    8.5560   -1.7560 hc        1 D3C      0.102200
     44 H14         1.2510   10.8210    0.2280 hx        1 D3C      0.133700
     45 H15        -0.8630    9.8590    0.6940 hn        1 D3C      0.469800
     46 H16        -1.1060   11.3660   -0.0020 hn        1 D3C      0.469800
     47 H18         1.8770   11.5800   -2.0110 hc        1 D3C      0.101700
     48 H19         0.2780   11.0930   -2.7240 hc        1 D3C      0.101700
     49 H20        -1.3390   12.7770   -2.9200 ha        1 D3C      0.167000
     50 H21         0.9740   15.5170    0.5960 ha        1 D3C      0.204000
     51 HAO2        1.8970    6.4640   -1.0140 hn        1 D3C      0.462300
     52 HAM3       -1.3960    9.9800   -0.8850 hn        1 D3C      0.469800
@<TRIPOS>BOND
     1    1    2 1   
     2    2    3 1   
     3    2    4 1   
     4    2    5 1   
     5    5    6 2   
     6    5   10 1   
     7    6    7 1   
     8    6   31 1   
     9    7    8 2   
    10    7   32 1   
    11    8    9 1   
    12    8   10 1   
    13    9   13 1   
    14    9   33 1   
    15    9   34 1   
    16   10   11 1   
    17   11   12 1   
    18   11   35 1   
    19   11   36 1   
    20   12   13 1   
    21   12   37 1   
    22   12   38 1   
    23   13   14 1   
    24   14   15 2   
    25   14   16 1   
    26   16   17 1   
    27   16   39 1   
    28   16   51 1   
    29   17   18 1   
    30   17   40 1   
    31   17   41 1   
    32   18   19 1   
    33   18   42 1   
    34   18   43 1   
    35   19   20 1   
    36   19   21 1   
    37   19   44 1   
    38   20   45 1   
    39   20   46 1   
    40   20   52 1   
    41   21   22 1   
    42   21   47 1   
    43   21   48 1   
    44   22   23 ar  
    45   22   29 ar  
    46   23   24 ar  
    47   23   49 1   
    48   24   25 1   
    49   24   26 ar  
    50   26   27 1   
    51   26   28 ar  
    52   28   29 ar  
    53   28   50 1   
    54   29   30 1   
@<TRIPOS>SUBSTRUCTURE
     1 D3C         1 TEMP              0 ****  ****    0 ROOT
