@<TRIPOS>MOLECULE
D3C
   52    54     1     0     0
SMALL
bcc


@<TRIPOS>ATOM
      1 FBB        -0.4730    1.4730    0.6860 f         1 D3C     -0.215633
      2 CBA         0.4880    0.8500   -0.0760 c3        1 D3C      0.720200
      3 FBC         1.1320    0.0160    0.8020 f         1 D3C     -0.215633
      4 FBD        -0.1980    0.0360   -0.9330 f         1 D3C     -0.215633
      5 CAX         1.4110    1.8320   -0.7770 cc        1 D3C     -0.166600
      6 CAY         1.6000    2.0180   -2.1590 cd        1 D3C     -0.111000
      7 CAZ         2.5440    3.0810   -2.3200 cd        1 D3C     -0.140000
      8 CAV         2.9030    3.5110   -1.0310 cc        1 D3C     -0.223600
      9 CAU         3.8930    4.5280   -0.5850 c3        1 D3C      0.119300
     10 NAW         2.2150    2.7340   -0.0870 na        1 D3C     -0.042100
     11 CAT         2.3430    2.9120    1.3340 c3        1 D3C     -0.007700
     12 CAS         3.3920    3.9820    1.7280 c3        1 D3C      0.042000
     13 NAQ         3.5630    5.0610    0.7410 n         1 D3C     -0.350800
     14 CAP         2.7270    6.1490    0.9150 c         1 D3C      0.630100
     15 OAR         2.2870    6.6120    1.9680 o         1 D3C     -0.475100
     16 NAO         2.3970    7.0410   -0.3260 n4        1 D3C     -0.678800
     17 CAN         1.5720    8.2180    0.0630 c3        1 D3C      0.101800
     18 CAL         1.1590    9.0880   -1.1210 c3        1 D3C     -0.138400
     19 CAK         0.6320   10.4490   -0.6570 c3        1 D3C      0.121500
     20 NAM        -0.7930   10.3980   -0.1790 n4        1 D3C     -0.843600
     21 CAJ         0.7730   11.4770   -1.7970 c3        1 D3C     -0.042100
     22 CAD         0.2330   12.8100   -1.4230 ca        1 D3C     -0.225300
     23 CAC        -0.8470   13.3490   -2.1270 ca        1 D3C     -0.127000
     24 CAB        -1.3010   14.6490   -1.8630 ca        1 D3C      0.107900
     25 FAI        -2.3490   15.1530   -2.5420 f         1 D3C     -0.082900
     26 CAA        -0.6420   15.4410   -0.8730 ca        1 D3C      0.179900
     27 FAH        -1.0650   16.6910   -0.6240 f         1 D3C     -0.069900
     28 CAF         0.4460   14.9060   -0.1670 ca        1 D3C     -0.169000
     29 CAE         0.8780   13.6010   -0.4450 ca        1 D3C      0.142900
     30 FAG         1.9280   13.0880    0.2430 f         1 D3C     -0.135900
     31 H1          1.1200    1.4410   -2.9500 ha        1 D3C      0.199000
     32 H2          2.9290    3.4580   -3.2640 ha        1 D3C      0.175000
     33 H3          4.9130    4.0410   -0.4640 h1        1 D3C      0.098200
     34 H4          4.0100    5.3330   -1.3590 h1        1 D3C      0.098200
     35 H5          2.6490    1.9300    1.8070 h1        1 D3C      0.104200
     36 H6          1.3310    3.1910    1.7540 h1        1 D3C      0.104200
     37 H7          3.1080    4.4150    2.7290 h1        1 D3C      0.123200
     38 H8          4.4110    3.5030    1.8200 h1        1 D3C      0.123200
     39 H9          1.8950    6.4650   -1.0110 hn        1 D3C      0.462300
     40 H10         2.1790    8.8190    0.8050 hx        1 D3C      0.119200
     41 H11         0.6610    7.8250    0.6040 hx        1 D3C      0.119200
     42 H12         2.0490    9.2990   -1.7800 hc        1 D3C      0.102200
     43 H13         0.4030    8.5560   -1.7590 hc        1 D3C      0.102200
     44 H14         1.2460   10.8220    0.2250 hx        1 D3C      0.133700
     45 H15        -1.3990    9.9800   -0.8920 hn        1 D3C      0.469800
     46 H16        -1.1110   11.3670   -0.0100 hn        1 D3C      0.469800
     47 H18         0.2790   11.0920   -2.7280 hc        1 D3C      0.101700
     48 H19         1.8750   11.5800   -2.0130 hc        1 D3C      0.101700
     49 H20        -1.3390   12.7760   -2.9300 ha        1 D3C      0.167000
     50 H21         0.9690   15.5190    0.5880 ha        1 D3C      0.204000
     51 HAO2        3.2730    7.3630   -0.7530 hn        1 D3C      0.462300
     52 HAM3       -0.8700    9.8610    0.6880 hn        1 D3C      0.469800
@<TRIPOS>BOND
     1    1    2 1   
     2    2    3 1   
     3    2    4 1   
     4    2    5 1   
     5    5    6 2   
     6    5   10 1   
     7    6    7 1   
     8    6   31 1   
     9    7    8 2   
    10    7   32 1   
    11    8    9 1   
    12    8   10 1   
    13    9   13 1   
    14    9   33 1   
    15    9   34 1   
    16   10   11 1   
    17   11   12 1   
    18   11   35 1   
    19   11   36 1   
    20   12   13 1   
    21   12   37 1   
    22   12   38 1   
    23   13   14 1   
    24   14   15 2   
    25   14   16 1   
    26   16   17 1   
    27   16   39 1   
    28   16   51 1   
    29   17   18 1   
    30   17   40 1   
    31   17   41 1   
    32   18   19 1   
    33   18   42 1   
    34   18   43 1   
    35   19   20 1   
    36   19   21 1   
    37   19   44 1   
    38   20   45 1   
    39   20   46 1   
    40   20   52 1   
    41   21   22 1   
    42   21   47 1   
    43   21   48 1   
    44   22   23 ar  
    45   22   29 ar  
    46   23   24 ar  
    47   23   49 1   
    48   24   25 1   
    49   24   26 ar  
    50   26   27 1   
    51   26   28 ar  
    52   28   29 ar  
    53   28   50 1   
    54   29   30 1   
@<TRIPOS>SUBSTRUCTURE
     1 D3C         1 TEMP              0 ****  ****    0 ROOT
