@<TRIPOS>MOLECULE
D3E
   58    61     1     0     0
SMALL
bcc


@<TRIPOS>ATOM
      1 F25         3.4880   -2.2200    1.5440 f         1 D3E     -0.236300
      2 C21         3.4230   -2.6380    0.2420 c3        1 D3E      0.585900
      3 F23         4.2290   -3.7470    0.1960 f         1 D3E     -0.236300
      4 F24         2.1540   -3.1370    0.0850 f         1 D3E     -0.236300
      5 C2          3.8130   -1.5480   -0.8520 c3        1 D3E      0.192100
      6 C1          5.2340   -1.0680   -0.5830 c3        1 D3E     -0.093100
      7 O22         3.8480   -2.2340   -2.0900 oh        1 D3E     -0.567800
      8 C3          2.8370   -0.4030   -0.8500 ca        1 D3E     -0.122300
      9 C8          2.6160    0.3390    0.3160 ca        1 D3E     -0.115000
     10 C7          1.7320    1.4170    0.3110 ca        1 D3E     -0.096000
     11 C6          1.0640    1.7660   -0.8650 ca        1 D3E     -0.109600
     12 C5          1.3040    1.0480   -2.0410 ca        1 D3E     -0.096000
     13 C4          2.1830   -0.0320   -2.0310 ca        1 D3E     -0.115000
     14 C9          0.1970    2.9850   -0.9110 c         1 D3E      0.671700
     15 O11         0.5410    3.9350   -1.6400 o         1 D3E     -0.582100
     16 N10        -0.9250    3.0640   -0.0780 n         1 D3E     -0.438800
     17 C12        -1.5270    4.3320    0.2090 cx        1 D3E      0.032700
     18 C14        -1.9160    5.3670   -0.8290 cx        1 D3E     -0.137900
     19 C13        -0.8070    5.6630    0.1390 cx        1 D3E     -0.137900
     20 C15        -1.7980    1.9130    0.1430 c3        1 D3E      0.113700
     21 C20        -1.3430    1.0120    1.3030 c3        1 D3E     -0.096900
     22 C19        -2.3930   -0.0400    1.5890 c3        1 D3E     -0.071400
     23 C18        -2.6650   -0.8940    0.3560 c3        1 D3E     -0.018400
     24 C17        -3.0830   -0.0110   -0.8150 c3        1 D3E     -0.071400
     25 C16        -2.0390    1.0470   -1.1050 c3        1 D3E     -0.096900
     26 C26        -3.6960   -1.9330    0.6400 ca        1 D3E     -0.191600
     27 C31        -3.3880   -3.2970    0.5560 ca        1 D3E     -0.090000
     28 C30        -4.3800   -4.2380    0.8310 ca        1 D3E     -0.243300
     29 C29        -5.6620   -3.7810    1.1850 ca        1 D3E      0.390200
     30 N28        -5.9820   -2.4750    1.2740 nb        1 D3E     -0.663000
     31 C27        -5.0140   -1.5800    1.0060 ca        1 D3E      0.396200
     32 H1          5.9350   -1.9370   -0.6150 hc        1 D3E      0.067033
     33 H1A         5.5340   -0.3320   -1.3660 hc        1 D3E      0.067033
     34 H1B         5.2780   -0.5860    0.4230 hc        1 D3E      0.067033
     35 HO22        2.9600   -2.5820   -2.2550 ho        1 D3E      0.418000
     36 H8          3.1390    0.0710    1.2480 ha        1 D3E      0.149000
     37 H7          1.5660    1.9960    1.2340 ha        1 D3E      0.152000
     38 H5          0.8080    1.3500   -2.9770 ha        1 D3E      0.152000
     39 H4          2.3780   -0.5780   -2.9690 ha        1 D3E      0.149000
     40 H12        -2.2220    4.2180    1.0770 h1        1 D3E      0.084700
     41 H14        -1.6460    5.1990   -1.8870 hc        1 D3E      0.081200
     42 H14A       -2.8890    5.8760   -0.7180 hc        1 D3E      0.081200
     43 H13        -0.9830    6.3750    0.9650 hc        1 D3E      0.081200
     44 H13A        0.2280    5.7190   -0.2440 hc        1 D3E      0.081200
     45 H15        -2.8160    2.3220    0.4390 h1        1 D3E      0.059700
     46 H20        -0.3730    0.5130    1.0440 hc        1 D3E      0.052950
     47 H20A       -1.1740    1.6310    2.2220 hc        1 D3E      0.052950
     48 H19        -2.0400   -0.6960    2.4270 hc        1 D3E      0.048700
     49 H19A       -3.3450    0.4500    1.9230 hc        1 D3E      0.048700
     50 H18        -1.7000   -1.4090    0.0730 hc        1 D3E      0.058700
     51 H17        -3.2270   -0.6470   -1.7280 hc        1 D3E      0.048700
     52 H17A       -4.0660    0.4770   -0.5860 hc        1 D3E      0.048700
     53 H16        -2.3920    1.6900   -1.9530 hc        1 D3E      0.052950
     54 H16A       -1.0830    0.5560   -1.4230 hc        1 D3E      0.052950
     55 H31        -2.3740   -3.6220    0.2770 ha        1 D3E      0.140000
     56 H30        -4.1700   -5.3140    0.7740 ha        1 D3E      0.144000
     57 H29        -6.4760   -4.4920    1.4110 h4        1 D3E      0.022100
     58 H27        -5.3080   -0.5180    1.0880 h4        1 D3E      0.020100
@<TRIPOS>BOND
     1    1    2 1   
     2    2    3 1   
     3    2    4 1   
     4    2    5 1   
     5    5    6 1   
     6    5    7 1   
     7    5    8 1   
     8    6   32 1   
     9    6   33 1   
    10    6   34 1   
    11    7   35 1   
    12    8    9 ar  
    13    8   13 ar  
    14    9   10 ar  
    15    9   36 1   
    16   10   11 ar  
    17   10   37 1   
    18   11   12 ar  
    19   11   14 1   
    20   12   13 ar  
    21   12   38 1   
    22   13   39 1   
    23   14   15 2   
    24   14   16 1   
    25   16   17 1   
    26   16   20 1   
    27   17   18 1   
    28   17   19 1   
    29   17   40 1   
    30   18   19 1   
    31   18   41 1   
    32   18   42 1   
    33   19   43 1   
    34   19   44 1   
    35   20   21 1   
    36   20   25 1   
    37   20   45 1   
    38   21   22 1   
    39   21   46 1   
    40   21   47 1   
    41   22   23 1   
    42   22   48 1   
    43   22   49 1   
    44   23   24 1   
    45   23   26 1   
    46   23   50 1   
    47   24   25 1   
    48   24   51 1   
    49   24   52 1   
    50   25   53 1   
    51   25   54 1   
    52   26   27 ar  
    53   26   31 ar  
    54   27   28 ar  
    55   27   55 1   
    56   28   29 ar  
    57   28   56 1   
    58   29   30 ar  
    59   29   57 1   
    60   30   31 ar  
    61   31   58 1   
@<TRIPOS>SUBSTRUCTURE
     1 D3E         1 TEMP              0 ****  ****    0 ROOT
