@<TRIPOS>MOLECULE
D3E
   59    62     1     0     0
SMALL
bcc


@<TRIPOS>ATOM
      1 F25        -2.9280   -0.0530    0.6710 f         1 D3E     -0.226967
      2 C21        -1.7650   -0.3300    0.0020 c3        1 D3E      0.594900
      3 F23        -2.0750   -1.3460   -0.8640 f         1 D3E     -0.226967
      4 F24        -1.5410    0.7610   -0.7930 f         1 D3E     -0.226967
      5 C2         -0.5410   -0.7220    0.9470 c3        1 D3E      0.175100
      6 C1         -1.0020   -1.8020    1.9160 c3        1 D3E     -0.137100
      7 O22         0.4900   -1.1970    0.0990 oh        1 D3E     -0.579800
      8 C3         -0.0240    0.4940    1.6710 ca        1 D3E     -0.026300
      9 C8         -0.8610    1.1940    2.5470 ca        1 D3E     -0.095000
     10 C7         -0.3910    2.3180    3.2220 ca        1 D3E     -0.081500
     11 C6          0.9250    2.7550    3.0120 ca        1 D3E     -0.192600
     12 C5          1.7730    2.0470    2.1510 ca        1 D3E     -0.081500
     13 C4          1.3000    0.9200    1.4860 ca        1 D3E     -0.095000
     14 C9          1.3790    3.9430    3.7490 c         1 D3E      0.574700
     15 O11         1.1660    4.2170    4.9220 o         1 D3E     -0.423100
     16 N10         2.1730    4.9550    2.9320 nx        1 D3E     -0.561200
     17 C12         1.3790    6.1610    2.6240 cx        1 D3E      0.005500
     18 C14         0.6650    6.9650    3.6910 cx        1 D3E     -0.098400
     19 C13        -0.1350    6.1800    2.7000 cx        1 D3E     -0.098400
     20 C15         3.4700    5.3020    3.6430 c3        1 D3E      0.130500
     21 C20         4.2890    6.3510    2.8850 c3        1 D3E     -0.096900
     22 C19         5.5410    6.6890    3.6710 c3        1 D3E     -0.076400
     23 C18         6.3920    5.4540    3.9360 c3        1 D3E     -0.011400
     24 C17         5.5630    4.3900    4.6470 c3        1 D3E     -0.076400
     25 C16         4.3210    4.0420    3.8530 c3        1 D3E     -0.096900
     26 C26         7.6030    5.8040    4.7320 ca        1 D3E     -0.219600
     27 C31         8.8880    5.6040    4.2100 ca        1 D3E     -0.082000
     28 C30         9.9970    5.9450    4.9850 ca        1 D3E     -0.236300
     29 C29         9.7820    6.4800    6.2690 ca        1 D3E      0.408200
     30 N28         8.5560    6.6810    6.7900 nb        1 D3E     -0.651000
     31 C27         7.4970    6.3470    6.0310 ca        1 D3E      0.399200
     32 H1         -0.1340   -2.1600    2.5200 hc        1 D3E      0.074367
     33 H1A        -1.7900   -1.4030    2.5990 hc        1 D3E      0.074367
     34 H1B        -1.4270   -2.6640    1.3450 hc        1 D3E      0.074367
     35 HO22        0.1910   -2.0380   -0.2790 ho        1 D3E      0.442000
     36 H8         -1.9050    0.8650    2.7000 ha        1 D3E      0.181000
     37 H7         -1.0500    2.8600    3.9210 ha        1 D3E      0.151000
     38 H5          2.8250    2.3450    2.0160 ha        1 D3E      0.151000
     39 H4          1.9670    0.3580    0.8070 ha        1 D3E      0.181000
     40 H12         1.8640    6.7140    1.7850 hx        1 D3E      0.135700
     41 H14         0.6920    6.6240    4.7450 hc        1 D3E      0.109450
     42 H14A        0.7120    8.0690    3.6140 hc        1 D3E      0.109450
     43 H13        -0.6760    6.7010    1.8860 hc        1 D3E      0.109450
     44 H13A       -0.6840    5.2830    3.0460 hc        1 D3E      0.109450
     45 H15         3.1630    5.7230    4.6480 hx        1 D3E      0.118700
     46 H20         4.5700    5.9620    1.8710 hc        1 D3E      0.060450
     47 H20A        3.6930    7.2920    2.7470 hc        1 D3E      0.060450
     48 H19         5.2590    7.1710    4.6440 hc        1 D3E      0.071450
     49 H19A        6.1410    7.4370    3.0870 hc        1 D3E      0.071450
     50 H18         6.7200    5.0340    2.9410 hc        1 D3E      0.058700
     51 H17         6.1790    3.4620    4.7820 hc        1 D3E      0.071450
     52 H17A        5.2740    4.7530    5.6690 hc        1 D3E      0.071450
     53 H16         4.6200    3.6100    2.8610 hc        1 D3E      0.060450
     54 H16A        3.7350    3.2640    4.4120 hc        1 D3E      0.060450
     55 H31         9.0240    5.1840    3.2030 ha        1 D3E      0.140000
     56 H30        11.0180    5.8020    4.6070 ha        1 D3E      0.156000
     57 H29        10.6320    6.7640    6.9170 h4        1 D3E      0.037100
     58 H27         6.5080    6.5250    6.4910 h4        1 D3E      0.015100
     59 H101        2.4100    4.5160    2.0320 hn        1 D3E      0.451800
@<TRIPOS>BOND
     1    1    2 1   
     2    2    3 1   
     3    2    4 1   
     4    2    5 1   
     5    5    6 1   
     6    5    7 1   
     7    5    8 1   
     8    6   32 1   
     9    6   33 1   
    10    6   34 1   
    11    7   35 1   
    12    8    9 ar  
    13    8   13 ar  
    14    9   10 ar  
    15    9   36 1   
    16   10   11 ar  
    17   10   37 1   
    18   11   12 ar  
    19   11   14 1   
    20   12   13 ar  
    21   12   38 1   
    22   13   39 1   
    23   14   15 2   
    24   14   16 1   
    25   16   17 1   
    26   16   20 1   
    27   16   59 1   
    28   17   18 1   
    29   17   19 1   
    30   17   40 1   
    31   18   19 1   
    32   18   41 1   
    33   18   42 1   
    34   19   43 1   
    35   19   44 1   
    36   20   21 1   
    37   20   25 1   
    38   20   45 1   
    39   21   22 1   
    40   21   46 1   
    41   21   47 1   
    42   22   23 1   
    43   22   48 1   
    44   22   49 1   
    45   23   24 1   
    46   23   26 1   
    47   23   50 1   
    48   24   25 1   
    49   24   51 1   
    50   24   52 1   
    51   25   53 1   
    52   25   54 1   
    53   26   27 ar  
    54   26   31 ar  
    55   27   28 ar  
    56   27   55 1   
    57   28   29 ar  
    58   28   56 1   
    59   29   30 ar  
    60   29   57 1   
    61   30   31 ar  
    62   31   58 1   
@<TRIPOS>SUBSTRUCTURE
     1 D3E         1 TEMP              0 ****  ****    0 ROOT
