@<TRIPOS>MOLECULE
D3E
   59    62     1     0     0
SMALL
bcc


@<TRIPOS>ATOM
      1 F25        -2.9550   -0.0260    0.6980 f         1 D3E     -0.226967
      2 C21        -1.7920   -0.3260    0.0400 c3        1 D3E      0.594900
      3 F23        -2.1090   -1.3530   -0.8110 f         1 D3E     -0.226967
      4 F24        -1.5510    0.7490   -0.7700 f         1 D3E     -0.226967
      5 C2         -0.5790   -0.7170    0.9990 c3        1 D3E      0.175100
      6 C1         -1.0580   -1.7760    1.9830 c3        1 D3E     -0.137100
      7 O22         0.4520   -1.2170    0.1660 oh        1 D3E     -0.579800
      8 C3         -0.0520    0.5030    1.7070 ca        1 D3E     -0.026300
      9 C8         -0.8870    1.2280    2.5670 ca        1 D3E     -0.095000
     10 C7         -0.4070    2.3560    3.2280 ca        1 D3E     -0.081500
     11 C6          0.9150    2.7750    3.0190 ca        1 D3E     -0.192600
     12 C5          1.7600    2.0440    2.1740 ca        1 D3E     -0.081500
     13 C4          1.2780    0.9120    1.5240 ca        1 D3E     -0.095000
     14 C9          1.3770    3.9690    3.7400 c         1 D3E      0.574700
     15 O11         1.1610    4.2640    4.9070 o         1 D3E     -0.423100
     16 N10         2.1880    4.9600    2.9120 n4        1 D3E     -0.561200
     17 C12         1.4100    6.1690    2.5810 cx        1 D3E      0.005500
     18 C14         0.6990    6.9980    3.6310 cx        1 D3E     -0.098400
     19 C13        -0.1040    6.2060    2.6460 cx        1 D3E     -0.098400
     20 C15         3.4850    5.3020    3.6250 c3        1 D3E      0.130500
     21 C20         4.3200    6.3310    2.8550 c3        1 D3E     -0.096900
     22 C19         5.5710    6.6670    3.6430 c3        1 D3E     -0.076400
     23 C18         6.4060    5.4260    3.9330 c3        1 D3E     -0.011400
     24 C17         5.5610    4.3830    4.6560 c3        1 D3E     -0.076400
     25 C16         4.3200    4.0370    3.8600 c3        1 D3E     -0.096900
     26 C26         7.6170    5.7760    4.7310 ca        1 D3E     -0.219600
     27 C31         8.9030    5.5530    4.2200 ca        1 D3E     -0.082000
     28 C30        10.0100    5.8940    4.9960 ca        1 D3E     -0.236300
     29 C29         9.7940    6.4520    6.2700 ca        1 D3E      0.408200
     30 N28         8.5670    6.6740    6.7800 nb        1 D3E     -0.651000
     31 C27         7.5090    6.3400    6.0200 ca        1 D3E      0.399200
     32 H1         -1.4890   -2.6430    1.4230 hc        1 D3E      0.074367
     33 H1A        -1.8450   -1.3580    2.6540 hc        1 D3E      0.074367
     34 H1B        -0.1980   -2.1350    2.5970 hc        1 D3E      0.074367
     35 HO22        0.1450   -2.0600   -0.2010 ho        1 D3E      0.442000
     36 H8         -1.9340    0.9120    2.7180 ha        1 D3E      0.181000
     37 H7         -1.0640    2.9160    3.9140 ha        1 D3E      0.151000
     38 H5          2.8160    2.3270    2.0410 ha        1 D3E      0.151000
     39 H4          1.9420    0.3320    0.8580 ha        1 D3E      0.181000
     40 H12         1.9060    6.7040    1.7350 hx        1 D3E      0.135700
     41 H14         0.7590    8.1000    3.5360 hc        1 D3E      0.109450
     42 H14A        0.7150    6.6730    4.6900 hc        1 D3E      0.109450
     43 H13        -0.6650    5.3210    3.0030 hc        1 D3E      0.109450
     44 H13A       -0.6350    6.7200    1.8210 hc        1 D3E      0.109450
     45 H15         3.1770    5.7430    4.6220 hx        1 D3E      0.118700
     46 H20         3.7350    7.2760    2.6990 hc        1 D3E      0.060450
     47 H20A        4.6030    5.9220    1.8500 hc        1 D3E      0.060450
     48 H19         6.1820    7.3990    3.0520 hc        1 D3E      0.071450
     49 H19A        5.2890    7.1670    4.6080 hc        1 D3E      0.071450
     50 H18         6.7350    4.9870    2.9470 hc        1 D3E      0.058700
     51 H17         6.1660    3.4510    4.8090 hc        1 D3E      0.071450
     52 H17A        5.2710    4.7650    5.6700 hc        1 D3E      0.071450
     53 H16         4.6200    3.5860    2.8770 hc        1 D3E      0.060450
     54 H16A        3.7220    3.2740    4.4280 hc        1 D3E      0.060450
     55 H31         9.0400    5.1160    3.2200 ha        1 D3E      0.140000
     56 H30        11.0320    5.7330    4.6260 ha        1 D3E      0.156000
     57 H29        10.6440    6.7360    6.9190 h4        1 D3E      0.037100
     58 H27         6.5200    6.5370    6.4720 h4        1 D3E      0.015100
     59 H101        2.4250    4.5030    2.0200 hn        1 D3E      0.451800
@<TRIPOS>BOND
     1    1    2 1   
     2    2    3 1   
     3    2    4 1   
     4    2    5 1   
     5    5    6 1   
     6    5    7 1   
     7    5    8 1   
     8    6   32 1   
     9    6   33 1   
    10    6   34 1   
    11    7   35 1   
    12    8    9 ar  
    13    8   13 ar  
    14    9   10 ar  
    15    9   36 1   
    16   10   11 ar  
    17   10   37 1   
    18   11   12 ar  
    19   11   14 1   
    20   12   13 ar  
    21   12   38 1   
    22   13   39 1   
    23   14   15 2   
    24   14   16 1   
    25   16   17 1   
    26   16   20 1   
    27   16   59 1   
    28   17   18 1   
    29   17   19 1   
    30   17   40 1   
    31   18   19 1   
    32   18   41 1   
    33   18   42 1   
    34   19   43 1   
    35   19   44 1   
    36   20   21 1   
    37   20   25 1   
    38   20   45 1   
    39   21   22 1   
    40   21   46 1   
    41   21   47 1   
    42   22   23 1   
    43   22   48 1   
    44   22   49 1   
    45   23   24 1   
    46   23   26 1   
    47   23   50 1   
    48   24   25 1   
    49   24   51 1   
    50   24   52 1   
    51   25   53 1   
    52   25   54 1   
    53   26   27 ar  
    54   26   31 ar  
    55   27   28 ar  
    56   27   55 1   
    57   28   29 ar  
    58   28   56 1   
    59   29   30 ar  
    60   29   57 1   
    61   30   31 ar  
    62   31   58 1   
@<TRIPOS>SUBSTRUCTURE
     1 D3E         1 TEMP              0 ****  ****    0 ROOT
