@<TRIPOS>MOLECULE
D3E
   59    62     1     0     0
SMALL
bcc


@<TRIPOS>ATOM
      1 F25        -2.9690   -0.0530    0.7710 f         1 D3E     -0.226967
      2 C21        -1.8100   -0.3560    0.1080 c3        1 D3E      0.594900
      3 F23        -2.1310   -1.3890   -0.7340 f         1 D3E     -0.226967
      4 F24        -1.5760    0.7130   -0.7130 f         1 D3E     -0.226967
      5 C2         -0.5890   -0.7380    1.0600 c3        1 D3E      0.175100
      6 C1         -1.0590   -1.7910    2.0560 c3        1 D3E     -0.137100
      7 O22         0.4360   -1.2430    0.2230 oh        1 D3E     -0.579800
      8 C3         -0.0580    0.4880    1.7550 ca        1 D3E     -0.026300
      9 C8         -0.8880    1.2180    2.6160 ca        1 D3E     -0.095000
     10 C7         -0.4050    2.3530    3.2640 ca        1 D3E     -0.081500
     11 C6          0.9150    2.7720    3.0420 ca        1 D3E     -0.192600
     12 C5          1.7550    2.0340    2.1980 ca        1 D3E     -0.081500
     13 C4          1.2690    0.8970    1.5590 ca        1 D3E     -0.095000
     14 C9          1.3810    3.9720    3.7510 c         1 D3E      0.574700
     15 O11         1.1710    4.2760    4.9170 o         1 D3E     -0.423100
     16 N10         2.1860    4.9560    2.9090 n4        1 D3E     -0.561200
     17 C12         1.4040    6.1610    2.5730 cx        1 D3E      0.005500
     18 C14         0.6980    6.9980    3.6200 cx        1 D3E     -0.098400
     19 C13        -0.1100    6.1970    2.6470 cx        1 D3E     -0.098400
     20 C15         3.4860    5.3060    3.6120 c3        1 D3E      0.130500
     21 C20         4.3160    6.3280    2.8290 c3        1 D3E     -0.096900
     22 C19         5.5710    6.6720    3.6070 c3        1 D3E     -0.076400
     23 C18         6.4090    5.4350    3.9030 c3        1 D3E     -0.011400
     24 C17         5.5700    4.3970    4.6390 c3        1 D3E     -0.076400
     25 C16         4.3240    4.0430    3.8530 c3        1 D3E     -0.096900
     26 C26         7.6240    5.7920    4.6900 ca        1 D3E     -0.219600
     27 C31         8.9070    5.5660    4.1740 ca        1 D3E     -0.082000
     28 C30        10.0190    5.9140    4.9410 ca        1 D3E     -0.236300
     29 C29         9.8100    6.4830    6.2110 ca        1 D3E      0.408200
     30 N28         8.5860    6.7080    6.7260 nb        1 D3E     -0.651000
     31 C27         7.5240    6.3670    5.9750 ca        1 D3E      0.399200
     32 H1         -1.4940   -2.6620    1.5060 hc        1 D3E      0.074367
     33 H1A        -0.1940   -2.1430    2.6660 hc        1 D3E      0.074367
     34 H1B        -1.8420   -1.3680    2.7300 hc        1 D3E      0.074367
     35 HO22        0.1280   -2.0900   -0.1350 ho        1 D3E      0.442000
     36 H8         -1.9340    0.9030    2.7760 ha        1 D3E      0.181000
     37 H7         -1.0580    2.9170    3.9500 ha        1 D3E      0.151000
     38 H5          2.8100    2.3180    2.0550 ha        1 D3E      0.151000
     39 H4          1.9300    0.3120    0.8930 ha        1 D3E      0.181000
     40 H12         1.8950    6.6900    1.7200 hx        1 D3E      0.135700
     41 H14         0.7560    8.0990    3.5160 hc        1 D3E      0.109450
     42 H14A        0.7210    6.6820    4.6820 hc        1 D3E      0.109450
     43 H13        -0.6450    6.7050    1.8210 hc        1 D3E      0.109450
     44 H13A       -0.6680    5.3150    3.0140 hc        1 D3E      0.109450
     45 H15         3.1840    5.7540    4.6070 hx        1 D3E      0.118700
     46 H20         3.7290    7.2710    2.6680 hc        1 D3E      0.060450
     47 H20A        4.5930    5.9110    1.8250 hc        1 D3E      0.060450
     48 H19         5.2950    7.1800    4.5680 hc        1 D3E      0.071450
     49 H19A        6.1790    7.4000    3.0050 hc        1 D3E      0.071450
     50 H18         6.7330    4.9870    2.9180 hc        1 D3E      0.058700
     51 H17         5.2840    4.7870    5.6520 hc        1 D3E      0.071450
     52 H17A        6.1760    3.4670    4.7960 hc        1 D3E      0.071450
     53 H16         4.6180    3.5840    2.8720 hc        1 D3E      0.060450
     54 H16A        3.7300    3.2850    4.4310 hc        1 D3E      0.060450
     55 H31         9.0390    5.1200    3.1770 ha        1 D3E      0.140000
     56 H30        11.0390    5.7510    4.5660 ha        1 D3E      0.156000
     57 H29        10.6630    6.7740    6.8520 h4        1 D3E      0.037100
     58 H27         6.5370    6.5670    6.4300 h4        1 D3E      0.015100
     59 H101        2.4180    4.4920    2.0200 hn        1 D3E      0.451800
@<TRIPOS>BOND
     1    1    2 1   
     2    2    3 1   
     3    2    4 1   
     4    2    5 1   
     5    5    6 1   
     6    5    7 1   
     7    5    8 1   
     8    6   32 1   
     9    6   33 1   
    10    6   34 1   
    11    7   35 1   
    12    8    9 ar  
    13    8   13 ar  
    14    9   10 ar  
    15    9   36 1   
    16   10   11 ar  
    17   10   37 1   
    18   11   12 ar  
    19   11   14 1   
    20   12   13 ar  
    21   12   38 1   
    22   13   39 1   
    23   14   15 2   
    24   14   16 1   
    25   16   17 1   
    26   16   20 1   
    27   16   59 1   
    28   17   18 1   
    29   17   19 1   
    30   17   40 1   
    31   18   19 1   
    32   18   41 1   
    33   18   42 1   
    34   19   43 1   
    35   19   44 1   
    36   20   21 1   
    37   20   25 1   
    38   20   45 1   
    39   21   22 1   
    40   21   46 1   
    41   21   47 1   
    42   22   23 1   
    43   22   48 1   
    44   22   49 1   
    45   23   24 1   
    46   23   26 1   
    47   23   50 1   
    48   24   25 1   
    49   24   51 1   
    50   24   52 1   
    51   25   53 1   
    52   25   54 1   
    53   26   27 ar  
    54   26   31 ar  
    55   27   28 ar  
    56   27   55 1   
    57   28   29 ar  
    58   28   56 1   
    59   29   30 ar  
    60   29   57 1   
    61   30   31 ar  
    62   31   58 1   
@<TRIPOS>SUBSTRUCTURE
     1 D3E         1 TEMP              0 ****  ****    0 ROOT
