@<TRIPOS>MOLECULE
D3F
   35    36     1     0     0
SMALL
bcc


@<TRIPOS>ATOM
      1 C1          0.0140   -0.0700   -0.0880 ca        1 D3F      0.088400
      2 C2          1.2530   -0.7170   -0.1310 ca        1 D3F     -0.152000
      3 C3          1.9940   -0.8760    1.0400 ca        1 D3F      0.132400
      4 C4          1.5270   -0.3990    2.2770 ca        1 D3F     -0.397500
      5 C5          0.2800    0.2510    2.2790 ca        1 D3F      0.013000
      6 C6         -0.4890    0.4230    1.1270 ca        1 D3F     -0.087300
      7 C7         -1.7970    1.1140    1.2000 c3        1 D3F     -0.059800
      8 S1          2.2450   -0.6270    3.7730 sy        1 D3F      1.413600
      9 O1          2.5540   -1.9660    3.9590 o         1 D3F     -0.613800
     10 O2          1.5290    0.0250    4.7760 o         1 D3F     -0.613800
     11 C8          3.7680    0.2880    3.6050 ca        1 D3F     -0.162500
     12 C9          5.0270   -0.3320    3.4860 ca        1 D3F     -0.080200
     13 C10         6.1990    0.3800    3.1790 ca        1 D3F     -0.042000
     14 C11         6.1510    1.7670    3.0950 ca        1 D3F     -0.128300
     15 C12         4.9590    2.4400    3.3470 ca        1 D3F     -0.042000
     16 C13         3.7930    1.6980    3.5990 ca        1 D3F     -0.080200
     17 N1          2.5800    2.5380    3.9070 no        1 D3F      0.313700
     18 O3          2.7100    3.4060    4.7210 o         1 D3F     -0.165750
     19 O4          1.5650    2.3520    3.3010 o         1 D3F     -0.165750
     20 C14         7.4200    2.5590    2.7720 c3        1 D3F      0.691200
     21 F1          8.1530    2.8990    3.8810 f         1 D3F     -0.220633
     22 F2          8.3030    1.8910    1.9620 f         1 D3F     -0.220633
     23 F3          7.1860    3.7490    2.1300 f         1 D3F     -0.220633
     24 N2          5.2540   -1.8040    3.7450 no        1 D3F      0.313700
     25 O5          4.9790   -2.2300    4.8250 o         1 D3F     -0.165750
     26 O6          5.7840   -2.4470    2.8830 o         1 D3F     -0.165750
     27 Cl1         3.4830   -1.6770    0.9170 cl        1 D3F     -0.051400
     28 Cl2        -0.8630    0.1040   -1.5270 cl        1 D3F     -0.055400
     29 H2          1.6410   -1.1040   -1.0880 ha        1 D3F      0.172000
     30 H5         -0.1060    0.6600    3.2370 ha        1 D3F      0.185000
     31 H71        -2.0250    1.4400    2.2450 hc        1 D3F      0.060367
     32 H72        -1.7930    2.0190    0.5410 hc        1 D3F      0.060367
     33 H73        -2.6150    0.4320    0.8540 hc        1 D3F      0.060367
     34 H10         7.1570   -0.1490    3.0060 ha        1 D3F      0.193500
     35 H12         4.9430    3.5470    3.3510 ha        1 D3F      0.193500
@<TRIPOS>BOND
     1    1    2 ar  
     2    1    6 ar  
     3    1   28 1   
     4    2    3 ar  
     5    2   29 1   
     6    3    4 ar  
     7    3   27 1   
     8    4    5 ar  
     9    4    8 1   
    10    5    6 ar  
    11    5   30 1   
    12    6    7 1   
    13    7   31 1   
    14    7   32 1   
    15    7   33 1   
    16    8    9 2   
    17    8   10 2   
    18    8   11 1   
    19   11   12 ar  
    20   11   16 ar  
    21   12   13 ar  
    22   12   24 1   
    23   13   14 ar  
    24   13   34 1   
    25   14   15 ar  
    26   14   20 1   
    27   15   16 ar  
    28   15   35 1   
    29   16   17 1   
    30   17   18 1   
    31   17   19 1   
    32   20   21 1   
    33   20   22 1   
    34   20   23 1   
    35   24   25 1   
    36   24   26 1   
@<TRIPOS>SUBSTRUCTURE
     1 D3F         1 TEMP              0 ****  ****    0 ROOT
