@<TRIPOS>MOLECULE
D3F
   35    36     1     0     0
SMALL
bcc


@<TRIPOS>ATOM
      1 C1         -4.0350    1.0580   -0.8940 ca        1 D3F      0.088400
      2 C2         -3.0310    0.7190   -1.8070 ca        1 D3F     -0.152000
      3 C3         -2.0140   -0.1570   -1.4280 ca        1 D3F      0.132400
      4 C4         -1.9660   -0.7150   -0.1380 ca        1 D3F     -0.397500
      5 C5         -2.9900   -0.3450    0.7540 ca        1 D3F      0.013000
      6 C6         -4.0240    0.5250    0.4050 ca        1 D3F     -0.087300
      7 C7         -5.0730    0.8690    1.3920 c3        1 D3F     -0.059800
      8 S1         -0.8840   -1.8670    0.4140 sy        1 D3F      1.413600
      9 O1         -0.8170   -2.9280   -0.4760 o         1 D3F     -0.613800
     10 O2         -1.1040   -2.1560    1.7600 o         1 D3F     -0.613800
     11 C8          0.6660   -0.9860    0.3640 ca        1 D3F     -0.162500
     12 C9          1.6700   -1.2510   -0.5880 ca        1 D3F     -0.080200
     13 C10         2.8100   -0.4420   -0.7360 ca        1 D3F     -0.042000
     14 C11         3.0260    0.6010    0.1580 ca        1 D3F     -0.128300
     15 C12         2.1360    0.8160    1.2060 ca        1 D3F     -0.042000
     16 C13         0.9790    0.0250    1.2970 ca        1 D3F     -0.080200
     17 N1          0.1220    0.3190    2.5010 no        1 D3F      0.313700
     18 O3          0.6730    0.3790    3.5620 o         1 D3F     -0.165750
     19 O4         -1.0470    0.5340    2.3540 o         1 D3F     -0.165750
     20 C14         4.2680    1.4840    0.0180 c3        1 D3F      0.691200
     21 F1          5.3620    1.0060    0.6940 f         1 D3F     -0.220633
     22 F2          4.6970    1.6400   -1.2750 f         1 D3F     -0.220633
     23 F3          4.0980    2.7620    0.4880 f         1 D3F     -0.220633
     24 N2          1.6570   -2.4640   -1.4900 no        1 D3F      0.313700
     25 O5          1.6480   -3.5410   -0.9780 o         1 D3F     -0.165750
     26 O6          1.7490   -2.2810   -2.6710 o         1 D3F     -0.165750
     27 CL1        -0.8350   -0.5310   -2.5870 cl        1 D3F     -0.051400
     28 CL2        -5.2580    2.1220   -1.3880 cl        1 D3F     -0.055400
     29 H2         -3.0470    1.1400   -2.8270 ha        1 D3F      0.172000
     30 H5         -2.9670   -0.7500    1.7880 ha        1 D3F      0.185000
     31 H71        -5.0860    1.9740    1.5720 hc        1 D3F      0.060367
     32 H72        -6.0800    0.5650    1.0090 hc        1 D3F      0.060367
     33 H73        -4.8940    0.3560    2.3680 hc        1 D3F      0.060367
     34 H10         3.5360   -0.6280   -1.5510 ha        1 D3F      0.193500
     35 H12         2.3510    1.6010    1.9570 ha        1 D3F      0.193500
@<TRIPOS>BOND
     1    1    2 ar  
     2    1    6 ar  
     3    1   28 1   
     4    2    3 ar  
     5    2   29 1   
     6    3    4 ar  
     7    3   27 1   
     8    4    5 ar  
     9    4    8 1   
    10    5    6 ar  
    11    5   30 1   
    12    6    7 1   
    13    7   31 1   
    14    7   32 1   
    15    7   33 1   
    16    8    9 2   
    17    8   10 2   
    18    8   11 1   
    19   11   12 ar  
    20   11   16 ar  
    21   12   13 ar  
    22   12   24 1   
    23   13   14 ar  
    24   13   34 1   
    25   14   15 ar  
    26   14   20 1   
    27   15   16 ar  
    28   15   35 1   
    29   16   17 1   
    30   17   18 1   
    31   17   19 1   
    32   20   21 1   
    33   20   22 1   
    34   20   23 1   
    35   24   25 1   
    36   24   26 1   
@<TRIPOS>SUBSTRUCTURE
     1 D3F         1 TEMP              0 ****  ****    0 ROOT
