@<TRIPOS>MOLECULE
D3F
   35    36     1     0     0
SMALL
bcc


@<TRIPOS>ATOM
      1 C1          0.0030   -0.0690   -0.0750 ca        1 D3F      0.088400
      2 C2          1.2370   -0.7240   -0.1170 ca        1 D3F     -0.152000
      3 C3          1.9800   -0.8800    1.0530 ca        1 D3F      0.132400
      4 C4          1.5200   -0.3910    2.2880 ca        1 D3F     -0.397500
      5 C5          0.2770    0.2680    2.2890 ca        1 D3F      0.013000
      6 C6         -0.4940    0.4370    1.1370 ca        1 D3F     -0.087300
      7 C7         -1.7970    1.1360    1.2090 c3        1 D3F     -0.059800
      8 S1          2.2400   -0.6120    3.7830 sy        1 D3F      1.413600
      9 O1          2.5400   -1.9520    3.9780 o         1 D3F     -0.613800
     10 O2          1.5310    0.0510    4.7840 o         1 D3F     -0.613800
     11 C8          3.7690    0.2910    3.6050 ca        1 D3F     -0.162500
     12 C9          5.0240   -0.3390    3.4870 ca        1 D3F     -0.080200
     13 C10         6.2000    0.3630    3.1720 ca        1 D3F     -0.042000
     14 C11         6.1600    1.7500    3.0790 ca        1 D3F     -0.128300
     15 C12         4.9740    2.4320    3.3290 ca        1 D3F     -0.042000
     16 C13         3.8040    1.7010    3.5890 ca        1 D3F     -0.080200
     17 N1          2.5970    2.5510    3.8940 no        1 D3F      0.313700
     18 O3          2.7350    3.4240    4.7000 o         1 D3F     -0.165750
     19 O4          1.5790    2.3660    3.2920 o         1 D3F     -0.165750
     20 C14         7.4340    2.5310    2.7470 c3        1 D3F      0.691200
     21 F1          8.1710    2.8770    3.8520 f         1 D3F     -0.220633
     22 F2          8.3120    1.8500    1.9420 f         1 D3F     -0.220633
     23 F3          7.2070    3.7160    2.0950 f         1 D3F     -0.220633
     24 N2          5.2410   -1.8110    3.7560 no        1 D3F      0.313700
     25 O5          4.9660   -2.2270    4.8390 o         1 D3F     -0.165750
     26 O6          5.7640   -2.4630    2.8970 o         1 D3F     -0.165750
     27 CL1         3.4640   -1.6910    0.9310 cl        1 D3F     -0.051400
     28 CL2        -0.8770    0.1010   -1.5130 cl        1 D3F     -0.055400
     29 H2          1.6200   -1.1200   -1.0730 ha        1 D3F      0.172000
     30 H5         -0.1040    0.6860    3.2440 ha        1 D3F      0.185000
     31 H71        -1.7890    2.0370    0.5440 hc        1 D3F      0.060367
     32 H72        -2.0200    1.4710    2.2520 hc        1 D3F      0.060367
     33 H73        -2.6200    0.4580    0.8690 hc        1 D3F      0.060367
     34 H10         7.1530   -0.1740    3.0010 ha        1 D3F      0.193500
     35 H12         4.9660    3.5390    3.3250 ha        1 D3F      0.193500
@<TRIPOS>BOND
     1    1    2 ar  
     2    1    6 ar  
     3    1   28 1   
     4    2    3 ar  
     5    2   29 1   
     6    3    4 ar  
     7    3   27 1   
     8    4    5 ar  
     9    4    8 1   
    10    5    6 ar  
    11    5   30 1   
    12    6    7 1   
    13    7   31 1   
    14    7   32 1   
    15    7   33 1   
    16    8    9 2   
    17    8   10 2   
    18    8   11 1   
    19   11   12 ar  
    20   11   16 ar  
    21   12   13 ar  
    22   12   24 1   
    23   13   14 ar  
    24   13   34 1   
    25   14   15 ar  
    26   14   20 1   
    27   15   16 ar  
    28   15   35 1   
    29   16   17 1   
    30   17   18 1   
    31   17   19 1   
    32   20   21 1   
    33   20   22 1   
    34   20   23 1   
    35   24   25 1   
    36   24   26 1   
@<TRIPOS>SUBSTRUCTURE
     1 D3F         1 TEMP              0 ****  ****    0 ROOT
