@<TRIPOS>MOLECULE
D3F
   35    30     1     0     0
SMALL
bcc


@<TRIPOS>ATOM
      1 C1         -3.1080   -0.5580   -2.4420 c1        1 D3F      0.006000
      2 C2         -1.7620   -0.8820   -2.3810 c1        1 D3F     -0.144000
      3 C3         -1.0470   -0.6580   -1.2140 c1        1 D3F      0.088000
      4 C4         -1.6790   -0.1100   -0.1090 c1        1 D3F     -0.792000
      5 C5         -3.0260    0.2140   -0.1710 c1        1 D3F     -0.025000
      6 C6         -3.7400   -0.0100   -1.3370 c1        1 D3F     -0.067000
      7 C7         -5.2060    0.3590   -1.4100 c3        1 D3F     -0.186000
      8 S1         -0.7830    0.1090    1.4080 s4        1 D3F      2.068800
      9 O1         -1.1360   -0.8960    2.3720 o         1 D3F     -0.508400
     10 O2         -1.1940    1.3040    2.0890 o         1 D3F     -0.508400
     11 C8          0.9660    0.1150    1.0940 c1        1 D3F     -0.598000
     12 C9          1.6860   -1.0680    1.1600 c2        1 D3F     -0.044000
     13 C10         3.0540   -1.0590    0.9380 c1        1 D3F     -0.032000
     14 C11         3.7020    0.1320    0.6500 c1        1 D3F     -0.129000
     15 C12         2.9820    1.3150    0.5850 c1        1 D3F     -0.032000
     16 C13         1.6140    1.3070    0.8060 c1        1 D3F     -0.044000
     17 N1          0.8870    2.5250    0.7970 no        1 D3F      0.575000
     18 O3         -0.4070    2.5510    1.2300 o         1 D3F     -0.320500
     19 O4          1.4330    3.5600    0.4430 o         1 D3F     -0.320500
     20 C14         5.1860    0.1330    0.3510 c3        1 D3F      0.471000
     21 F1          5.8740    0.1310    1.5000 f         1 D3F     -0.149000
     22 F2          5.4990   -0.9600   -0.3580 f         1 D3F     -0.149000
     23 F3          5.4990    1.2270   -0.3550 f         1 D3F     -0.149000
     24 N2          1.0340   -2.2750    1.5200 no        1 D3F      0.575000
     25 O5         -0.3290   -2.3310    1.5560 o         1 D3F     -0.320500
     26 O6          1.6940   -3.2620    1.8160 o         1 D3F     -0.320500
     27 CL1         0.6550   -1.0270   -1.1510 cl        1 D3F      0.003000
     28 CL2        -3.9950   -0.7980   -3.9240 cl        1 D3F      0.023000
     29 H2         -1.3170   -1.2680   -3.1590 ha        1 D3F      0.172000
     30 H5         -3.4710    0.6000    0.6070 ha        1 D3F      0.160000
     31 H71        -5.3400    1.0250   -2.1170 hc        1 D3F      0.099667
     32 H72        -5.4910    0.7330   -0.5510 hc        1 D3F      0.099667
     33 H73        -5.7350   -0.4410   -1.6100 hc        1 D3F      0.099667
     34 H10         3.5610   -1.8910    0.9840 ha        1 D3F      0.200000
     35 H12         3.4390    2.1540    0.3820 ha        1 D3F      0.200000
@<TRIPOS>BOND
     1    1    6 1   
     2    1   28 1   
     3    2    3 1   
     4    2   29 1   
     5    3   27 1   
     6    4    5 1   
     7    4    8 1   
     8    5   30 1   
     9    6    7 1   
    10    7   31 1   
    11    7   32 1   
    12    7   33 1   
    13    8    9 1   
    14    8   10 1   
    15   11   12 1   
    16   11   16 1   
    17   12   13 1   
    18   12   24 1   
    19   13   34 1   
    20   14   15 1   
    21   14   20 1   
    22   15   35 1   
    23   16   17 1   
    24   17   18 1   
    25   17   19 1   
    26   20   21 1   
    27   20   22 1   
    28   20   23 1   
    29   24   25 1   
    30   24   26 1   
@<TRIPOS>SUBSTRUCTURE
     1 D3F         1 TEMP              0 ****  ****    0 ROOT
