@<TRIPOS>MOLECULE
D3F
   35    36     1     0     0
SMALL
bcc


@<TRIPOS>ATOM
      1 C1          0.0170   -0.0330   -0.1010 ca        1 D3F      0.088400
      2 C2          1.2560   -0.6790   -0.1520 ca        1 D3F     -0.152000
      3 C3          1.9960   -0.8550    1.0170 ca        1 D3F      0.132400
      4 C4          1.5270   -0.3970    2.2610 ca        1 D3F     -0.397500
      5 C5          0.2800    0.2540    2.2710 ca        1 D3F      0.013000
      6 C6         -0.4870    0.4430    1.1200 ca        1 D3F     -0.087300
      7 C7         -1.7950    1.1330    1.2020 c3        1 D3F     -0.059800
      8 S1          2.2430   -0.6450    3.7540 sy        1 D3F      1.413600
      9 O1          2.5520   -1.9870    3.9210 o         1 D3F     -0.613800
     10 O2          1.5260   -0.0090    4.7660 o         1 D3F     -0.613800
     11 C8          3.7670    0.2710    3.6010 ca        1 D3F     -0.162500
     12 C9          5.0260   -0.3470    3.4740 ca        1 D3F     -0.080200
     13 C10         6.1990    0.3690    3.1780 ca        1 D3F     -0.042000
     14 C11         6.1500    1.7580    3.1150 ca        1 D3F     -0.128300
     15 C12         4.9580    2.4260    3.3760 ca        1 D3F     -0.042000
     16 C13         3.7920    1.6810    3.6160 ca        1 D3F     -0.080200
     17 N1          2.5790    2.5170    3.9350 no        1 D3F      0.313700
     18 O3          2.7080    3.3730    4.7610 o         1 D3F     -0.165750
     19 O4          1.5640    2.3390    3.3250 o         1 D3F     -0.165750
     20 C14         7.4200    2.5540    2.8050 c3        1 D3F      0.691200
     21 F1          8.1530    2.8760    3.9200 f         1 D3F     -0.220633
     22 F2          8.3030    1.8980    1.9850 f         1 D3F     -0.220633
     23 F3          7.1870    3.7530    2.1820 f         1 D3F     -0.220633
     24 N2          5.2520   -1.8230    3.7110 no        1 D3F      0.313700
     25 O5          4.9760   -2.2640    4.7850 o         1 D3F     -0.165750
     26 O6          5.7830   -2.4530    2.8410 o         1 D3F     -0.165750
     27 CL1         3.4850   -1.6540    0.8840 cl        1 D3F     -0.051400
     28 CL2        -0.8590    0.1630   -1.5380 cl        1 D3F     -0.055400
     29 H2          1.6450   -1.0520   -1.1140 ha        1 D3F      0.172000
     30 H5         -0.1070    0.6490    3.2340 ha        1 D3F      0.185000
     31 H71        -2.0240    1.4440    2.2510 hc        1 D3F      0.060367
     32 H72        -1.7910    2.0470    0.5570 hc        1 D3F      0.060367
     33 H73        -2.6130    0.4570    0.8450 hc        1 D3F      0.060367
     34 H10         7.1560   -0.1580    2.9990 ha        1 D3F      0.193500
     35 H12         4.9430    3.5330    3.3960 ha        1 D3F      0.193500
@<TRIPOS>BOND
     1    1    2 ar  
     2    1    6 ar  
     3    1   28 1   
     4    2    3 ar  
     5    2   29 1   
     6    3    4 ar  
     7    3   27 1   
     8    4    5 ar  
     9    4    8 1   
    10    5    6 ar  
    11    5   30 1   
    12    6    7 1   
    13    7   31 1   
    14    7   32 1   
    15    7   33 1   
    16    8    9 2   
    17    8   10 2   
    18    8   11 1   
    19   11   12 ar  
    20   11   16 ar  
    21   12   13 ar  
    22   12   24 1   
    23   13   14 ar  
    24   13   34 1   
    25   14   15 ar  
    26   14   20 1   
    27   15   16 ar  
    28   15   35 1   
    29   16   17 1   
    30   17   18 1   
    31   17   19 1   
    32   20   21 1   
    33   20   22 1   
    34   20   23 1   
    35   24   25 1   
    36   24   26 1   
@<TRIPOS>SUBSTRUCTURE
     1 D3F         1 TEMP              0 ****  ****    0 ROOT
