@<TRIPOS>MOLECULE
D3G
   23    17     1     0     0
SMALL
bcc


@<TRIPOS>ATOM
      1 C_1         2.1690    0.4920    0.8570 c1        1 D3G     -0.015500
      2 C_2         3.5330    0.5180    0.8440 c1        1 D3G     -0.066000
      3 C_3         4.2360   -0.3970    0.0760 c1        1 D3G     -0.066000
      4 N_1         3.5650   -1.3220   -0.6660 n1        1 D3G     -0.461800
      5 C_4         2.2030   -1.3480   -0.6550 c1        1 D3G      0.329300
      6 C_5         1.4980   -0.4350    0.1130 c1        1 D3G     -0.067000
      7 C_6         0.1110   -0.4480    0.1070 c1        1 D3G     -0.011400
      8 C_7        -0.6950   -1.2650    0.8730 cg        1 D3G     -0.179000
      9 C_8        -1.9970   -0.9590    0.5880 cg        1 D3G     -0.179000
     10 C_9        -2.0010    0.0480   -0.3550 c1        1 D3G     -0.011400
     11 O_1        -0.6990    0.3600   -0.6480 os        1 D3G     -0.167200
     12 C10        -3.2280    0.6770   -0.9800 c2        1 D3G      0.295100
     13 N_2        -3.3750    2.0120   -0.4990 nh        1 D3G     -0.486100
     14 H_1         1.6730    1.1360    1.3980 ha        1 D3G      0.093500
     15 H_2         4.0140    1.1800    1.3760 ha        1 D3G      0.097000
     16 H_3         5.2120   -0.3790    0.0670 ha        1 D3G      0.097000
     17 H_4         1.7240   -2.0110   -1.1870 ha        1 D3G      0.105500
     18 H_7        -0.3900   -1.9420    1.5060 DU        1 D3G      0.164000
     19 H_8        -2.7850   -1.3790    0.9820 DU        1 D3G      0.164000
     20 H101       -4.0210    0.1540   -0.7390 h4        1 D3G     -0.018200
     21 H102       -3.1280    0.6900   -1.9540 h4        1 D3G     -0.018200
     22 H_21       -4.0690    2.0460    0.0990 hn        1 D3G      0.200700
     23 H_22       -3.5500    2.5720   -1.2020 hn        1 D3G      0.200700
@<TRIPOS>BOND
     1    1    6 3   
     2    1   14 1   
     3    2    3 3   
     4    2   15 1   
     5    3   16 1   
     6    4    5 3   
     7    5   17 1   
     8    7    8 3   
     9    7   11 1   
    10    8    9 1   
    11    9   10 3   
    12   10   11 1   
    13   12   13 2   
    14   12   20 1   
    15   12   21 1   
    16   13   22 1   
    17   13   23 1   
@<TRIPOS>SUBSTRUCTURE
     1 D3G         1 TEMP              0 ****  ****    0 ROOT
