@<TRIPOS>MOLECULE
D3G
   24    25     1     0     0
SMALL
bcc


@<TRIPOS>ATOM
      1 C_1        -0.1940   -0.5450    0.1320 ca        1 D3G     -0.053000
      2 C_2         1.1880   -0.4720   -0.0240 ca        1 D3G     -0.245300
      3 C_3         1.9460    0.1820    0.9690 ca        1 D3G      0.439200
      4 N_1         1.4010    0.7430    2.0670 nb        1 D3G     -0.649000
      5 C_4         0.0680    0.6680    2.2120 ca        1 D3G      0.446200
      6 C_5        -0.7820    0.0340    1.2710 ca        1 D3G     -0.307800
      7 C_6        -2.1980   -0.0130    1.5090 cc        1 D3G      0.416200
      8 C_7        -2.9780    0.2700    2.6290 cd        1 D3G     -0.275300
      9 C_8        -4.3460    0.0480    2.2580 cd        1 D3G     -0.115300
     10 C_9        -4.3400   -0.3620    0.9340 cc        1 D3G      0.067000
     11 O_1        -3.0180   -0.4080    0.4460 os        1 D3G     -0.379800
     12 C10        -5.3680   -0.8160   -0.0020 c3        1 D3G      0.118500
     13 N_2        -5.5240    0.1630   -1.1370 nz        1 D3G     -0.849600
     14 H_1        -0.8190   -1.0530   -0.6160 ha        1 D3G      0.144000
     15 H_2         1.6850   -0.9160   -0.8980 ha        1 D3G      0.163000
     16 H_3         3.0470    0.2610    0.8850 h4        1 D3G      0.046100
     17 H_4        -0.3460    1.1370    3.1240 h4        1 D3G      0.035100
     18 H_7        -2.6270    0.5890    3.6100 ha        1 D3G      0.193000
     19 H_8        -5.2110    0.1720    2.9100 ha        1 D3G      0.182000
     20 H101       -5.0850   -1.8100   -0.4630 hx        1 D3G      0.122700
     21 H102       -6.3630   -0.9100    0.5220 hx        1 D3G      0.122700
     22 H_21       -6.2110   -0.1820   -1.8130 hn        1 D3G      0.460467
     23 H_22       -4.6180    0.2870   -1.6040 hn        1 D3G      0.460467
     24 H_23       -5.8280    1.0730   -0.7780 hn        1 D3G      0.460467
@<TRIPOS>BOND
     1    1    2 ar  
     2    1    6 ar  
     3    1   14 1   
     4    2    3 ar  
     5    2   15 1   
     6    3    4 ar  
     7    3   16 1   
     8    4    5 ar  
     9    5    6 ar  
    10    5   17 1   
    11    6    7 1   
    12    7    8 2   
    13    7   11 1   
    14    8    9 1   
    15    8   18 1   
    16    9   10 2   
    17    9   19 1   
    18   10   11 1   
    19   10   12 1   
    20   12   13 1   
    21   12   20 1   
    22   12   21 1   
    23   13   22 1   
    24   13   23 1   
    25   13   24 1   
@<TRIPOS>SUBSTRUCTURE
     1 D3G         1 TEMP              0 ****  ****    0 ROOT
