@<TRIPOS>MOLECULE
D3G
   24    25     1     0     0
SMALL
bcc


@<TRIPOS>ATOM
      1 C_1        -0.1920   -0.5150    0.1170 ca        1 D3G     -0.053000
      2 C_2         1.1870   -0.4220   -0.0520 ca        1 D3G     -0.245300
      3 C_3         1.9430    0.2510    0.9290 ca        1 D3G      0.439200
      4 N_1         1.3990    0.8120    2.0270 nb        1 D3G     -0.649000
      5 C_4         0.0680    0.7170    2.1850 ca        1 D3G      0.446200
      6 C_5        -0.7800    0.0630    1.2560 ca        1 D3G     -0.307800
      7 C_6        -2.1920   -0.0040    1.5070 cc        1 D3G      0.416200
      8 C_7        -2.9680    0.2780    2.6310 cd        1 D3G     -0.275300
      9 C_8        -4.3350    0.0310    2.2740 cd        1 D3G     -0.115300
     10 C_9        -4.3340   -0.3920    0.9530 cc        1 D3G      0.067000
     11 O_1        -3.0150   -0.4210    0.4550 os        1 D3G     -0.379800
     12 C10        -5.3620   -0.8700    0.0310 c3        1 D3G      0.118500
     13 N_2        -5.5440    0.0950   -1.1120 n4        1 D3G     -0.849600
     14 H_1        -0.8160   -1.0390   -0.6220 ha        1 D3G      0.144000
     15 H_2         1.6830   -0.8650   -0.9270 ha        1 D3G      0.163000
     16 H_3         3.0420    0.3470    0.8360 h4        1 D3G      0.046100
     17 H_4        -0.3450    1.1870    3.0970 h4        1 D3G      0.035100
     18 H_7        -2.6130    0.6110    3.6060 ha        1 D3G      0.193000
     19 H_8        -5.1960    0.1470    2.9330 ha        1 D3G      0.182000
     20 H101       -5.0670   -1.8640   -0.4230 hx        1 D3G      0.122700
     21 H102       -6.3510   -0.9750    0.5650 hx        1 D3G      0.122700
     22 H_21       -6.2300   -0.2670   -1.7780 hn        1 D3G      0.460467
     23 H_22       -4.6440    0.2290   -1.5870 hn        1 D3G      0.460467
     24 H_23       -5.8590    1.0040   -0.7590 hn        1 D3G      0.460467
@<TRIPOS>BOND
     1    1    2 ar  
     2    1    6 ar  
     3    1   14 1   
     4    2    3 ar  
     5    2   15 1   
     6    3    4 ar  
     7    3   16 1   
     8    4    5 ar  
     9    5    6 ar  
    10    5   17 1   
    11    6    7 1   
    12    7    8 2   
    13    7   11 1   
    14    8    9 1   
    15    8   18 1   
    16    9   10 2   
    17    9   19 1   
    18   10   11 1   
    19   10   12 1   
    20   12   13 1   
    21   12   20 1   
    22   12   21 1   
    23   13   22 1   
    24   13   23 1   
    25   13   24 1   
@<TRIPOS>SUBSTRUCTURE
     1 D3G         1 TEMP              0 ****  ****    0 ROOT
