@<TRIPOS>MOLECULE
D3G
   23    24     1     0     0
SMALL
bcc


@<TRIPOS>ATOM
      1 C_1         1.4460   -1.2420    0.1580 ca        1 D3G     -0.073000
      2 C_2         2.7790   -1.6490    0.1130 ca        1 D3G     -0.245300
      3 C_3         3.7710   -0.6820   -0.1320 ca        1 D3G      0.398200
      4 N_1         3.5010    0.6240   -0.3270 nb        1 D3G     -0.662000
      5 C_4         2.2140    1.0070   -0.2810 ca        1 D3G      0.411200
      6 C_5         1.1410    0.1140   -0.0420 ca        1 D3G     -0.239800
      7 C_6        -0.2100    0.6050   -0.0070 cc        1 D3G      0.303200
      8 C_7        -0.7630    1.8710   -0.1240 cd        1 D3G     -0.237300
      9 C_8        -2.1930    1.7160   -0.0090 cd        1 D3G     -0.251300
     10 C_9        -2.4360    0.3680    0.1750 cc        1 D3G      0.208000
     11 O_1        -1.2310   -0.3430    0.1820 os        1 D3G     -0.368800
     12 C10        -3.6750   -0.4280    0.3870 c3        1 D3G      0.124500
     13 N_2        -3.8120   -1.6410   -0.3700 n3        1 D3G     -0.899800
     14 H_1         0.6390   -1.9650    0.3490 ha        1 D3G      0.151000
     15 H_2         3.0530   -2.7010    0.2650 ha        1 D3G      0.147000
     16 H_3         4.8380   -0.9630   -0.1760 h4        1 D3G      0.025100
     17 H_4         2.0230    2.0830   -0.4450 h4        1 D3G      0.026100
     18 H_7        -0.2360    2.8090   -0.2740 ha        1 D3G      0.164000
     19 H_8        -2.9240    2.5180   -0.0600 ha        1 D3G      0.164000
     20 H101       -4.5510    0.2430    0.1480 h1        1 D3G      0.071700
     21 H102       -3.7300   -0.6960    1.4840 h1        1 D3G      0.071700
     22 H_21       -3.8120   -1.4570   -1.3550 hn        1 D3G      0.355800
     23 H_22       -3.0710   -2.2820   -0.1600 hn        1 D3G      0.355800
@<TRIPOS>BOND
     1    1    2 ar  
     2    1    6 ar  
     3    1   14 1   
     4    2    3 ar  
     5    2   15 1   
     6    3    4 ar  
     7    3   16 1   
     8    4    5 ar  
     9    5    6 ar  
    10    5   17 1   
    11    6    7 1   
    12    7    8 2   
    13    7   11 1   
    14    8    9 1   
    15    8   18 1   
    16    9   10 2   
    17    9   19 1   
    18   10   11 1   
    19   10   12 1   
    20   12   13 1   
    21   12   20 1   
    22   12   21 1   
    23   13   22 1   
    24   13   23 1   
@<TRIPOS>SUBSTRUCTURE
     1 D3G         1 TEMP              0 ****  ****    0 ROOT
