@<TRIPOS>MOLECULE
D3M
   18    18     1     0     0
SMALL
bcc


@<TRIPOS>ATOM
      1 Cl1        -0.2730   -0.1190    0.3870 cl        1 D3M     -0.057000
      2 Cl2         5.8080    0.2520    1.6330 cl        1 D3M     -0.024000
      3 C1          3.7680   -0.2700   -0.0240 c2        1 D3M     -0.203000
      4 O1          5.2210   -1.8100   -1.1360 o         1 D3M     -0.541000
      5 C2          4.1610    0.1260    1.2150 c2        1 D3M     -0.030000
      6 O2          5.2300    0.3230   -1.8200 o         1 D3M     -0.541000
      7 C3          3.2070    0.4780    2.2990 c3        1 D3M     -0.166000
      8 O3          1.8210   -0.7340   -1.4950 os        1 D3M     -0.190000
      9 C4          1.7930    0.3770    1.9620 c1        1 D3M     -0.170000
     10 C5          1.4140   -0.0280    0.6970 c2        1 D3M     -0.234000
     11 C6          2.3480   -0.3550   -0.3100 c2        1 D3M      0.270000
     12 C8          2.6580   -1.0930   -2.5990 c3        1 D3M     -0.102000
     13 H3          3.3950    1.5380    2.6400 hc        1 D3M      0.143000
     14 H4          3.3870   -0.1870    3.1940 hc        1 D3M      0.143000
     15 H8          3.2860   -1.9810   -2.3410 h1        1 D3M      0.113000
     16 H8A         3.2940   -0.2260   -2.9050 h1        1 D3M      0.113000
     17 H8B         1.9070   -1.3440   -3.3920 h1        1 D3M      0.113000
     18 C7          4.8300   -0.6140   -1.0780 c2        1 D3M      0.364000
@<TRIPOS>BOND
     1    1   10 1   
     2    2    5 1   
     3    3    5 1   
     4    3   11 1   
     5    3   18 1   
     6    4   18 1   
     7    5    7 1   
     8    6   18 1   
     9    7    9 1   
    10    7   13 1   
    11    7   14 1   
    12    8   11 1   
    13    8   12 1   
    14    9   10 1   
    15   10   11 1   
    16   12   15 1   
    17   12   16 1   
    18   12   17 1   
@<TRIPOS>SUBSTRUCTURE
     1 D3M         1 TEMP              0 ****  ****    0 ROOT
