@<TRIPOS>MOLECULE
D3M
   18    18     1     0     0
SMALL
bcc


@<TRIPOS>ATOM
      1 CL1        -3.3790    0.7410   -0.0830 cl        1 D3M     -0.130400
      2 CL2         2.7840    1.2980    0.1480 cl        1 D3M     -0.104400
      3 C1          0.5410   -0.1990   -0.0430 ca        1 D3M     -0.102600
      4 O1          1.6450   -2.0500    0.9830 o         1 D3M     -0.806800
      5 C2          1.0940    1.0820    0.0690 ca        1 D3M      0.042400
      6 O2          1.9280   -1.7520   -1.2180 o         1 D3M     -0.806800
      7 C3          0.2910    2.2280    0.1200 ca        1 D3M     -0.151000
      8 O3         -1.4800   -1.5320   -0.3200 os        1 D3M     -0.335900
      9 C4         -1.0920    2.1050    0.0660 ca        1 D3M     -0.147000
     10 C5         -1.6730    0.8380   -0.0340 ca        1 D3M     -0.006600
     11 C6         -0.8620   -0.3100   -0.0970 ca        1 D3M      0.125100
     12 C8         -1.4610   -2.4090    0.8090 c3        1 D3M      0.100700
     13 H3          0.7490    3.2240    0.2040 ha        1 D3M      0.127000
     14 H4         -1.7250    3.0030    0.1040 ha        1 D3M      0.126000
     15 H8         -1.8420   -3.3750    0.3930 h1        1 D3M      0.048033
     16 H8A        -0.4230   -2.5260    1.2120 h1        1 D3M      0.048033
     17 H8B        -2.1550   -2.0200    1.5940 h1        1 D3M      0.048033
     18 C7          1.4470   -1.4360   -0.1020 c         1 D3M      0.926200
@<TRIPOS>BOND
     1    1   10 1   
     2    2    5 1   
     3    3    5 ar  
     4    3   11 ar  
     5    3   18 1   
     6    4   18 1   
     7    5    7 ar  
     8    6   18 1   
     9    7    9 ar  
    10    7   13 1   
    11    8   11 1   
    12    8   12 1   
    13    9   10 ar  
    14    9   14 1   
    15   10   11 ar  
    16   12   15 1   
    17   12   16 1   
    18   12   17 1   
@<TRIPOS>SUBSTRUCTURE
     1 D3M         1 TEMP              0 ****  ****    0 ROOT
