@<TRIPOS>MOLECULE
D3M
   18    18     1     0     0
SMALL
bcc


@<TRIPOS>ATOM
      1 CL1        -0.2620   -0.0480    0.4240 cl        1 D3M     -0.057000
      2 CL2         5.8390    0.2920    1.5720 cl        1 D3M     -0.024000
      3 C1          3.7700   -0.2720   -0.0340 c2        1 D3M     -0.203000
      4 O1          5.1870   -1.8780   -1.0970 o         1 D3M     -0.541000
      5 C2          4.1860    0.1710    1.1820 c2        1 D3M     -0.030000
      6 O2          5.2160    0.2230   -1.8730 o         1 D3M     -0.541000
      7 C3          3.2520    0.5820    2.2620 c3        1 D3M     -0.166000
      8 O3          1.7970   -0.7710   -1.4580 os        1 D3M     -0.190000
      9 C4          1.8320    0.4860    1.9480 c1        1 D3M     -0.170000
     10 C5          1.4300    0.0330    0.7080 c2        1 D3M     -0.234000
     11 C6          2.3460   -0.3500   -0.2970 c2        1 D3M      0.270000
     12 C8          2.6140   -1.1880   -2.5570 c3        1 D3M     -0.102000
     13 H3          3.4580    1.6530    2.5550 hc        1 D3M      0.143000
     14 H4          3.4350   -0.0460    3.1820 hc        1 D3M      0.143000
     15 H8          3.2340   -2.0720   -2.2690 h1        1 D3M      0.113000
     16 H8A         3.2580   -0.3430   -2.9080 h1        1 D3M      0.113000
     17 H8B         1.8490   -1.4620   -3.3290 h1        1 D3M      0.113000
     18 C7          4.8130   -0.6750   -1.0860 c2        1 D3M      0.364000
@<TRIPOS>BOND
     1    1   10 1   
     2    2    5 1   
     3    3    5 1   
     4    3   11 1   
     5    3   18 1   
     6    4   18 1   
     7    5    7 1   
     8    6   18 1   
     9    7    9 1   
    10    7   13 1   
    11    7   14 1   
    12    8   11 1   
    13    8   12 1   
    14    9   10 1   
    15   10   11 1   
    16   12   15 1   
    17   12   16 1   
    18   12   17 1   
@<TRIPOS>SUBSTRUCTURE
     1 D3M         1 TEMP              0 ****  ****    0 ROOT
