@<TRIPOS>MOLECULE
D3N
   41    39     1     0     0
SMALL
bcc


@<TRIPOS>ATOM
      1 O1P        -1.5320   -3.2080   -2.5260 o         1 D3N     -1.045333
      2 P          -2.8400   -2.4500   -2.6360 p3        1 D3N      2.536000
      3 O2P        -3.6450   -2.9750   -3.8850 o         1 D3N     -1.045333
      4 O5'        -2.5480   -0.9220   -2.8030 o         1 D3N     -0.751000
      5 C5'        -1.7520   -0.2690   -1.8030 c3        1 D3N      0.029000
      6 C4'        -1.6200    1.2020   -2.1450 c3        1 D3N     -0.018000
      7 O4'        -1.0250    2.0250   -0.8700 os        1 D3N     -0.288000
      8 C3'        -0.7810    1.3500   -3.0910 c3        1 D3N      0.020000
      9 O3'        -1.1400    2.5230   -3.9230 oh        1 D3N     -0.356000
     10 C2'         0.6190    1.5940   -2.3610 c3        1 D3N     -0.179000
     11 C1'         0.2770    1.8490   -0.8940 c3        1 D3N      0.167000
     12 N1          0.6480    0.7110   -0.0930 n         1 D3N     -0.302000
     13 C2          1.2670   -0.4020   -0.7020 c2        1 D3N      0.355000
     14 O2          1.3160   -0.4830   -1.9250 o         1 D3N     -0.425000
     15 N3          1.7880   -1.4710    0.1090 n         1 D3N     -0.357000
     16 C4          1.6760   -1.4080    1.5420 c2        1 D3N      0.152000
     17 C5          1.0880   -0.2540    2.1650 c1        1 D3N     -0.177000
     18 C6          0.5400    0.7810    1.3660 c1        1 D3N      0.158000
     19 C7         -0.0310    1.9150    1.9760 c1        1 D3N     -0.285000
     20 C8         -0.0520    2.0210    3.3570 c1        1 D3N     -0.155500
     21 C9          0.4970    0.9960    4.1500 c1        1 D3N     -0.155500
     22 C10         1.0720   -0.1450    3.5350 c1        1 D3N      0.070000
     23 C11         1.6240   -1.2040    4.3510 c2        1 D3N     -0.302000
     24 C12         2.1840   -2.3310    3.7490 c1        1 D3N     -0.052000
     25 C13         2.2120   -2.4380    2.3360 c1        1 D3N     -0.286000
     26 H3         -0.8490   -0.6840   -1.7750 h1        1 D3N      0.083000
     27 H4         -2.1780   -0.3650   -0.9370 h1        1 D3N      0.083000
     28 H5         -2.5100    1.5760   -2.4120 h1        1 D3N      0.086000
     29 H6         -0.7430    0.5530   -3.6310 h1        1 D3N      0.118000
     30 H7         -0.9930    2.3330   -4.7840 ho        1 D3N      0.231000
     31 H8          1.1570    0.8370   -2.4390 hc        1 D3N      0.103500
     32 H9          1.0500    2.3370   -2.7260 hc        1 D3N      0.103500
     33 H10         0.7500    2.6810   -0.5660 h2        1 D3N      0.082000
     34 H11         2.2030   -2.2130   -0.3000 hn        1 D3N      0.221000
     35 H12        -0.4090    2.6180    1.4320 ha        1 D3N      0.136000
     36 H13        -0.4540    2.7900    3.7750 ha        1 D3N      0.097000
     37 H14         0.3910    1.0220    5.1210 ha        1 D3N      0.097000
     38 H15         1.5200   -1.3890    5.2630 ha        1 D3N      0.096000
     39 H16         2.3480   -3.0950    4.3420 ha        1 D3N      0.082000
     40 H17         2.5130   -3.3430    2.0590 ha        1 D3N      0.116000
     41 OP3        -3.6370   -2.6630   -1.4040 o         1 D3N     -1.045333
@<TRIPOS>BOND
     1    1    2 1   
     2    2    3 1   
     3    2   41 1   
     4    4    5 1   
     5    5    6 1   
     6    5   26 1   
     7    5   27 1   
     8    6    7 1   
     9    6    8 1   
    10    6   28 1   
    11    7   11 1   
    12    8    9 1   
    13    8   10 1   
    14    8   29 1   
    15    9   30 1   
    16   10   11 1   
    17   10   31 1   
    18   10   32 1   
    19   11   12 1   
    20   11   33 1   
    21   12   13 1   
    22   12   18 1   
    23   13   14 1   
    24   13   15 1   
    25   15   16 1   
    26   15   34 1   
    27   16   17 1   
    28   16   25 1   
    29   17   22 1   
    30   18   19 1   
    31   19   35 1   
    32   20   21 1   
    33   20   36 1   
    34   21   37 1   
    35   22   23 1   
    36   23   24 1   
    37   23   38 1   
    38   24   39 1   
    39   25   40 1   
@<TRIPOS>SUBSTRUCTURE
     1 D3N         1 TEMP              0 ****  ****    0 ROOT
