@<TRIPOS>MOLECULE
D3N
   41    44     1     0     0
SMALL
bcc


@<TRIPOS>ATOM
      1 O1P        -4.4570    0.7920   -0.7970 o         1 D3N     -0.932167
      2 P          -4.6880   -0.4580    0.0290 p5        1 D3N      1.333900
      3 O2P        -4.2940   -1.7360   -0.6520 o         1 D3N     -0.932167
      4 O5'        -3.3860   -0.2460    1.1720 os        1 D3N     -0.560200
      5 C5'        -2.1480   -0.1900    0.5930 c3        1 D3N      0.231400
      6 C4'        -1.6480    1.2730    0.5340 c3        1 D3N      0.063100
      7 O4'        -0.2420    1.3310    0.8970 os        1 D3N     -0.446600
      8 C3'        -1.7990    1.9400   -0.8460 c3        1 D3N      0.165100
      9 O3'        -2.7620    2.9680   -0.8180 oh        1 D3N     -0.680800
     10 C2'        -0.4290    2.5770   -1.1380 c3        1 D3N     -0.124400
     11 C1'         0.5320    1.9600   -0.1100 c3        1 D3N      0.314500
     12 N1          1.5990    1.0400   -0.5830 n         1 D3N     -0.354000
     13 C2          1.5110    0.3430   -1.8070 c         1 D3N      0.814500
     14 O2          0.6580    0.5450   -2.6950 o         1 D3N     -0.617500
     15 N3          2.5190   -0.5950   -2.1520 n         1 D3N     -0.474100
     16 C4          3.5530   -0.9330   -1.2960 ca        1 D3N      0.130600
     17 C5          3.5900   -0.2970   -0.0050 ca        1 D3N     -0.111000
     18 C6          2.5480    0.6250    0.3720 ca        1 D3N      0.129600
     19 C7          2.5580    1.1140    1.6850 ca        1 D3N     -0.195000
     20 C8          3.6020    0.7860    2.5640 ca        1 D3N     -0.073000
     21 C9          4.6340   -0.0430    2.1860 ca        1 D3N     -0.201000
     22 C10         4.6320   -0.6210    0.8940 ca        1 D3N      0.032000
     23 C11         5.6420   -1.5380    0.4870 ca        1 D3N     -0.194000
     24 C12         5.5900   -2.1300   -0.7500 ca        1 D3N     -0.077000
     25 C13         4.5480   -1.8440   -1.6530 ca        1 D3N     -0.254000
     26 H3         -1.4070   -0.7650    1.2240 h1        1 D3N      0.001200
     27 H4         -2.1650   -0.6310   -0.4440 h1        1 D3N      0.001200
     28 H5         -2.1770    1.8770    1.3210 h1        1 D3N      0.075700
     29 H6         -2.0760    1.1780   -1.6260 h1        1 D3N      0.099700
     30 H7         -3.6350    2.5080   -0.7880 ho        1 D3N      0.506000
     31 H8         -0.1330    2.4360   -2.2000 hc        1 D3N      0.061700
     32 H9         -0.4790    3.6780   -0.9390 hc        1 D3N      0.061700
     33 H10         1.1210    2.7870    0.3980 h2        1 D3N      0.039700
     34 H11         2.3640   -1.1270   -2.9780 hn        1 D3N      0.338500
     35 H12         1.7250    1.7240    2.0710 ha        1 D3N      0.171000
     36 H13         3.5750    1.2030    3.5830 ha        1 D3N      0.120000
     37 H14         5.4490   -0.2880    2.8780 ha        1 D3N      0.117000
     38 H15         6.4510   -1.7700    1.1930 ha        1 D3N      0.118000
     39 H16         6.3650   -2.8480   -1.0560 ha        1 D3N      0.111000
     40 H17         4.5270   -2.3500   -2.6270 ha        1 D3N      0.125000
     41 OP3        -5.9080   -0.4710    0.8970 o         1 D3N     -0.932167
@<TRIPOS>BOND
     1    1    2 1   
     2    2    3 1   
     3    2    4 1   
     4    2   41 1   
     5    4    5 1   
     6    5    6 1   
     7    5   26 1   
     8    5   27 1   
     9    6    7 1   
    10    6    8 1   
    11    6   28 1   
    12    7   11 1   
    13    8    9 1   
    14    8   10 1   
    15    8   29 1   
    16    9   30 1   
    17   10   11 1   
    18   10   31 1   
    19   10   32 1   
    20   11   12 1   
    21   11   33 1   
    22   12   13 1   
    23   12   18 1   
    24   13   14 2   
    25   13   15 1   
    26   15   16 1   
    27   15   34 1   
    28   16   17 ar  
    29   16   25 ar  
    30   17   18 ar  
    31   17   22 ar  
    32   18   19 ar  
    33   19   20 ar  
    34   19   35 1   
    35   20   21 ar  
    36   20   36 1   
    37   21   22 ar  
    38   21   37 1   
    39   22   23 ar  
    40   23   24 ar  
    41   23   38 1   
    42   24   25 ar  
    43   24   39 1   
    44   25   40 1   
@<TRIPOS>SUBSTRUCTURE
     1 D3N         1 TEMP              0 ****  ****    0 ROOT
