@<TRIPOS>MOLECULE
D3P
   21    21     1     0     0
SMALL
bcc


@<TRIPOS>ATOM
      1 N          -1.4750   -0.6240   -0.2890 n3        1 D3P     -0.881800
      2 CA         -0.2560    0.1810   -0.2870 c3        1 D3P      0.042800
      3 C          -0.4980    1.6330    0.2710 c         1 D3P      0.893600
      4 O          -1.2210    1.7380    1.3040 o         1 D3P     -0.831800
      5 C1          0.8360   -0.4790    0.5100 ca        1 D3P      0.046700
      6 C2          1.8970   -1.1230   -0.1330 ca        1 D3P     -0.204000
      7 C3          2.9020   -1.7220    0.6380 ca        1 D3P      0.133600
      8 O3          3.9230   -2.3490   -0.0520 oh        1 D3P     -0.518600
      9 C4          2.8760   -1.6960    2.0380 ca        1 D3P     -0.266000
     10 C5          1.8020   -1.0400    2.6560 ca        1 D3P      0.133600
     11 O5          1.8020   -1.0260    4.0370 oh        1 D3P     -0.518600
     12 C6          0.7840   -0.4390    1.9090 ca        1 D3P     -0.204000
     13 OXT         0.0100    2.5910   -0.3640 o         1 D3P     -0.831800
     14 HN1        -1.7780   -0.7330    0.6640 hn        1 D3P      0.333300
     15 HN2        -2.1860   -0.0890   -0.7560 hn        1 D3P      0.333300
     16 HA          0.0810    0.2810   -1.3590 h1        1 D3P      0.058700
     17 H2          1.9530   -1.1610   -1.2290 ha        1 D3P      0.164000
     18 H3          4.5540   -2.6780    0.6010 ho        1 D3P      0.411500
     19 H4          3.6630   -2.1630    2.6390 ha        1 D3P      0.129000
     20 H5          1.0650   -0.4640    4.3160 ho        1 D3P      0.411500
     21 H6         -0.0440    0.1100    2.3920 ha        1 D3P      0.164000
@<TRIPOS>BOND
     1    1    2 1   
     2    1   14 1   
     3    1   15 1   
     4    2    3 1   
     5    2    5 1   
     6    2   16 1   
     7    3    4 1   
     8    3   13 1   
     9    5    6 ar  
    10    5   12 ar  
    11    6    7 ar  
    12    6   17 1   
    13    7    8 1   
    14    7    9 ar  
    15    8   18 1   
    16    9   10 ar  
    17    9   19 1   
    18   10   11 1   
    19   10   12 ar  
    20   11   20 1   
    21   12   21 1   
@<TRIPOS>SUBSTRUCTURE
     1 D3P         1 TEMP              0 ****  ****    0 ROOT
