@<TRIPOS>MOLECULE
D3P
   21    19     1     0     0
SMALL
bcc


@<TRIPOS>ATOM
      1 N          -1.8600    1.8340    0.4960 n3        1 D3P     -0.314000
      2 CA         -0.4350    1.6700    0.7550 c3        1 D3P     -0.113000
      3 C          -0.2000    1.5350    2.2490 c2        1 D3P      0.314000
      4 O           1.0130    1.6330    2.7300 o         1 D3P     -0.565500
      5 C1          0.0630    0.4220    0.0500 c2        1 D3P      0.060000
      6 C2          0.9180    0.5330   -1.0540 c2        1 D3P     -0.232000
      7 C3          1.3830   -0.6200   -1.6960 c1        1 D3P      0.086500
      8 O3          2.1840   -0.5080   -2.8890 o         1 D3P     -0.274000
      9 C4          0.9870   -1.8950   -1.2280 c2        1 D3P     -0.209000
     10 C5          0.1310   -2.0040   -0.1240 c1        1 D3P      0.086500
     11 O5         -0.2770   -3.3220    0.3580 o         1 D3P     -0.274000
     12 C6         -0.3310   -0.8550    0.5160 c2        1 D3P     -0.232000
     13 OXT        -1.1930    1.4420    3.0440 o         1 D3P     -0.565500
     14 HN1        -2.3270    1.2340    0.9900 hn        1 D3P      0.129000
     15 HN2        -2.1160    2.6710    0.7200 hn        1 D3P      0.129000
     16 HA          0.0440    2.4410    0.4220 h1        1 D3P      0.095000
     17 H2          1.1170    1.4200   -1.4330 ha        1 D3P      0.155000
     18 H3          1.6520   -0.4880   -3.6080 ho        1 D3P      0.213000
     19 H4          1.3080   -2.6990   -1.6740 ha        1 D3P      0.144000
     20 H5         -1.1120   -3.5090    0.0590 ho        1 D3P      0.213000
     21 H6         -0.9500   -0.9350    1.3180 ha        1 D3P      0.155000
@<TRIPOS>BOND
     1    1    2 1   
     2    1   14 1   
     3    1   15 1   
     4    2    3 1   
     5    2    5 1   
     6    2   16 1   
     7    3    4 1   
     8    3   13 1   
     9    5    6 1   
    10    5   12 1   
    11    6    7 1   
    12    6   17 1   
    13    7    9 1   
    14    8   18 1   
    15    9   10 1   
    16    9   19 1   
    17   10   12 1   
    18   11   20 1   
    19   12   21 1   
@<TRIPOS>SUBSTRUCTURE
     1 D3P         1 TEMP              0 ****  ****    0 ROOT
