@<TRIPOS>MOLECULE
D3T
   41    42     1     0     0
SMALL
bcc


@<TRIPOS>ATOM
      1 PA         -0.6420    0.2040    5.6970 p5        1 D3T      1.610800
      2 O1A        -1.3330    0.2830    4.3900 o         1 D3T     -0.899500
      3 O2A        -0.9050   -0.9370    6.6040 o         1 D3T     -0.899500
      4 O5'         0.9840    0.0320    5.2730 os        1 D3T     -0.583200
      5 C5'         1.3970   -1.2390    4.9130 c3        1 D3T      0.221400
      6 C4'         1.6900   -1.2910    3.4020 c3        1 D3T      0.108100
      7 O4'         2.8370   -2.1390    3.1440 os        1 D3T     -0.438600
      8 C1'         2.7310   -2.5950    1.7740 c3        1 D3T      0.325500
      9 N1          3.4480   -3.8480    1.5570 n         1 D3T     -0.303400
     10 C6          2.8150   -5.0580    1.6300 c1        1 D3T     -0.052900
     11 C2          4.8330   -3.7530    1.2550 c         1 D3T      0.715100
     12 O2          5.4610   -2.6730    1.0730 o         1 D3T     -0.706100
     13 N3          5.5510   -4.9510    1.0800 n         1 D3T     -0.600500
     14 C4          4.9450   -6.2280    1.1530 c         1 D3T      0.673300
     15 O4          5.7110   -7.2150    0.9620 o         1 D3T     -0.759100
     16 C5          3.5310   -6.2370    1.4170 ce        1 D3T     -0.522500
     17 C5M         2.8440   -7.5370    1.4750 c3        1 D3T      0.055100
     18 C2'         1.2180   -2.6340    1.4380 c3        1 D3T     -0.103400
     19 C3'         0.5470   -1.8440    2.5510 c3        1 D3T     -0.107400
     20 O3A        -0.6180    1.6070    6.4790 os        1 D3T     -0.822800
     21 PB         -0.4640    3.0490    7.2810 p5        1 D3T      1.737800
     22 O1B        -0.3360    4.1340    6.2880 o         1 D3T     -0.914000
     23 O2B         0.5480    2.8570    8.3380 o         1 D3T     -0.914000
     24 O3B        -1.9250    3.2360    8.0370 os        1 D3T     -0.840800
     25 PG         -3.2600    3.6640    8.8520 p5        1 D3T      1.598800
     26 O1G        -3.4260    2.2380    9.6580 oh        1 D3T     -0.818400
     27 O2G        -4.4560    3.8080    7.9890 o         1 D3T     -0.910000
     28 O3G        -2.9930    4.7110    9.8710 o         1 D3T     -0.910000
     29 H5'1        2.3560   -1.4760    5.4550 h1        1 D3T      0.022200
     30 H5'2        0.6210   -2.0050    5.1900 h1        1 D3T      0.022200
     31 H4'         1.9670   -0.2560    3.0550 h1        1 D3T      0.048700
     32 H1'         3.2480   -1.8090    1.1410 h2        1 D3T      0.039700
     33 H6         -2.8440    1.5610    9.3370 ho        1 D3T      0.429000
     34 HN3         6.5250   -4.8770    0.9080 hn        1 D3T      0.291500
     35 H5M1        2.8100   -8.0230    0.4640 hc        1 D3T     -0.007967
     36 H5M2        1.7950   -7.4090    1.8380 hc        1 D3T     -0.007967
     37 H5M3        3.3780   -8.2430    2.1610 hc        1 D3T     -0.007967
     38 H2'1        0.8400   -3.6860    1.4050 hc        1 D3T      0.044700
     39 H2'2        1.0530   -2.1650    0.4380 hc        1 D3T      0.044700
     40 H3'1       -0.0920   -1.0070    2.1770 hc        1 D3T      0.070700
     41 H3'2       -0.1090   -2.5100    3.1660 hc        1 D3T      0.070700
@<TRIPOS>BOND
     1    1    2 1   
     2    1    3 1   
     3    1    4 1   
     4    1   20 1   
     5    4    5 1   
     6    5    6 1   
     7    5   29 1   
     8    5   30 1   
     9    6    7 1   
    10    6   19 1   
    11    6   31 1   
    12    7    8 1   
    13    8    9 1   
    14    8   18 1   
    15    8   32 1   
    16    9   10 2   
    17    9   11 1   
    18   10   16 2   
    19   11   12 2   
    20   11   13 1   
    21   13   14 1   
    22   13   34 1   
    23   14   15 2   
    24   14   16 1   
    25   16   17 1   
    26   17   35 1   
    27   17   36 1   
    28   17   37 1   
    29   18   19 1   
    30   18   38 1   
    31   18   39 1   
    32   19   40 1   
    33   19   41 1   
    34   20   21 1   
    35   21   22 1   
    36   21   23 1   
    37   21   24 1   
    38   24   25 1   
    39   25   26 1   
    40   25   27 1   
    41   25   28 1   
    42   26   33 1   
@<TRIPOS>SUBSTRUCTURE
     1 D3T         1 TEMP              0 ****  ****    0 ROOT
