@<TRIPOS>MOLECULE
D3X
   57    54     1     0     0
SMALL
bcc


@<TRIPOS>ATOM
      1 C1          2.0160    1.3560    1.9570 c3        1 D3X      0.163000
      2 N1         -2.3200   -4.6780    2.1390 n         1 D3X     -0.205000
      3 O1         -1.7080   -2.4050    2.3590 o         1 D3X     -0.333000
      4 S1         -1.9510   -1.0900   -0.7590 ss        1 D3X      2.857000
      5 C2          3.4250    1.8850    1.8200 c3        1 D3X      0.017000
      6 N2         -0.7290   -1.9950   -0.0560 n2        1 D3X     -0.819000
      7 O2         -1.7670    0.3170   -0.5160 o         1 D3X     -0.935000
      8 C3         -1.7090   -3.4030    1.6430 c2        1 D3X      0.219000
      9 O3         -3.1940   -1.3170   -0.1170 o         1 D3X     -0.935000
     10 C4          0.3130    4.6310    2.6820 c3        1 D3X     -0.026000
     11 O4          4.3480    0.8210    2.0170 oh        1 D3X     -0.317000
     12 C5          1.2860    3.5190    2.9030 c3        1 D3X     -0.029000
     13 O5          5.0060    3.5500    2.5090 oh        1 D3X     -0.334000
     14 C6          2.6960    4.0620    2.7780 c3        1 D3X     -0.025000
     15 O6          2.9420    4.9760    3.8800 oh        1 D3X     -0.341000
     16 C7          3.7210    2.9840    2.8120 c3        1 D3X     -0.003000
     17 O7         -3.0470   -1.5240   -6.3780 os        1 D3X     -0.200000
     18 C8          0.7660   -0.5120    1.2140 c3        1 D3X     -0.041000
     19 O8          1.0010    2.4390    1.9330 os        1 D3X     -0.294000
     20 C9          0.5950   -1.4920   -0.0290 c3        1 D3X     -0.027000
     21 O9         -0.1060    5.1310    3.9150 oh        1 D3X     -0.332000
     22 C10        -0.9860   -3.3830    0.3360 c3        1 D3X     -0.031000
     23 O10         1.7600    0.4760    0.9120 os        1 D3X     -0.259000
     24 C11        -1.5770   -0.8140   -4.7680 c1        1 D3X     -0.184000
     25 O11        -2.1940   -5.0340    3.4800 oh        1 D3X     -0.233000
     26 C12        -2.0510   -1.4380   -2.4980 c1        1 D3X     -0.886000
     27 C13        -2.8490   -2.4690   -2.9430 c2        1 D3X      0.025000
     28 C14        -1.4130   -0.6080   -3.4080 c1        1 D3X      0.018000
     29 C15        -3.0170   -2.6800   -4.3040 c1        1 D3X     -0.236000
     30 C16        -2.3800   -1.8510   -5.2190 c1        1 D3X      0.152000
     31 C17        -2.5990   -2.2370   -7.5210 c3        1 D3X     -0.081000
     32 H1          1.9390    0.8610    2.8240 h2        1 D3X      0.105000
     33 HN1        -2.8370   -5.2130    1.5550 hn        1 D3X      0.260000
     34 H2          3.5460    2.2510    0.8820 h1        1 D3X      0.118000
     35 H4          0.7450    5.3510    2.1640 h1        1 D3X      0.108000
     36 H4A        -0.4880    4.2810    2.1700 h1        1 D3X      0.108000
     37 HO4         5.1380    1.0190    1.5850 ho        1 D3X      0.222000
     38 H5          1.1710    3.1900    3.7540 h1        1 D3X      0.090000
     39 HO5         4.9310    4.1080    1.7820 ho        1 D3X      0.226000
     40 H6          2.7780    4.5580    1.9200 h1        1 D3X      0.104000
     41 HO6         3.1640    5.7700    3.5620 ho        1 D3X      0.231000
     42 H7          3.7480    2.5820    3.7590 h1        1 D3X      0.102000
     43 H8          1.0520   -1.0380    2.0150 h1        1 D3X      0.099500
     44 H8A        -0.1120   -0.0590    1.4070 h1        1 D3X      0.099500
     45 H9          0.7770   -0.9980   -0.8660 h1        1 D3X      0.109500
     46 H9A         1.2480   -2.2640    0.0560 h1        1 D3X      0.109500
     47 HO9        -0.7140    5.7550    3.7890 ho        1 D3X      0.207000
     48 H10        -0.1100   -3.8770    0.4270 h1        1 D3X      0.117000
     49 H10A       -1.5260   -3.8100   -0.3360 h1        1 D3X      0.117000
     50 H11        -1.1310   -0.2340   -5.4030 ha        1 D3X      0.162000
     51 HO11       -2.3060   -5.9210    3.5660 ho        1 D3X      0.226000
     52 H13        -3.3080   -3.0660   -2.2820 ha        1 D3X      0.154000
     53 H14        -0.8400    0.1300   -3.0850 ha        1 D3X      0.156000
     54 H15        -3.5850   -3.4120   -4.6180 ha        1 D3X      0.149000
     55 H17        -2.5670   -1.6080   -8.3220 h1        1 D3X      0.092000
     56 H17A       -3.2370   -2.9980   -7.7150 h1        1 D3X      0.092000
     57 H17B       -1.7570   -2.5750   -7.3630 h1        1 D3X      0.092000
@<TRIPOS>BOND
     1    1    5 1   
     2    1   19 1   
     3    1   23 1   
     4    1   32 1   
     5    2    8 1   
     6    2   25 1   
     7    2   33 1   
     8    3    8 1   
     9    4    7 1   
    10    4    9 1   
    11    5   11 1   
    12    5   16 1   
    13    5   34 1   
    14    6   20 1   
    15    6   22 1   
    16    8   22 1   
    17   10   12 1   
    18   10   21 1   
    19   10   35 1   
    20   10   36 1   
    21   11   37 1   
    22   12   14 1   
    23   12   19 1   
    24   12   38 1   
    25   13   16 1   
    26   13   39 1   
    27   14   15 1   
    28   14   16 1   
    29   14   40 1   
    30   15   41 1   
    31   16   42 1   
    32   17   30 1   
    33   17   31 1   
    34   18   20 1   
    35   18   23 1   
    36   18   43 1   
    37   18   44 1   
    38   20   45 1   
    39   20   46 1   
    40   21   47 1   
    41   22   48 1   
    42   22   49 1   
    43   24   30 1   
    44   24   50 1   
    45   25   51 1   
    46   26   27 1   
    47   26   28 1   
    48   27   29 1   
    49   27   52 1   
    50   28   53 1   
    51   29   54 1   
    52   31   55 1   
    53   31   56 1   
    54   31   57 1   
@<TRIPOS>SUBSTRUCTURE
     1 D3X         1 TEMP              0 ****  ****    0 ROOT
