@<TRIPOS>MOLECULE
D3X
   59    58     1     0     0
SMALL
bcc


@<TRIPOS>ATOM
      1 C1         -0.7570    0.6620    1.3330 c2        1 D3X      0.117000
      2 N1          0.4240    2.0290   -8.0970 n4        1 D3X      0.022000
      3 O1         -1.8130    1.4410   -7.7850 o         1 D3X     -0.402000
      4 S1         -1.2310   -1.1320   -4.9360 s6        1 D3X      2.759000
      5 C2          0.1440    0.3970    2.2860 cv        1 D3X     -0.326000
      6 N2         -1.1620    0.4530   -5.0270 n3        1 D3X     -0.720000
      7 O2         -0.4380   -1.8400   -5.8350 o         1 D3X     -0.907000
      8 C3         -0.7070    1.4320   -7.2070 c2        1 D3X      0.249000
      9 O3         -1.2260   -1.5830   -3.5970 o         1 D3X     -0.907000
     10 C4          0.5480    2.0200    4.1350 c2        1 D3X      0.295000
     11 O4         -0.5580   -1.4720   -1.1060 oh        1 D3X     -0.420000
     12 C5          0.2330    0.6540    3.7630 cy        1 D3X     -0.245000
     13 O5          2.4390    0.1490    1.5250 oh        1 D3X     -0.308000
     14 C6          1.5960   -0.2550    3.7740 cy        1 D3X      0.057000
     15 O6          1.3790   -1.4160    4.4890 oh        1 D3X     -0.267000
     16 C7          1.3920   -0.4600    2.2260 cy        1 D3X      0.106000
     17 O7         -4.3080   -4.1760   -8.4180 os        1 D3X     -0.129000
     18 O8         -1.9160    1.3500    1.4920 oh        1 D3X     -0.221000
     19 C9         -1.9700    1.3930   -4.2770 c3        1 D3X     -0.067000
     20 O9          0.3020    2.5500    5.2990 oh        1 D3X     -0.114000
     21 C10        -0.2700    0.9730   -5.9760 c2        1 D3X     -0.401000
     22 O10        -1.0180    1.1200   -2.0330 oh        1 D3X     -0.322000
     23 C11        -3.7360   -2.0040   -7.7620 c2        1 D3X     -0.230500
     24 O11         0.0210    2.4420   -9.3150 oh        1 D3X     -0.233000
     25 C12        -3.0170   -1.5170   -5.4410 c3        1 D3X     -0.713000
     26 C13        -3.2860   -2.9230   -5.1340 c2        1 D3X      0.036000
     27 C14        -3.3240   -1.1190   -6.8140 c2        1 D3X      0.036000
     28 C15        -3.6970   -3.8180   -6.0730 c2        1 D3X     -0.230500
     29 C16        -3.9180   -3.3850   -7.4190 c2        1 D3X      0.302000
     30 C17        -4.5210   -5.5800   -8.1640 c3        1 D3X     -0.095000
     31 H1         -0.6410    0.3510    0.2660 h4        1 D3X      0.235000
     32 HN1         1.1550    1.3130   -8.2470 hn        1 D3X      0.255500
     33 H2         -0.0610   -2.0070   -1.7340 ho        1 D3X      0.213500
     34 H4         -2.0680    1.5380    2.4300 ho        1 D3X      0.209000
     35 H4A         1.0800    2.7250    3.4440 h4        1 D3X      0.247000
     36 HO4        -1.4710   -1.5850   -1.3910 ho        1 D3X      0.213500
     37 H5         -0.5670    0.1720    4.3780 hc        1 D3X      0.171000
     38 HO5         2.8870   -0.5320    1.0050 ho        1 D3X      0.233000
     39 H6          2.5050    0.3200    4.0530 h1        1 D3X      0.126000
     40 HO6         1.9660   -1.4280    5.2600 ho        1 D3X      0.238000
     41 H7          1.2090   -1.5240    1.9400 h1        1 D3X      0.144000
     42 H8         -2.7040    0.0640   -2.6720 h1        1 D3X      0.099000
     43 H8A        -2.8590    1.8680   -2.3650 h1        1 D3X      0.099000
     44 H9         -2.9770    1.4930   -4.7790 h1        1 D3X      0.116000
     45 H9A        -1.4600    2.4000   -4.3230 h1        1 D3X      0.116000
     46 HO9        -0.1700    1.9510    5.9260 ho        1 D3X      0.301000
     47 H10        -0.5060    0.3170   -2.2140 ho        1 D3X      0.220000
     48 H10A        0.7690    1.0830   -5.6340 h4        1 D3X      0.162000
     49 HO11       -0.9650    2.3460   -9.3810 ho        1 D3X      0.287000
     50 H13        -3.1240   -3.2430   -4.0850 ha        1 D3X      0.195000
     51 H14        -3.6280   -0.8740   -4.7340 h1        1 D3X      0.212000
     52 H15        -3.8670   -4.8760   -5.8090 ha        1 D3X      0.194000
     53 H17        -3.5710   -6.0520   -7.8180 h1        1 D3X      0.129333
     54 H17A       -5.3460   -5.7090   -7.4220 h1        1 D3X      0.129333
     55 H17B       -4.8210   -5.9600   -9.1760 h1        1 D3X      0.129333
     56 C8         -2.2000    1.0610   -2.7930 c3        1 D3X     -0.039000
     57 H12         0.8440    2.8420   -7.6160 hn        1 D3X      0.255500
     58 H21        -3.2060   -0.0450   -7.0750 ha        1 D3X      0.195000
     59 H11        -3.9450   -1.6910   -8.8010 ha        1 D3X      0.194000
@<TRIPOS>BOND
     1    1    5 1   
     2    1   18 1   
     3    1   31 1   
     4    2    8 1   
     5    2   24 1   
     6    2   32 1   
     7    2   57 1   
     8    3    8 1   
     9    4    6 1   
    10    4    7 1   
    11    4    9 1   
    12    4   25 1   
    13    5   12 1   
    14    5   16 1   
    15    6   19 1   
    16    6   21 1   
    17    8   21 1   
    18   10   12 1   
    19   10   20 1   
    20   10   35 1   
    21   11   33 1   
    22   11   36 1   
    23   12   14 1   
    24   12   37 1   
    25   13   16 1   
    26   13   38 1   
    27   14   15 1   
    28   14   16 1   
    29   14   39 1   
    30   15   40 1   
    31   16   41 1   
    32   17   29 1   
    33   17   30 1   
    34   18   34 1   
    35   19   44 1   
    36   19   45 1   
    37   19   56 1   
    38   20   46 1   
    39   21   48 1   
    40   22   47 1   
    41   22   56 1   
    42   23   27 1   
    43   23   29 1   
    44   23   59 1   
    45   24   49 1   
    46   25   26 1   
    47   25   27 1   
    48   25   51 1   
    49   26   28 1   
    50   26   50 1   
    51   27   58 1   
    52   28   29 1   
    53   28   52 1   
    54   30   53 1   
    55   30   54 1   
    56   30   55 1   
    57   42   56 1   
    58   43   56 1   
@<TRIPOS>SUBSTRUCTURE
     1 D3X         1 TEMP              0 ****  ****    0 ROOT
