@<TRIPOS>MOLECULE
D3X
   57    58     1     0     0
SMALL
bcc


@<TRIPOS>ATOM
      1 C1          3.1320    0.0570    0.2880 c3        1 D3X      0.305900
      2 N1         -2.5560   -3.5660    0.4720 n         1 D3X     -0.370400
      3 O1         -0.5050   -4.1520   -0.4430 o         1 D3X     -0.563100
      4 S1         -2.1860   -0.3600    1.8490 sy        1 D3X      1.518200
      5 C2          4.1140   -1.1270    0.1820 c3        1 D3X      0.086100
      6 N2         -1.0540   -0.9600    0.8170 n3        1 D3X     -0.797500
      7 O2         -2.7630   -1.4610    2.5300 o         1 D3X     -0.661300
      8 C3         -1.1500   -3.4180    0.3210 c         1 D3X      0.571100
      9 O3         -1.6150    0.6390    2.6610 o         1 D3X     -0.661300
     10 C4          4.7720    2.6230   -1.7730 c3        1 D3X      0.134400
     11 O4          3.9530   -2.0090    1.2780 oh        1 D3X     -0.601800
     12 C5          4.6820    1.5960   -0.6430 c3        1 D3X      0.149100
     13 O5          6.4900   -1.6100   -0.0330 oh        1 D3X     -0.606800
     14 C6          5.7450    0.4970   -0.8200 c3        1 D3X      0.118100
     15 O6          7.0130    1.1110   -0.6770 oh        1 D3X     -0.595800
     16 C7          5.5500   -0.5890    0.2530 c3        1 D3X      0.109100
     17 O7         -6.1810    2.2530   -1.5210 os        1 D3X     -0.316900
     18 O8          3.3760    1.0190   -0.7300 os        1 D3X     -0.435600
     19 C9         -0.4980   -0.2030   -0.2720 c3        1 D3X      0.218800
     20 O9          4.2250    3.8320   -1.2720 oh        1 D3X     -0.598800
     21 C10        -0.4740   -2.2500    1.0520 c3        1 D3X      0.150800
     22 O10         1.8540   -0.4440   -0.0400 os        1 D3X     -0.430600
     23 C11        -4.2670    2.3490   -0.1650 ca        1 D3X     -0.213000
     24 O11        -3.0380   -4.7700    0.1550 oh        1 D3X     -0.434100
     25 C12        -3.3190    0.3460    0.8450 ca        1 D3X     -0.440500
     26 C13        -4.3400   -0.4130    0.2570 ca        1 D3X      0.024500
     27 C14        -3.3090    1.7350    0.6220 ca        1 D3X      0.024500
     28 C15        -5.3160    0.1740   -0.5390 ca        1 D3X     -0.213000
     29 C16        -5.2790    1.5600   -0.7540 ca        1 D3X      0.198100
     30 C17        -7.2320    1.4940   -2.1160 c3        1 D3X      0.108700
     31 H1          3.1500    0.5330    1.3070 h2        1 D3X      0.059700
     32 HN1        -2.8890   -3.3340    1.4080 hn        1 D3X      0.334500
     33 H2          3.9480   -1.6740   -0.7870 h1        1 D3X      0.078700
     34 H4          5.8520    2.7710   -2.0440 h1        1 D3X      0.047700
     35 H4A         4.1910    2.2720   -2.6660 h1        1 D3X      0.047700
     36 HO4         3.0580   -2.3700    1.2080 ho        1 D3X      0.422000
     37 H5          4.8090    2.1040    0.3530 h1        1 D3X      0.077700
     38 HO5         6.3120   -2.3310    0.5860 ho        1 D3X      0.428000
     39 H6          5.6600    0.0320   -1.8410 h1        1 D3X      0.062700
     40 HO6         7.6640    0.3950   -0.6720 ho        1 D3X      0.426000
     41 H7          5.7530   -0.1690    1.2780 h1        1 D3X      0.065700
     42 H8          0.9890    1.3270   -0.7270 h1        1 D3X      0.060200
     43 H8A         0.8080    0.9940    1.0690 h1        1 D3X      0.060200
     44 H9         -0.3130   -0.8860   -1.1500 h1        1 D3X      0.069700
     45 H9A        -1.2520    0.5770   -0.5860 h1        1 D3X      0.069700
     46 HO9         4.2640    4.4690   -1.9950 ho        1 D3X      0.403000
     47 H10         0.6090   -2.2480    0.7280 h1        1 D3X      0.089700
     48 H10A       -0.5140   -2.4870    2.1570 h1        1 D3X      0.089700
     49 HO11       -2.9090   -4.8680   -0.8100 ho        1 D3X      0.430000
     50 H13        -4.3780   -1.5020    0.4410 ha        1 D3X      0.160000
     51 H14        -2.5240    2.3480    1.1040 ha        1 D3X      0.160000
     52 H15        -6.1050   -0.4480   -0.9850 ha        1 D3X      0.155500
     53 H17        -6.8150    0.7350   -2.8210 h1        1 D3X      0.053033
     54 H17A       -7.8560    1.0050   -1.3300 h1        1 D3X      0.053033
     55 H17B       -7.8240    2.2670   -2.6700 h1        1 D3X      0.053033
     56 C8          0.8120    0.5340    0.0460 c3        1 D3X      0.107400
     57 H11        -4.2600    3.4350   -0.3370 ha        1 D3X      0.155500
@<TRIPOS>BOND
     1    1    5 1   
     2    1   18 1   
     3    1   22 1   
     4    1   31 1   
     5    2    8 1   
     6    2   24 1   
     7    2   32 1   
     8    3    8 2   
     9    4    6 1   
    10    4    7 2   
    11    4    9 2   
    12    4   25 1   
    13    5   11 1   
    14    5   16 1   
    15    5   33 1   
    16    6   19 1   
    17    6   21 1   
    18    8   21 1   
    19   10   12 1   
    20   10   20 1   
    21   10   34 1   
    22   10   35 1   
    23   11   36 1   
    24   12   14 1   
    25   12   18 1   
    26   12   37 1   
    27   13   16 1   
    28   13   38 1   
    29   14   15 1   
    30   14   16 1   
    31   14   39 1   
    32   15   40 1   
    33   16   41 1   
    34   17   29 1   
    35   17   30 1   
    36   19   44 1   
    37   19   45 1   
    38   19   56 1   
    39   20   46 1   
    40   21   47 1   
    41   21   48 1   
    42   22   56 1   
    43   23   27 ar  
    44   23   29 ar  
    45   23   57 1   
    46   24   49 1   
    47   25   26 ar  
    48   25   27 ar  
    49   26   28 ar  
    50   26   50 1   
    51   27   51 1   
    52   28   29 ar  
    53   28   52 1   
    54   30   53 1   
    55   30   54 1   
    56   30   55 1   
    57   42   56 1   
    58   43   56 1   
@<TRIPOS>SUBSTRUCTURE
     1 D3X         1 TEMP              0 ****  ****    0 ROOT
