@<TRIPOS>MOLECULE
D3X
   59    55     1     0     0
SMALL
bcc


@<TRIPOS>ATOM
      1 C1          0.2090    0.3250    1.7200 c2        1 D3X      0.055000
      2 N1          0.1550    1.0280   -7.8790 ny        1 D3X      0.036000
      3 O1         -1.6820   -0.1080   -6.9830 o         1 D3X     -0.470000
      4 S1         -0.6250   -3.1350   -5.4960 s4        1 D3X      2.129800
      5 C2          0.7940   -0.3810    2.6320 c1        1 D3X     -0.361000
      6 N2         -0.0280   -1.0070   -4.6620 n7        1 D3X     -0.301000
      7 O2          0.1220   -3.0430   -6.6350 o         1 D3X     -0.482900
      8 C3         -0.4770    0.1710   -6.7500 c2        1 D3X      0.224000
      9 O3         -0.1120   -3.7400   -4.3750 o         1 D3X     -0.482900
     10 C4         -0.9930    3.6260    3.0140 c3        1 D3X     -0.051000
     11 O4          1.6780   -2.5190   -2.6870 oh        1 D3X     -0.447000
     12 C5         -0.2520    2.3150    3.0160 c2        1 D3X      0.210000
     13 O5          2.7450   -1.1130    3.6310 oh        1 D3X     -0.223000
     14 C6          0.6340    1.9590    4.1650 c3        1 D3X     -0.051000
     15 O6          0.8160    3.0750    4.9970 oh        1 D3X     -0.278000
     16 C7          1.4090   -1.2490    3.4150 c2        1 D3X      0.174000
     17 O7         -6.3410   -2.0260   -7.8460 os        1 D3X     -0.165000
     18 O8         -0.4210    1.5820    1.9520 os        1 D3X     -0.054000
     19 C9         -1.0210   -0.3980   -3.7690 c3        1 D3X     -0.152000
     20 O9         -1.9350    3.7130    1.9880 oh        1 D3X     -0.278000
     21 C10         0.3810   -0.1490   -5.7260 c2        1 D3X     -0.415000
     22 O10        -0.0560   -0.4540   -1.5300 oh        1 D3X     -0.361000
     23 C11        -4.4430   -1.1590   -8.8160 c2        1 D3X     -0.505000
     24 O11        -0.6870    1.3390   -8.8840 oh        1 D3X     -0.247000
     25 C12        -2.1290   -3.0170   -5.5930 c2        1 D3X     -1.266000
     26 C13        -2.8840   -2.5400   -6.6600 c2        1 D3X      0.263000
     27 C14        -3.3070   -0.5040   -8.9690 c1        1 D3X      0.336000
     28 C15        -4.2750   -2.5230   -6.7000 c2        1 D3X     -0.374000
     29 C16        -5.0000   -1.9380   -7.7370 c2        1 D3X      0.352000
     30 C17        -7.0750   -2.7990   -6.8830 c3        1 D3X     -0.089000
     31 H1          0.0360    0.1180    0.6390 h4        1 D3X      0.252000
     32 HN1         0.9560    0.5160   -8.2850 hn        1 D3X      0.251500
     33 H2          2.6100   -2.7540   -2.7130 ho        1 D3X      0.227500
     34 H4         -0.2200    4.4490    2.9980 h1        1 D3X      0.173000
     35 H4A        -1.5790    3.6930    3.9810 h1        1 D3X      0.173000
     36 HO4         1.2200   -3.3680   -2.7170 ho        1 D3X      0.227500
     37 H5          0.2110    1.0620    4.6990 h1        1 D3X      0.173000
     38 HO5         3.0480   -1.8480    4.1930 ho        1 D3X      0.263000
     39 H6          0.8690   -2.0670    3.9320 h4        1 D3X      0.179000
     40 HO6         1.6630    1.6850    3.7670 h1        1 D3X      0.173000
     41 H7          0.2550    2.9750    5.7810 ho        1 D3X      0.235000
     42 H8         -0.9420   -2.1330   -2.4020 h1        1 D3X      0.101000
     43 H8A        -2.0240   -0.7410   -1.8730 h1        1 D3X      0.101000
     44 H9         -2.0290   -0.5320   -4.2560 h1        1 D3X      0.115000
     45 H9A        -0.8370    0.7090   -3.6600 h1        1 D3X      0.115000
     46 HO9        -1.4870    3.9980    1.1780 ho        1 D3X      0.235000
     47 H10         0.7960   -0.8290   -1.7930 ho        1 D3X      0.231000
     48 H10A        1.4170    0.2160   -5.6880 h4        1 D3X      0.156000
     49 HO11       -1.5310    0.8160   -8.7820 ho        1 D3X      0.296000
     50 H13        -2.3250   -2.1510   -7.5440 ha        1 D3X      0.150000
     51 H14        -2.7470   -3.3450   -4.7250 h4        1 D3X      0.224000
     52 H15        -4.8270   -3.0050   -5.8750 ha        1 D3X      0.172000
     53 H17        -6.7160   -3.8560   -6.8820 h1        1 D3X      0.119333
     54 H17A       -6.9840   -2.3320   -5.8730 h1        1 D3X      0.119333
     55 H17B       -8.1270   -2.7280   -7.2680 h1        1 D3X      0.119333
     56 C8         -1.0500   -1.0150   -2.3640 c3        1 D3X     -0.026000
     57 H12         0.4910    1.9220   -7.4860 hn        1 D3X      0.251500
     58 H21         0.8010   -1.2360   -4.1200 hn        1 D3X      0.212000
     59 H11        -5.1310   -1.0430   -9.7040 ha        1 D3X      0.257000
@<TRIPOS>BOND
     1    1    5 1   
     2    1   18 1   
     3    1   31 1   
     4    2    8 1   
     5    2   24 1   
     6    2   32 1   
     7    2   57 1   
     8    3    8 1   
     9    4    7 1   
    10    4    9 1   
    11    4   25 1   
    12    5   16 1   
    13    6   19 1   
    14    6   21 1   
    15    6   58 1   
    16    8   21 1   
    17   10   12 1   
    18   10   20 1   
    19   10   34 1   
    20   10   35 1   
    21   11   33 1   
    22   11   36 1   
    23   12   14 1   
    24   12   18 1   
    25   13   16 1   
    26   13   38 1   
    27   14   15 1   
    28   14   37 1   
    29   14   40 1   
    30   15   41 1   
    31   16   39 1   
    32   17   29 1   
    33   17   30 1   
    34   19   44 1   
    35   19   45 1   
    36   19   56 1   
    37   20   46 1   
    38   21   48 1   
    39   22   47 1   
    40   22   56 1   
    41   23   27 1   
    42   23   29 1   
    43   23   59 1   
    44   24   49 1   
    45   25   26 1   
    46   25   51 1   
    47   26   28 1   
    48   26   50 1   
    49   28   29 1   
    50   28   52 1   
    51   30   53 1   
    52   30   54 1   
    53   30   55 1   
    54   42   56 1   
    55   43   56 1   
@<TRIPOS>SUBSTRUCTURE
     1 D3X         1 TEMP              0 ****  ****    0 ROOT
