@<TRIPOS>MOLECULE
D3Y
   57    60     1     0     0
SMALL
bcc


@<TRIPOS>ATOM
      1 CD1         0.1820   -1.7830    1.4700 ca        1 D3Y     -0.070000
      2 CE1         1.4470   -1.7410    2.0260 ca        1 D3Y     -0.180500
      3 CZ          2.0820   -0.4880    2.2070 ca        1 D3Y      0.216100
      4 OH          3.3220   -0.5240    2.7530 oh        1 D3Y     -0.442100
      5 CE2         1.4260    0.7020    1.8350 ca        1 D3Y     -0.180500
      6 CD2         0.1560    0.6370    1.2800 ca        1 D3Y     -0.070000
      7 CG         -0.4870   -0.5990    1.1040 ca        1 D3Y     -0.294300
      8 CB         -1.7960   -0.6690    0.4170 c3        1 D3Y     -0.020100
      9 CA         -2.9240   -1.0220    1.4280 c3        1 D3Y      0.038500
     10 N          -2.8020   -0.1990    2.6740 n4        1 D3Y     -0.837600
     11 C          -4.2940   -0.8320    0.7700 c         1 D3Y      0.522100
     12 O          -5.1350   -0.0200    1.1270 o         1 D3Y     -0.390100
     13 N8         -4.5740   -1.7150   -0.4030 n4        1 D3Y     -0.642800
     14 C3'        -6.0110   -1.7420   -0.8350 c3        1 D3Y      0.086500
     15 C2'        -6.4350   -0.6860   -1.8960 c3        1 D3Y      0.106100
     16 O2'        -5.2790   -0.2110   -2.5460 oh        1 D3Y     -0.631800
     17 C4'        -6.3690   -3.1050   -1.5020 c3        1 D3Y      0.124100
     18 C5'        -6.7780   -4.1540   -0.4670 c3        1 D3Y      0.125400
     19 O5'        -5.6750   -4.2320    0.4290 oh        1 D3Y     -0.682800
     20 O4'        -7.4770   -2.8320   -2.3560 os        1 D3Y     -0.377600
     21 C1'        -7.3210   -1.5040   -2.9090 c3        1 D3Y      0.234800
     22 N9         -8.6340   -0.9590   -3.1440 na        1 D3Y     -0.298000
     23 C8         -9.8830   -1.6420   -3.0600 cc        1 D3Y      0.526700
     24 N7        -10.8930   -0.9960   -3.6570 nd        1 D3Y     -0.541100
     25 C5        -10.3200    0.1590   -4.2120 ca        1 D3Y     -0.124200
     26 C4         -8.8750    0.1980   -3.9130 ca        1 D3Y      0.449800
     27 N3         -8.0540    1.1960   -4.3170 nb        1 D3Y     -0.671000
     28 C2         -8.6820    2.1630   -5.0410 ca        1 D3Y      0.699900
     29 N1         -9.9980    2.2390   -5.3890 nb        1 D3Y     -0.652000
     30 C6        -10.8130    1.2360   -4.9740 ca        1 D3Y      0.555200
     31 N6        -12.2400    1.2660   -5.3420 n4        1 D3Y     -0.821300
     32 H1         -0.2940   -2.7600    1.2940 ha        1 D3Y      0.137000
     33 H2          1.9860   -2.6610    2.3130 ha        1 D3Y      0.186500
     34 H3          3.6990    0.3740    2.7810 ho        1 D3Y      0.461000
     35 H4          1.9310    1.6740    1.9590 ha        1 D3Y      0.186500
     36 H5         -0.3310    1.5690    0.9490 ha        1 D3Y      0.137000
     37 H6         -1.7780   -1.4840   -0.3570 hc        1 D3Y      0.087700
     38 H7         -2.0330    0.3030   -0.0910 hc        1 D3Y      0.087700
     39 H8         -2.7980   -2.1080    1.7400 hx        1 D3Y      0.154700
     40 H9         -3.2820   -0.6500    3.4620 hn        1 D3Y      0.491467
     41 H10        -3.1960    0.7410    2.5370 hn        1 D3Y      0.491467
     42 H12        -3.9940   -1.3910   -1.2000 hn        1 D3Y      0.501300
     43 H13        -6.6480   -1.6010    0.0900 hx        1 D3Y      0.144700
     44 H14        -6.9970    0.1560   -1.4090 h1        1 D3Y      0.112700
     45 H15        -5.5440    0.4900   -3.1650 ho        1 D3Y      0.484000
     46 H16        -5.5210   -3.4870   -2.1390 h1        1 D3Y      0.092700
     47 H17        -6.9730   -5.1350   -0.9770 h1        1 D3Y      0.093700
     48 H18        -7.6920   -3.8340    0.1000 h1        1 D3Y      0.093700
     49 H19        -5.6610   -5.1280    0.7960 ho        1 D3Y      0.472000
     50 H20        -6.7660   -1.6000   -3.8950 h2        1 D3Y      0.122700
     51 H21        -9.9650   -2.6110   -2.5350 h5        1 D3Y      0.123800
     52 H22        -8.0450    3.0060   -5.4070 h5        1 D3Y      0.115100
     53 H23       -12.8040    0.9830   -4.5280 hn        1 D3Y      0.491800
     54 H24       -12.3990    0.6000   -6.1120 hn        1 D3Y      0.491800
     55 HN3        -1.7850   -0.1080    2.8920 hn        1 D3Y      0.491467
     56 H82        -4.3090   -2.6900   -0.1590 hn        1 D3Y      0.501300
     57 H63       -12.5260    2.2090   -5.6500 hn        1 D3Y      0.491800
@<TRIPOS>BOND
     1    1    2 ar  
     2    1    7 ar  
     3    1   32 1   
     4    2    3 ar  
     5    2   33 1   
     6    3    4 1   
     7    3    5 ar  
     8    4   34 1   
     9    5    6 ar  
    10    5   35 1   
    11    6    7 ar  
    12    6   36 1   
    13    7    8 1   
    14    8    9 1   
    15    8   37 1   
    16    8   38 1   
    17    9   10 1   
    18    9   11 1   
    19    9   39 1   
    20   10   40 1   
    21   10   41 1   
    22   10   55 1   
    23   11   12 2   
    24   11   13 1   
    25   13   14 1   
    26   13   42 1   
    27   13   56 1   
    28   14   15 1   
    29   14   17 1   
    30   14   43 1   
    31   15   16 1   
    32   15   21 1   
    33   15   44 1   
    34   16   45 1   
    35   17   18 1   
    36   17   20 1   
    37   17   46 1   
    38   18   19 1   
    39   18   47 1   
    40   18   48 1   
    41   19   49 1   
    42   20   21 1   
    43   21   22 1   
    44   21   50 1   
    45   22   23 1   
    46   22   26 1   
    47   23   24 2   
    48   23   51 1   
    49   24   25 1   
    50   25   26 ar  
    51   25   30 ar  
    52   26   27 ar  
    53   27   28 ar  
    54   28   29 ar  
    55   28   52 1   
    56   29   30 ar  
    57   30   31 1   
    58   31   53 1   
    59   31   54 1   
    60   31   57 1   
@<TRIPOS>SUBSTRUCTURE
     1 D3Y         1 TEMP              0 ****  ****    0 ROOT
