@<TRIPOS>MOLECULE
D3Y
   56    59     1     0     0
SMALL
bcc


@<TRIPOS>ATOM
      1 CD1         0.0560   -1.8710    0.4350 ca        1 D3Y     -0.079000
      2 CE1         1.1500   -2.5800    0.9150 ca        1 D3Y     -0.177000
      3 CZ          1.7670   -2.1720    2.1110 ca        1 D3Y      0.200100
      4 OH          2.8380   -2.8050    2.6590 oh        1 D3Y     -0.452100
      5 CE2         1.2790   -1.0510    2.8230 ca        1 D3Y     -0.177000
      6 CD2         0.1880   -0.3590    2.3270 ca        1 D3Y     -0.079000
      7 CG         -0.4460   -0.7670    1.1380 ca        1 D3Y     -0.262300
      8 CB         -1.5610    0.0350    0.5850 c3        1 D3Y     -0.027100
      9 CA         -2.9290   -0.5510    1.0190 c3        1 D3Y      0.054500
     10 N          -2.9730   -0.8340    2.4880 n4        1 D3Y     -0.837600
     11 C          -4.0340    0.4340    0.6340 c         1 D3Y      0.521100
     12 O          -4.5360    1.2530    1.3920 o         1 D3Y     -0.385100
     13 N8         -4.5100    0.3980   -0.7770 n4        1 D3Y     -0.642800
     14 C3'        -5.8820   -0.2110   -0.8960 c3        1 D3Y      0.075500
     15 C2'        -6.5630    0.0940   -2.2660 c3        1 D3Y      0.110100
     16 O2'        -5.5860    0.5500   -3.1730 oh        1 D3Y     -0.646800
     17 C4'        -5.8840   -1.7570   -0.7860 c3        1 D3Y      0.111100
     18 C5'        -6.2130   -2.2730    0.6210 c3        1 D3Y      0.116400
     19 O5'        -4.9860   -2.5520    1.2820 oh        1 D3Y     -0.695800
     20 O4'        -6.8910   -2.2410   -1.6640 os        1 D3Y     -0.383600
     21 C1'        -7.1340   -1.2910   -2.7340 c3        1 D3Y      0.256800
     22 N9         -8.5330   -1.2490   -3.0150 na        1 D3Y     -0.327000
     23 C8         -9.5130   -2.2740   -2.8180 cc        1 D3Y      0.421700
     24 N7        -10.6450   -2.0490   -3.4840 nd        1 D3Y     -0.491100
     25 C5        -10.4340   -0.8580   -4.2040 ca        1 D3Y     -0.232200
     26 C4         -9.1010   -0.3480   -3.9480 ca        1 D3Y      0.460800
     27 N3         -8.5800    0.7800   -4.5040 nb        1 D3Y     -0.827000
     28 C2         -9.4660    1.3920   -5.3450 ca        1 D3Y      0.721900
     29 N1        -10.7250    1.0450   -5.6760 nb        1 D3Y     -0.766000
     30 C6        -11.2600   -0.1040   -5.1110 ca        1 D3Y      0.788200
     31 N6        -12.5250   -0.5030   -5.3990 nh        1 D3Y     -0.920500
     32 H1         -0.4050   -2.1760   -0.5180 ha        1 D3Y      0.137500
     33 H2          1.5470   -3.4400    0.3520 ha        1 D3Y      0.181000
     34 H3          3.1400   -3.5100    2.0600 ho        1 D3Y      0.454000
     35 H4          1.7930   -0.7360    3.7460 ha        1 D3Y      0.181000
     36 H5         -0.1520    0.5490    2.8500 ha        1 D3Y      0.137500
     37 H6         -1.5350    0.0220   -0.5380 hc        1 D3Y      0.093200
     38 H7         -1.4820    1.1040    0.9250 hc        1 D3Y      0.093200
     39 H8         -3.0960   -1.5500    0.5000 hx        1 D3Y      0.155700
     40 H9         -3.7450   -1.4860    2.6960 hn        1 D3Y      0.489467
     41 H10        -2.0660   -1.2620    2.7590 hn        1 D3Y      0.489467
     42 H12        -4.5820    1.3640   -1.1520 hn        1 D3Y      0.491800
     43 H13        -6.5150    0.2470   -0.0770 hx        1 D3Y      0.137700
     44 H14        -7.3660    0.8690   -2.1190 h1        1 D3Y      0.130700
     45 H15        -6.0490    0.8730   -3.9680 ho        1 D3Y      0.500000
     46 H16        -4.8990   -2.1900   -1.1280 h1        1 D3Y      0.064700
     47 H17        -6.8640   -3.1870    0.5410 h1        1 D3Y      0.100200
     48 H18        -6.7440   -1.5010    1.2380 h1        1 D3Y      0.100200
     49 H19        -4.9030   -3.5130    1.3560 ho        1 D3Y      0.458000
     50 H20        -6.5460   -1.6560   -3.6330 h2        1 D3Y      0.106700
     51 H21        -9.3040   -3.1250   -2.1580 h5        1 D3Y      0.086800
     52 H22        -9.0920    2.3190   -5.8370 h5        1 D3Y      0.067100
     53 H23       -13.0920    0.0120   -6.0320 hn        1 D3Y      0.467800
     54 H24       -12.8760   -1.3390   -4.9970 hn        1 D3Y      0.467800
     55 HN3        -3.1030    0.0330    3.0260 hn        1 D3Y      0.489467
     56 H82        -3.8580   -0.1200   -1.3830 hn        1 D3Y      0.491800
@<TRIPOS>BOND
     1    1    2 ar  
     2    1    7 ar  
     3    1   32 1   
     4    2    3 ar  
     5    2   33 1   
     6    3    4 1   
     7    3    5 ar  
     8    4   34 1   
     9    5    6 ar  
    10    5   35 1   
    11    6    7 ar  
    12    6   36 1   
    13    7    8 1   
    14    8    9 1   
    15    8   37 1   
    16    8   38 1   
    17    9   10 1   
    18    9   11 1   
    19    9   39 1   
    20   10   40 1   
    21   10   41 1   
    22   10   55 1   
    23   11   12 2   
    24   11   13 1   
    25   13   14 1   
    26   13   42 1   
    27   13   56 1   
    28   14   15 1   
    29   14   17 1   
    30   14   43 1   
    31   15   16 1   
    32   15   21 1   
    33   15   44 1   
    34   16   45 1   
    35   17   18 1   
    36   17   20 1   
    37   17   46 1   
    38   18   19 1   
    39   18   47 1   
    40   18   48 1   
    41   19   49 1   
    42   20   21 1   
    43   21   22 1   
    44   21   50 1   
    45   22   23 1   
    46   22   26 1   
    47   23   24 2   
    48   23   51 1   
    49   24   25 1   
    50   25   26 ar  
    51   25   30 ar  
    52   26   27 ar  
    53   27   28 ar  
    54   28   29 ar  
    55   28   52 1   
    56   29   30 ar  
    57   30   31 1   
    58   31   53 1   
    59   31   54 1   
@<TRIPOS>SUBSTRUCTURE
     1 D3Y         1 TEMP              0 ****  ****    0 ROOT
