@<TRIPOS>MOLECULE
D3Y
   56    59     1     0     0
SMALL
bcc


@<TRIPOS>ATOM
      1 CD1         0.0390   -1.9040    0.4670 ca        1 D3Y     -0.079000
      2 CE1         1.1220   -2.6130    0.9700 ca        1 D3Y     -0.177000
      3 CZ          1.7480   -2.1740    2.1520 ca        1 D3Y      0.200100
      4 OH          2.8080   -2.8060    2.7200 oh        1 D3Y     -0.452100
      5 CE2         1.2780   -1.0220    2.8240 ca        1 D3Y     -0.177000
      6 CD2         0.1990   -0.3290    2.3050 ca        1 D3Y     -0.079000
      7 CG         -0.4430   -0.7680    1.1310 ca        1 D3Y     -0.262300
      8 CB         -1.5460    0.0330    0.5520 c3        1 D3Y     -0.027100
      9 CA         -2.9230   -0.5150    1.0060 c3        1 D3Y      0.054500
     10 N          -2.9700   -0.7450    2.4850 nz        1 D3Y     -0.837600
     11 C          -4.0120    0.4740    0.5880 c         1 D3Y      0.520100
     12 O          -4.5000    1.3270    1.3160 o         1 D3Y     -0.385100
     13 N8         -4.4900    0.3950   -0.8210 ny        1 D3Y     -0.642800
     14 C3'        -5.8720   -0.1970   -0.9180 c3        1 D3Y      0.075500
     15 C2'        -6.5480    0.0700   -2.2970 c3        1 D3Y      0.110100
     16 O2'        -5.5660    0.4790   -3.2210 oh        1 D3Y     -0.646800
     17 C4'        -5.8970   -1.7370   -0.7530 c3        1 D3Y      0.111100
     18 C5'        -6.2340   -2.1980    0.6710 c3        1 D3Y      0.116400
     19 O5'        -5.0110   -2.4730    1.3420 oh        1 D3Y     -0.695800
     20 O4'        -6.9110   -2.2370   -1.6130 os        1 D3Y     -0.383600
     21 C1'        -7.1410   -1.3220   -2.7160 c3        1 D3Y      0.256800
     22 N9         -8.5400   -1.2680   -2.9990 na        1 D3Y     -0.327000
     23 C8         -9.5350   -2.2710   -2.7650 cc        1 D3Y      0.421700
     24 N7        -10.6630   -2.0520   -3.4380 nd        1 D3Y     -0.491100
     25 C5        -10.4360   -0.8910   -4.2000 ca        1 D3Y     -0.232200
     26 C4         -9.0950   -0.3930   -3.9620 ca        1 D3Y      0.460800
     27 N3         -8.5570    0.7070   -4.5580 nb        1 D3Y     -0.827000
     28 C2         -9.4340    1.3020   -5.4200 ca        1 D3Y      0.721900
     29 N1        -10.6980    0.9620   -5.7390 nb        1 D3Y     -0.766000
     30 C6        -11.2500   -0.1570   -5.1330 ca        1 D3Y      0.788200
     31 N6        -12.5210   -0.5470   -5.4060 nv        1 D3Y     -0.920500
     32 H1         -0.4270   -2.2340   -0.4750 ha        1 D3Y      0.137500
     33 H2          1.5040   -3.4990    0.4370 ha        1 D3Y      0.181000
     34 H3          3.0980   -3.5360    2.1460 ho        1 D3Y      0.454000
     35 H4          1.7990   -0.6830    3.7350 ha        1 D3Y      0.181000
     36 H5         -0.1260    0.6020    2.7960 ha        1 D3Y      0.137500
     37 H6         -1.5220   -0.0190   -0.5710 hc        1 D3Y      0.093200
     38 H7         -1.4490    1.1110    0.8540 hc        1 D3Y      0.093200
     39 H8         -3.1070   -1.5290    0.5230 hx        1 D3Y      0.155700
     40 H9         -3.0850    0.1420    2.9910 hn        1 D3Y      0.489467
     41 H10        -2.0700   -1.1770    2.7700 hn        1 D3Y      0.489467
     42 H12        -4.5470    1.3490   -1.2300 hn        1 D3Y      0.491800
     43 H13        -6.4960    0.3000   -0.1160 hx        1 D3Y      0.137700
     44 H14        -7.3400    0.8620   -2.1780 h1        1 D3Y      0.130700
     45 H15        -6.0240    0.7810   -4.0260 ho        1 D3Y      0.500000
     46 H16        -4.9190   -2.1970   -1.0790 h1        1 D3Y      0.064700
     47 H17        -6.7520   -1.3950    1.2610 h1        1 D3Y      0.100200
     48 H18        -6.8990   -3.1030    0.6240 h1        1 D3Y      0.100200
     49 H19        -4.9440   -3.4320    1.4510 ho        1 D3Y      0.458000
     50 H20        -6.5590   -1.7270   -3.6020 h2        1 D3Y      0.106700
     51 H21        -9.3380   -3.1010   -2.0750 h5        1 D3Y      0.086800
     52 H22        -9.0470    2.2050   -5.9440 h5        1 D3Y      0.067100
     53 H23       -13.0810   -0.0470   -6.0570 hn        1 D3Y      0.467800
     54 H24       -12.8840   -1.3640   -4.9750 hn        1 D3Y      0.467800
     55 HN3        -3.7520   -1.3770    2.7170 hn        1 D3Y      0.489467
     56 H82        -3.8470   -0.1540   -1.4090 hn        1 D3Y      0.491800
@<TRIPOS>BOND
     1    1    2 ar  
     2    1    7 ar  
     3    1   32 1   
     4    2    3 ar  
     5    2   33 1   
     6    3    4 1   
     7    3    5 ar  
     8    4   34 1   
     9    5    6 ar  
    10    5   35 1   
    11    6    7 ar  
    12    6   36 1   
    13    7    8 1   
    14    8    9 1   
    15    8   37 1   
    16    8   38 1   
    17    9   10 1   
    18    9   11 1   
    19    9   39 1   
    20   10   40 1   
    21   10   41 1   
    22   10   55 1   
    23   11   12 2   
    24   11   13 1   
    25   13   14 1   
    26   13   42 1   
    27   13   56 1   
    28   14   15 1   
    29   14   17 1   
    30   14   43 1   
    31   15   16 1   
    32   15   21 1   
    33   15   44 1   
    34   16   45 1   
    35   17   18 1   
    36   17   20 1   
    37   17   46 1   
    38   18   19 1   
    39   18   47 1   
    40   18   48 1   
    41   19   49 1   
    42   20   21 1   
    43   21   22 1   
    44   21   50 1   
    45   22   23 1   
    46   22   26 1   
    47   23   24 2   
    48   23   51 1   
    49   24   25 1   
    50   25   26 ar  
    51   25   30 ar  
    52   26   27 ar  
    53   27   28 ar  
    54   28   29 ar  
    55   28   52 1   
    56   29   30 ar  
    57   30   31 1   
    58   31   53 1   
    59   31   54 1   
@<TRIPOS>SUBSTRUCTURE
     1 D3Y         1 TEMP              0 ****  ****    0 ROOT
