@<TRIPOS>MOLECULE
D3Y
   54    57     1     0     0
SMALL
bcc


@<TRIPOS>ATOM
      1 CD1        -5.5730    1.9590    0.2040 ca        1 D3Y     -0.092000
      2 CE1        -6.8780    2.3540    0.4710 ca        1 D3Y     -0.181500
      3 CZ         -7.9400    1.6170   -0.0810 ca        1 D3Y      0.128100
      4 OH         -9.2100    2.0530    0.2190 oh        1 D3Y     -0.495100
      5 CE2        -7.6930    0.5000   -0.8900 ca        1 D3Y     -0.181500
      6 CD2        -6.3770    0.1220   -1.1460 ca        1 D3Y     -0.092000
      7 CG         -5.3090    0.8430   -0.6030 ca        1 D3Y     -0.126300
      8 CB         -3.9080    0.4370   -0.8850 c3        1 D3Y     -0.071100
      9 CA         -3.3800   -0.5480    0.1790 c3        1 D3Y      0.113500
     10 N          -4.1250   -1.7770    0.3390 n3        1 D3Y     -0.898800
     11 C          -1.9260   -0.8790   -0.2220 c         1 D3Y      0.667100
     12 O          -1.6750   -1.4340   -1.3120 o         1 D3Y     -0.622100
     13 N8         -0.9270   -0.5170    0.6540 n         1 D3Y     -0.547900
     14 C3'         0.4550   -0.7690    0.3720 c3        1 D3Y      0.084700
     15 C2'         1.4490    0.2670    0.9700 c3        1 D3Y      0.105100
     16 O2'         0.9130    0.8740    2.1280 oh        1 D3Y     -0.593800
     17 C4'         0.9770   -2.1470    0.8730 c3        1 D3Y      0.110100
     18 C5'         1.0890   -3.1330   -0.2890 c3        1 D3Y      0.108400
     19 O5'         1.1360   -4.4340    0.2720 oh        1 D3Y     -0.593800
     20 O4'         2.2670   -1.9520    1.4720 os        1 D3Y     -0.395600
     21 C1'         2.6880   -0.5920    1.3860 c3        1 D3Y      0.228800
     22 N9          3.8070   -0.4750    0.4770 na        1 D3Y     -0.293000
     23 C8          4.5180   -1.5130   -0.1740 cc        1 D3Y      0.425700
     24 N7          5.5820   -1.0790   -0.8650 nd        1 D3Y     -0.549100
     25 C5          5.6080    0.3100   -0.6650 ca        1 D3Y     -0.227200
     26 C4          4.4980    0.7120    0.1890 ca        1 D3Y      0.449800
     27 N3          4.2610    2.0020    0.5760 nb        1 D3Y     -0.759000
     28 C2          5.1760    2.8670    0.0760 ca        1 D3Y      0.688900
     29 N1          6.2500    2.6430   -0.7250 nb        1 D3Y     -0.796000
     30 C6          6.4900    1.3470   -1.1230 ca        1 D3Y      0.764200
     31 N6          7.5350    1.0470   -1.9530 nh        1 D3Y     -0.957500
     32 H1         -4.7350    2.5340    0.6290 ha        1 D3Y      0.135000
     33 H2         -7.0940    3.2280    1.1010 ha        1 D3Y      0.144500
     34 H3         -9.8400    1.4670   -0.2260 ho        1 D3Y      0.421000
     35 H4         -8.5290   -0.0690   -1.3220 ha        1 D3Y      0.144500
     36 H5         -6.1780   -0.7490   -1.7890 ha        1 D3Y      0.135000
     37 H6         -3.8350   -0.0420   -1.8980 hc        1 D3Y      0.066700
     38 H7         -3.2410    1.3390   -0.8920 hc        1 D3Y      0.066700
     39 H8         -3.4130   -0.0210    1.1800 h1        1 D3Y      0.072700
     40 H9         -5.1000   -1.5690    0.4510 hn        1 D3Y      0.363300
     41 H10        -4.0040   -2.3720   -0.4600 hn        1 D3Y      0.363300
     42 H12        -1.1500   -0.1710    1.5580 hn        1 D3Y      0.336500
     43 H13         0.5860   -0.7340   -0.7550 h1        1 D3Y      0.094700
     44 H14         1.6990    1.0450    0.2010 h1        1 D3Y      0.085700
     45 H15         1.4650    1.6470    2.3130 ho        1 D3Y      0.428000
     46 H16         0.3420   -2.5900    1.6890 h1        1 D3Y      0.101700
     47 H17         0.1880   -3.0210   -0.9540 h1        1 D3Y      0.046700
     48 H18         2.0250   -2.9410   -0.8790 h1        1 D3Y      0.046700
     49 H19         1.0320   -5.0520   -0.4610 ho        1 D3Y      0.404000
     50 H20         3.0370   -0.3100    2.4260 h2        1 D3Y      0.102700
     51 H21         4.1860   -2.5570   -0.0810 h5        1 D3Y      0.090800
     52 H22         5.0310    3.9310    0.3650 h5        1 D3Y      0.050100
     53 H23         7.7190    0.0980   -2.1640 hn        1 D3Y      0.449800
     54 H24         8.1790    1.7460   -2.2280 hn        1 D3Y      0.449800
@<TRIPOS>BOND
     1    1    2 ar  
     2    1    7 ar  
     3    1   32 1   
     4    2    3 ar  
     5    2   33 1   
     6    3    4 1   
     7    3    5 ar  
     8    4   34 1   
     9    5    6 ar  
    10    5   35 1   
    11    6    7 ar  
    12    6   36 1   
    13    7    8 1   
    14    8    9 1   
    15    8   37 1   
    16    8   38 1   
    17    9   10 1   
    18    9   11 1   
    19    9   39 1   
    20   10   40 1   
    21   10   41 1   
    22   11   12 2   
    23   11   13 1   
    24   13   14 1   
    25   13   42 1   
    26   14   15 1   
    27   14   17 1   
    28   14   43 1   
    29   15   16 1   
    30   15   21 1   
    31   15   44 1   
    32   16   45 1   
    33   17   18 1   
    34   17   20 1   
    35   17   46 1   
    36   18   19 1   
    37   18   47 1   
    38   18   48 1   
    39   19   49 1   
    40   20   21 1   
    41   21   22 1   
    42   21   50 1   
    43   22   23 1   
    44   22   26 1   
    45   23   24 2   
    46   23   51 1   
    47   24   25 1   
    48   25   26 ar  
    49   25   30 ar  
    50   26   27 ar  
    51   27   28 ar  
    52   28   29 ar  
    53   28   52 1   
    54   29   30 ar  
    55   30   31 1   
    56   31   53 1   
    57   31   54 1   
@<TRIPOS>SUBSTRUCTURE
     1 D3Y         1 TEMP              0 ****  ****    0 ROOT
