@<TRIPOS>MOLECULE
D3Y
   54    48     1     0     0
SMALL
bcc


@<TRIPOS>ATOM
      1 CD1         5.5960    0.8620    1.8900 c1        1 D3Y     -0.095000
      2 CE1         6.8980    0.7160    2.3670 c1        1 D3Y     -0.160000
      3 CZ          7.1170    0.3880    3.7010 c1        1 D3Y      0.081000
      4 OH          8.4100    0.2180    4.1700 o         1 D3Y     -0.252000
      5 CE2         6.0440    0.2080    4.5470 c2        1 D3Y     -0.215000
      6 CD2         4.7380    0.3560    4.0610 c1        1 D3Y     -0.064000
      7 CG          4.5260    0.6820    2.7360 c1        1 D3Y     -0.114000
      8 CB          3.0750    1.0390    2.2430 c3        1 D3Y     -0.113000
      9 CA          2.4810   -0.1550    1.5120 c3        1 D3Y     -0.034000
     10 N           2.9670   -1.3820    2.1160 n3        1 D3Y     -0.318000
     11 C           0.9580   -0.1060    1.6040 c1        1 D3Y      0.248000
     12 O           0.4340    0.2480    2.6150 o         1 D3Y     -0.371000
     13 N8          0.1040   -0.5800    0.4320 n2        1 D3Y     -0.341000
     14 C3'        -1.3970   -0.5980    0.5580 c3        1 D3Y     -0.002000
     15 C2'        -2.0710    0.3700   -0.5830 c3        1 D3Y     -0.018000
     16 O2'        -1.2440    1.5870   -0.7740 oh        1 D3Y     -0.328000
     17 C4'        -1.8410   -1.7720    0.3420 c3        1 D3Y     -0.032000
     18 C5'        -3.0650   -2.0090    1.1260 c3        1 D3Y     -0.045000
     19 O5'        -3.7360   -3.0620    0.6100 oh        1 D3Y     -0.321000
     20 O4'        -2.1750   -1.7900   -1.2590 os        1 D3Y     -0.257000
     21 C1'        -2.1050   -0.3370   -1.7040 c3        1 D3Y      0.135000
     22 N9         -3.2740    0.0120   -2.4860 n3        1 D3Y     -0.216000
     23 C8         -4.3930    0.4000   -1.8320 c1        1 D3Y     -0.026000
     24 N7         -5.2300    0.9860   -2.7400 n2        1 D3Y     -0.123000
     25 C5         -4.6170    0.9560   -3.9650 c1        1 D3Y     -0.235000
     26 C4         -3.4140    0.3580   -3.8150 c1        1 D3Y      0.055000
     27 N3         -2.6220    0.1210   -4.9170 n1        1 D3Y     -0.239000
     28 C2         -3.0560    0.4920   -6.1730 c1        1 D3Y      0.027000
     29 N1         -4.2760    1.0980   -6.3260 n1        1 D3Y     -0.270000
     30 C6         -5.0570    1.3330   -5.2410 c1        1 D3Y      0.245000
     31 N6         -6.3340    1.8970   -5.5930 n2        1 D3Y     -0.357000
     32 H1          5.4430    1.0870    0.9680 ha        1 D3Y      0.132000
     33 H2          7.6360    0.8430    1.7800 ha        1 D3Y      0.150000
     34 H3          8.6090   -0.6760    4.2000 ho        1 D3Y      0.218000
     35 H4          6.1920   -0.0220    5.4870 ha        1 D3Y      0.135000
     36 H5          3.9620    0.2270    4.6700 ha        1 D3Y      0.144000
     37 H6          3.1180    1.8700    1.5880 hc        1 D3Y      0.100000
     38 H7          2.5320    1.2550    2.9910 hc        1 D3Y      0.100000
     39 H8          2.7530   -0.1260    0.5650 h1        1 D3Y      0.123000
     40 H9          3.1410   -2.0180    1.4420 hn        1 D3Y      0.157000
     41 H10         2.2970   -1.7320    2.7270 hn        1 D3Y      0.157000
     42 H12         0.5090   -0.8760   -0.3520 hn        1 D3Y      0.231000
     43 H13        -1.6680   -0.2910    1.4700 h1        1 D3Y      0.148000
     44 H14        -3.0100    0.6270   -0.3060 h1        1 D3Y      0.119000
     45 H15        -1.4850    2.2300   -0.1380 ho        1 D3Y      0.238000
     46 H16        -1.1460   -2.4510    0.5620 h1        1 D3Y      0.132000
     47 H17        -2.8060   -2.2130    2.1330 h1        1 D3Y      0.101000
     48 H18        -3.6300   -1.2150    1.0900 h1        1 D3Y      0.101000
     49 H19        -3.9500   -3.6220    1.2600 ho        1 D3Y      0.207000
     50 H20        -1.3290   -0.1910   -2.2010 h2        1 D3Y      0.145000
     51 H21        -4.6130    0.2060   -0.8630 DU        1 D3Y      0.236000
     52 H22        -2.5100    0.3270   -6.9300 ha        1 D3Y      0.187000
     53 H23        -7.0350    1.9440   -4.9400 hn        1 D3Y      0.246500
     54 H24        -6.4540    2.2780   -6.4270 hn        1 D3Y      0.246500
@<TRIPOS>BOND
     1    1    7 1   
     2    1   32 1   
     3    2    3 1   
     4    2   33 1   
     5    3    5 1   
     6    4   34 1   
     7    5    6 1   
     8    5   35 1   
     9    6   36 1   
    10    7    8 1   
    11    8    9 1   
    12    8   37 1   
    13    8   38 1   
    14    9   10 1   
    15    9   11 1   
    16    9   39 1   
    17   10   40 1   
    18   10   41 1   
    19   11   12 1   
    20   13   14 1   
    21   13   42 1   
    22   14   15 1   
    23   14   17 1   
    24   14   43 1   
    25   15   16 1   
    26   15   21 1   
    27   15   44 1   
    28   16   45 1   
    29   17   18 1   
    30   17   20 1   
    31   17   46 1   
    32   18   19 1   
    33   18   47 1   
    34   18   48 1   
    35   19   49 1   
    36   20   21 1   
    37   21   22 1   
    38   21   50 1   
    39   22   23 1   
    40   22   26 1   
    41   23   24 1   
    42   24   25 1   
    43   25   30 1   
    44   26   27 1   
    45   28   29 1   
    46   28   52 1   
    47   31   53 1   
    48   31   54 1   
@<TRIPOS>SUBSTRUCTURE
     1 D3Y         1 TEMP              0 ****  ****    0 ROOT
