@<TRIPOS>MOLECULE
D3Z
   28    29     1     0     0
SMALL
bcc


@<TRIPOS>ATOM
      1 N1          0.6450    0.5540   -0.2280 n         1 D3Z     -0.376000
      2 C2          0.8730   -0.4560    0.7490 c         1 D3Z      0.811500
      3 N3          2.1830   -0.9190    0.9470 n         1 D3Z     -0.586500
      4 C4          3.2800   -0.4750    0.1870 c         1 D3Z      0.714700
      5 C5          2.9800    0.5290   -0.8400 cc        1 D3Z     -0.314200
      6 C6          1.7120    0.9740   -1.0190 cd        1 D3Z      0.054600
      7 O2         -0.0500   -0.9150    1.4560 o         1 D3Z     -0.645500
      8 O4          4.4060   -0.9450    0.4200 o         1 D3Z     -0.606500
      9 C1'        -0.7000    0.9680   -0.6100 c3        1 D3Z      0.311500
     10 C2'        -1.6600    1.3130    0.5650 c3        1 D3Z      0.112100
     11 O2'        -1.8100    2.7200    0.5440 oh        1 D3Z     -0.598800
     12 C3'        -2.9830    0.5990    0.2030 c3        1 D3Z      0.086100
     13 C4'        -2.5960   -0.4460   -0.8610 c3        1 D3Z      0.118100
     14 O3'        -3.5280    0.0880    1.4010 oh        1 D3Z     -0.585800
     15 O4'        -1.3340   -0.0350   -1.4160 os        1 D3Z     -0.422600
     16 C5'        -2.4930   -1.8620   -0.3410 c3        1 D3Z     -0.131100
     17 HN3         2.3150   -1.6100    1.6540 hn        1 D3Z      0.352500
     18 H5          3.8240    0.8880   -1.4420 ha        1 D3Z      0.180000
     19 H6          1.4640    1.7190   -1.8010 h4        1 D3Z      0.167000
     20 H1'        -0.5920    1.8760   -1.2820 h2        1 D3Z      0.099700
     21 H2'        -1.2900    0.9610    1.5650 h1        1 D3Z      0.109700
     22 HO2'       -2.3460    2.9480    1.3140 ho        1 D3Z      0.423000
     23 H3'        -3.7140    1.3380   -0.2330 h1        1 D3Z      0.061700
     24 H4'        -3.3070   -0.4030   -1.7340 h1        1 D3Z      0.068700
     25 HO3'       -4.0570   -0.6880    1.1780 ho        1 D3Z      0.415000
     26 H5'        -3.5140   -2.2900   -0.1950 hc        1 D3Z      0.060367
     27 H5'A       -1.9430   -2.4930   -1.0800 hc        1 D3Z      0.060367
     28 H5'B       -1.9400   -1.8860    0.6310 hc        1 D3Z      0.060367
@<TRIPOS>BOND
     1    1    2 1   
     2    1    6 1   
     3    1    9 1   
     4    2    3 1   
     5    2    7 2   
     6    3    4 1   
     7    3   17 1   
     8    4    5 1   
     9    4    8 2   
    10    5    6 2   
    11    5   18 1   
    12    6   19 1   
    13    9   10 1   
    14    9   15 1   
    15    9   20 1   
    16   10   11 1   
    17   10   12 1   
    18   10   21 1   
    19   11   22 1   
    20   12   13 1   
    21   12   14 1   
    22   12   23 1   
    23   13   15 1   
    24   13   16 1   
    25   13   24 1   
    26   14   25 1   
    27   16   26 1   
    28   16   27 1   
    29   16   28 1   
@<TRIPOS>SUBSTRUCTURE
     1 D3Z         1 TEMP              0 ****  ****    0 ROOT
