@<TRIPOS>MOLECULE
D3Z
   28    29     1     0     0
SMALL
bcc


@<TRIPOS>ATOM
      1 N1         -0.3700   -0.3650    0.0740 n         1 D3Z     -0.377000
      2 C2          0.8470   -1.1090    0.0560 c         1 D3Z      0.808500
      3 N3          1.8060   -0.8640    1.0510 n         1 D3Z     -0.587500
      4 C4          1.6660    0.1380    2.0270 c         1 D3Z      0.713700
      5 C5          0.4280    0.9230    1.9590 cc        1 D3Z     -0.307200
      6 C6         -0.4940    0.6750    0.9980 cd        1 D3Z      0.045600
      7 O2          1.0640   -2.0090   -0.7840 o         1 D3Z     -0.642500
      8 O4          2.5690    0.2970    2.8640 o         1 D3Z     -0.603500
      9 C1'        -1.2950   -0.3670   -1.0550 c3        1 D3Z      0.276500
     10 C2'        -1.6570   -1.7570   -1.6620 c3        1 D3Z      0.070100
     11 O2'        -2.9810   -2.0990   -1.3080 oh        1 D3Z     -0.592800
     12 C3'        -1.6250   -1.5140   -3.1900 c3        1 D3Z      0.123100
     13 C4'        -0.7470   -0.2580   -3.3650 c3        1 D3Z      0.153100
     14 O3'        -1.0440   -2.5950   -3.8850 oh        1 D3Z     -0.574800
     15 O4'        -0.8100    0.4620   -2.1180 os        1 D3Z     -0.428600
     16 C5'         0.6880   -0.5630   -3.7240 c3        1 D3Z     -0.114100
     17 HN3         2.6360   -1.4180    1.0220 hn        1 D3Z      0.353500
     18 H5          0.3010    1.7110    2.7120 ha        1 D3Z      0.181000
     19 H6         -1.4180    1.2790    0.9130 h4        1 D3Z      0.166000
     20 H1'        -2.2490    0.1300   -0.6920 h2        1 D3Z      0.086700
     21 H2'        -0.9360   -2.5680   -1.3770 h1        1 D3Z      0.109700
     22 HO2'       -2.9530   -2.4460   -0.4080 ho        1 D3Z      0.413000
     23 H3'        -2.6680   -1.3270   -3.5660 h1        1 D3Z      0.065700
     24 H4'        -1.2070    0.4430   -4.1140 h1        1 D3Z      0.073700
     25 HO3'       -1.6230   -3.3550   -3.7400 ho        1 D3Z      0.413000
     26 H5'         0.7180   -1.0680   -4.7200 hc        1 D3Z      0.058700
     27 H5'A        1.2790    0.3820   -3.7660 hc        1 D3Z      0.058700
     28 H5'B        1.1420   -1.2460   -2.9650 hc        1 D3Z      0.058700
@<TRIPOS>BOND
     1    1    2 1   
     2    1    6 1   
     3    1    9 1   
     4    2    3 1   
     5    2    7 2   
     6    3    4 1   
     7    3   17 1   
     8    4    5 1   
     9    4    8 2   
    10    5    6 2   
    11    5   18 1   
    12    6   19 1   
    13    9   10 1   
    14    9   15 1   
    15    9   20 1   
    16   10   11 1   
    17   10   12 1   
    18   10   21 1   
    19   11   22 1   
    20   12   13 1   
    21   12   14 1   
    22   12   23 1   
    23   13   15 1   
    24   13   16 1   
    25   13   24 1   
    26   14   25 1   
    27   16   26 1   
    28   16   27 1   
    29   16   28 1   
@<TRIPOS>SUBSTRUCTURE
     1 D3Z         1 TEMP              0 ****  ****    0 ROOT
