@<TRIPOS>MOLECULE
D3Z
   28    29     1     0     0
SMALL
bcc


@<TRIPOS>ATOM
      1 N1          0.4450    1.1610    0.4810 n         1 D3Z     -0.377000
      2 C2          1.8100    0.8150    0.8730 c         1 D3Z      0.808500
      3 N3          2.4320    1.4700    2.0370 n         1 D3Z     -0.587500
      4 C4          1.6900    2.3940    2.8110 c         1 D3Z      0.713700
      5 C5          0.3180    2.7420    2.4200 cc        1 D3Z     -0.307200
      6 C6         -0.3020    2.0880    1.2510 cd        1 D3Z      0.045600
      7 O2          2.4200   -0.0450    0.2590 o         1 D3Z     -0.642500
      8 O4          2.2000    2.9280    3.7680 o         1 D3Z     -0.603500
      9 C1'        -0.1090    0.6210   -0.7260 c3        1 D3Z      0.276500
     10 C2'        -1.4370   -0.1570   -0.4160 c3        1 D3Z      0.070100
     11 O2'        -2.5070    0.5210   -0.9120 oh        1 D3Z     -0.592800
     12 C3'        -1.2960   -1.4890   -1.1090 c3        1 D3Z      0.123100
     13 C4'        -0.2330   -1.3520   -1.9020 c3        1 D3Z      0.153100
     14 O3'        -1.0630   -2.5610   -0.1170 oh        1 D3Z     -0.574800
     15 O4'         0.6870   -0.2550   -1.2270 os        1 D3Z     -0.428600
     16 C5'         0.5140   -2.6630   -2.0050 c3        1 D3Z     -0.114100
     17 HN3         3.2810    1.2540    2.2790 hn        1 D3Z      0.353500
     18 H5         -0.1930    3.3780    2.9510 ha        1 D3Z      0.181000
     19 H6         -1.2150    2.3190    0.9890 h4        1 D3Z      0.166000
     20 H1'        -0.2790    1.3390   -1.3750 h2        1 D3Z      0.086700
     21 H2'        -1.5360   -0.2860    0.5490 h1        1 D3Z      0.109700
     22 HO2'       -3.2230    0.3510   -0.4130 ho        1 D3Z      0.413000
     23 H3'        -2.0970   -1.6830   -1.6420 h1        1 D3Z      0.065700
     24 H4'        -0.5130   -1.0550   -2.7900 h1        1 D3Z      0.073700
     25 HO3'       -1.8310   -2.9970    0.0370 ho        1 D3Z      0.413000
     26 H5'         0.9010   -2.8950   -1.1210 hc        1 D3Z      0.059033
     27 H5'A        1.2370   -2.5770   -2.6670 hc        1 D3Z      0.059033
     28 H5'B       -0.1000   -3.3660   -2.2850 hc        1 D3Z      0.059033
@<TRIPOS>BOND
     1    1    2 1   
     2    1    6 1   
     3    1    9 1   
     4    2    3 1   
     5    2    7 2   
     6    3    4 1   
     7    3   17 1   
     8    4    5 1   
     9    4    8 2   
    10    5    6 2   
    11    5   18 1   
    12    6   19 1   
    13    9   10 1   
    14    9   15 1   
    15    9   20 1   
    16   10   11 1   
    17   10   12 1   
    18   10   21 1   
    19   11   22 1   
    20   12   13 1   
    21   12   14 1   
    22   12   23 1   
    23   13   15 1   
    24   13   16 1   
    25   13   24 1   
    26   14   25 1   
    27   16   26 1   
    28   16   27 1   
    29   16   28 1   
@<TRIPOS>SUBSTRUCTURE
     1 D3Z         1 TEMP              0 ****  ****    0 ROOT
