@<TRIPOS>MOLECULE
D3Z
   28    29     1     0     0
SMALL
bcc


@<TRIPOS>ATOM
      1 N1         -0.3660   -0.3850    0.0800 n         1 D3Z     -0.377000
      2 C2          0.8600   -1.1130    0.0420 c         1 D3Z      0.808500
      3 N3          1.8220   -0.8700    1.0340 n         1 D3Z     -0.587500
      4 C4          1.6760    0.1160    2.0260 c         1 D3Z      0.713700
      5 C5          0.4280    0.8860    1.9780 cc        1 D3Z     -0.307200
      6 C6         -0.4970    0.6400    1.0190 cd        1 D3Z      0.045600
      7 O2          1.0830   -1.9970   -0.8120 o         1 D3Z     -0.642500
      8 O4          2.5830    0.2750    2.8590 o         1 D3Z     -0.603500
      9 C1'        -1.2990   -0.3820   -1.0440 c3        1 D3Z      0.276500
     10 C2'        -1.6470   -1.7670   -1.6690 c3        1 D3Z      0.070100
     11 O2'        -2.9650   -2.1320   -1.3110 oh        1 D3Z     -0.592800
     12 C3'        -1.6280   -1.5010   -3.1920 c3        1 D3Z      0.123100
     13 C4'        -0.7680   -0.2310   -3.3540 c3        1 D3Z      0.153100
     14 O3'        -1.0380   -2.5640   -3.9070 oh        1 D3Z     -0.574800
     15 O4'        -0.8320    0.4690   -2.0970 os        1 D3Z     -0.428600
     16 C5'         0.6680   -0.5130   -3.7280 c3        1 D3Z     -0.114100
     17 HN3         2.6590   -1.4120    0.9920 hn        1 D3Z      0.353500
     18 H5          0.2960    1.6610    2.7440 ha        1 D3Z      0.181000
     19 H6         -1.4300    1.2340    0.9500 h4        1 D3Z      0.166000
     20 H1'        -2.2570    0.0970   -0.6660 h2        1 D3Z      0.086700
     21 H2'        -0.9140   -2.5730   -1.4000 h1        1 D3Z      0.109700
     22 HO2'       -2.9250   -2.4910   -0.4160 ho        1 D3Z      0.413000
     23 H3'        -2.6760   -1.3220   -3.5590 h1        1 D3Z      0.065700
     24 H4'        -1.2420    0.4750   -4.0910 h1        1 D3Z      0.073700
     25 HO3'       -1.6060   -3.3330   -3.7700 ho        1 D3Z      0.413000
     26 H5'         1.1370   -1.2010   -2.9820 hc        1 D3Z      0.059033
     27 H5'A        0.6980   -1.0020   -4.7310 hc        1 D3Z      0.059033
     28 H5'B        1.2470    0.4400   -3.7590 hc        1 D3Z      0.059033
@<TRIPOS>BOND
     1    1    2 1   
     2    1    6 1   
     3    1    9 1   
     4    2    3 1   
     5    2    7 2   
     6    3    4 1   
     7    3   17 1   
     8    4    5 1   
     9    4    8 2   
    10    5    6 2   
    11    5   18 1   
    12    6   19 1   
    13    9   10 1   
    14    9   15 1   
    15    9   20 1   
    16   10   11 1   
    17   10   12 1   
    18   10   21 1   
    19   11   22 1   
    20   12   13 1   
    21   12   14 1   
    22   12   23 1   
    23   13   15 1   
    24   13   16 1   
    25   13   24 1   
    26   14   25 1   
    27   16   26 1   
    28   16   27 1   
    29   16   28 1   
@<TRIPOS>SUBSTRUCTURE
     1 D3Z         1 TEMP              0 ****  ****    0 ROOT
