@<TRIPOS>MOLECULE
D41
   42    44     1     0     0
SMALL
bcc


@<TRIPOS>ATOM
      1 O          -0.0690    0.4530    0.2410 o         1 D41     -0.484100
      2 C13         1.1280    0.3220   -0.0050 c         1 D41      0.591700
      3 N2          1.9300    0.0860    1.2770 n4        1 D41     -0.761400
      4 C12         1.8560    0.3450   -1.2370 ca        1 D41     -0.427900
      5 C11         3.2600    0.2520   -1.2910 ca        1 D41      0.046000
      6 C14         1.1460    0.4640   -2.5140 ca        1 D41      0.793200
      7 N3         -0.1990    0.6550   -2.5720 nh        1 D41     -0.925500
      8 N4          1.8020    0.3750   -3.7140 nb        1 D41     -0.723000
      9 C15         3.1520    0.2420   -3.7330 ca        1 D41      0.783300
     10 N5          3.7900    0.0880   -4.9640 nb        1 D41     -0.691000
     11 C4          5.1200   -0.0510   -4.9620 ca        1 D41      0.750300
     12 C1          5.8540   -0.2460   -6.3030 c3        1 D41     -0.085300
     13 C3          4.8830   -0.3620   -7.4710 c3        1 D41     -0.090767
     14 C2          6.7570    0.9610   -6.5260 c3        1 D41     -0.090767
     15 C           6.6850   -1.5200   -6.2230 c3        1 D41     -0.090767
     16 C10         3.9330    0.2420   -2.4950 ca        1 D41     -0.374600
     17 C5          5.3820    0.1690   -2.6440 ca        1 D41      0.605800
     18 N           5.9490   -0.0080   -3.8270 nb        1 D41     -0.723000
     19 C6          6.2220    0.3020   -1.4600 cc        1 D41     -0.248800
     20 N1          7.4340   -0.3810   -1.3000 na        1 D41     -0.128100
     21 C9          8.0170    0.0170   -0.1140 cc        1 D41     -0.107300
     22 C8          7.1860    0.9750    0.5030 cd        1 D41     -0.207000
     23 C7          6.0580    1.1620   -0.3470 cd        1 D41     -0.172000
     24 H21N        2.4370   -0.7990    1.2160 hn        1 D41      0.464467
     25 H22N        2.5990    0.8460    1.4190 hn        1 D41      0.464467
     26 H11         3.8650    0.1760   -0.3700 ha        1 D41      0.137000
     27 H31N       -0.7490    0.7140   -1.7480 hn        1 D41      0.472300
     28 H32N       -0.6590    0.7250   -3.4540 hn        1 D41      0.472300
     29 H31C        4.2730    0.5670   -7.5800 hc        1 D41      0.051478
     30 H32C        5.4630   -0.5150   -8.4130 hc        1 D41      0.051478
     31 H33C        4.1960   -1.2310   -7.3340 hc        1 D41      0.051478
     32 H21C        7.5560    1.0190   -5.7480 hc        1 D41      0.051478
     33 H22C        7.2460    0.8720   -7.5260 hc        1 D41      0.051478
     34 H23C        6.1610    1.9040   -6.5060 hc        1 D41      0.051478
     35 HC1         6.0440   -2.3880   -5.9390 hc        1 D41      0.051478
     36 HC2         7.5140   -1.4190   -5.4830 hc        1 D41      0.051478
     37 HC3         7.1360   -1.7260   -7.2250 hc        1 D41      0.051478
     38 H1          7.8240   -0.9960   -1.9710 hn        1 D41      0.322700
     39 H7          5.2610    1.8860   -0.2080 ha        1 D41      0.144000
     40 H9          8.9720   -0.3950    0.2220 h4        1 D41      0.189000
     41 H8          7.3890    1.4890    1.4380 ha        1 D41      0.168000
     42 H23         1.2820    0.0530    2.0750 hn        1 D41      0.464467
@<TRIPOS>BOND
     1    1    2 2   
     2    2    3 1   
     3    2    4 1   
     4    3   24 1   
     5    3   25 1   
     6    3   42 1   
     7    4    5 ar  
     8    4    6 ar  
     9    5   16 ar  
    10    5   26 1   
    11    6    7 1   
    12    6    8 ar  
    13    7   27 1   
    14    7   28 1   
    15    8    9 ar  
    16    9   10 ar  
    17    9   16 ar  
    18   10   11 ar  
    19   11   12 1   
    20   11   18 ar  
    21   12   13 1   
    22   12   14 1   
    23   12   15 1   
    24   13   29 1   
    25   13   30 1   
    26   13   31 1   
    27   14   32 1   
    28   14   33 1   
    29   14   34 1   
    30   15   35 1   
    31   15   36 1   
    32   15   37 1   
    33   16   17 ar  
    34   17   18 ar  
    35   17   19 1   
    36   19   20 1   
    37   19   23 2   
    38   20   21 1   
    39   20   38 1   
    40   21   22 2   
    41   21   40 1   
    42   22   23 1   
    43   22   41 1   
    44   23   39 1   
@<TRIPOS>SUBSTRUCTURE
     1 D41         1 TEMP              0 ****  ****    0 ROOT
