@<TRIPOS>MOLECULE
D41
   42    44     1     0     0
SMALL
bcc


@<TRIPOS>ATOM
      1 O          -0.0710    0.2910    0.2490 o         1 D41     -0.484100
      2 C13         1.1310    0.2040    0.0010 c         1 D41      0.591700
      3 N2          1.9420    0.0010    1.2830 nz        1 D41     -0.761400
      4 C12         1.8550    0.2520   -1.2320 ca        1 D41     -0.427900
      5 C11         3.2620    0.2100   -1.2870 ca        1 D41      0.046000
      6 C14         1.1400    0.3420   -2.5080 ca        1 D41      0.793200
      7 N3         -0.2110    0.4830   -2.5640 nv        1 D41     -0.925500
      8 N4          1.7980    0.2750   -3.7090 nb        1 D41     -0.723000
      9 C15         3.1510    0.1910   -3.7290 ca        1 D41      0.783300
     10 N5          3.7930    0.0590   -4.9600 nb        1 D41     -0.691000
     11 C4          5.1270   -0.0320   -4.9600 ca        1 D41      0.750300
     12 C1          5.8670   -0.2020   -6.3010 c3        1 D41     -0.085300
     13 C3          4.8990   -0.3550   -7.4680 c3        1 D41     -0.090767
     14 C2          6.7260    1.0360   -6.5260 c3        1 D41     -0.090767
     15 C           6.7420   -1.4460   -6.2210 c3        1 D41     -0.090767
     16 C10         3.9330    0.2220   -2.4920 ca        1 D41     -0.374600
     17 C5          5.3840    0.2020   -2.6430 ca        1 D41      0.605800
     18 N           5.9560    0.0430   -3.8250 nb        1 D41     -0.723000
     19 C6          6.2200    0.3680   -1.4590 cc        1 D41     -0.248800
     20 N1          7.4560   -0.2710   -1.3000 na        1 D41     -0.128100
     21 C9          8.0250    0.1500   -0.1150 cc        1 D41     -0.107300
     22 C8          7.1600    1.0780    0.5010 cd        1 D41     -0.207000
     23 C7          6.0260    1.2230   -0.3480 cd        1 D41     -0.172000
     24 H21N        1.2970   -0.0550    2.0810 hn        1 D41      0.464467
     25 H22N        2.4810   -0.8660    1.2230 hn        1 D41      0.464467
     26 H11         3.8700    0.1570   -0.3660 ha        1 D41      0.137000
     27 H31N       -0.6740    0.5350   -3.4470 hn        1 D41      0.472300
     28 H32N       -0.7620    0.5240   -1.7400 hn        1 D41      0.472300
     29 H31C        4.2570    0.5510   -7.5770 hc        1 D41      0.051367
     30 H32C        5.4840   -0.4880   -8.4110 hc        1 D41      0.051367
     31 H33C        4.2440   -1.2480   -7.3290 hc        1 D41      0.051367
     32 H21C        6.0960    1.9570   -6.5070 hc        1 D41      0.051367
     33 H22C        7.5230    1.1230   -5.7500 hc        1 D41      0.051367
     34 H23C        7.2170    0.9620   -7.5280 hc        1 D41      0.051367
     35 HC1         7.5680   -1.3150   -5.4810 hc        1 D41      0.051367
     36 HC2         7.2000   -1.6370   -7.2230 hc        1 D41      0.051367
     37 HC3         6.1330   -2.3360   -5.9340 hc        1 D41      0.051367
     38 H1          7.8680   -0.8720   -1.9700 hn        1 D41      0.322700
     39 H7          5.2030    1.9170   -0.2100 ha        1 D41      0.144000
     40 H9          8.9950   -0.2260    0.2200 h4        1 D41      0.189000
     41 H8          7.3460    1.6010    1.4350 ha        1 D41      0.168000
     42 H23         2.5820    0.7850    1.4230 hn        1 D41      0.464467
@<TRIPOS>BOND
     1    1    2 2   
     2    2    3 1   
     3    2    4 1   
     4    3   24 1   
     5    3   25 1   
     6    3   42 1   
     7    4    5 ar  
     8    4    6 ar  
     9    5   16 ar  
    10    5   26 1   
    11    6    7 1   
    12    6    8 ar  
    13    7   27 1   
    14    7   28 1   
    15    8    9 ar  
    16    9   10 ar  
    17    9   16 ar  
    18   10   11 ar  
    19   11   12 1   
    20   11   18 ar  
    21   12   13 1   
    22   12   14 1   
    23   12   15 1   
    24   13   29 1   
    25   13   30 1   
    26   13   31 1   
    27   14   32 1   
    28   14   33 1   
    29   14   34 1   
    30   15   35 1   
    31   15   36 1   
    32   15   37 1   
    33   16   17 ar  
    34   17   18 ar  
    35   17   19 1   
    36   19   20 1   
    37   19   23 2   
    38   20   21 1   
    39   20   38 1   
    40   21   22 2   
    41   21   40 1   
    42   22   23 1   
    43   22   41 1   
    44   23   39 1   
@<TRIPOS>SUBSTRUCTURE
     1 D41         1 TEMP              0 ****  ****    0 ROOT
