@<TRIPOS>MOLECULE
D42
   56    60     1     0     0
SMALL
bcc


@<TRIPOS>ATOM
      1 C1         -0.7720    0.1860    1.7730 c3        1 D42      0.180800
      2 C2          0.3670    1.1600    1.3850 c3        1 D42      0.100300
      3 N3          1.6830    0.4700    1.4160 n3        1 D42     -0.512400
      4 C4          1.6690   -0.7610    0.5880 c3        1 D42      0.100300
      5 C5          0.4950   -1.6880    0.9890 c3        1 D42      0.180800
      6 N6         -0.7730   -0.9880    0.9240 n3        1 D42     -0.747600
      7 C15        -1.9280   -1.8410    1.0910 c3        1 D42      0.155100
      8 N19         2.7660    1.3520    1.0620 n4        1 D42     -0.440600
      9 C20         3.9250    1.1350    2.0080 c         1 D42      0.525100
     10 N21         3.6640    1.3280    3.4670 n4        1 D42     -0.482200
     11 C22         4.5180    2.3810    4.0380 ca        1 D42     -0.035400
     12 C23         5.7380    2.0670    4.6750 ca        1 D42     -0.101000
     13 C24         6.4710    3.0880    5.2770 ca        1 D42     -0.065000
     14 C25         6.0310    4.4220    5.2720 ca        1 D42     -0.032000
     15 C26         4.8350    4.7230    4.6360 ca        1 D42     -0.033500
     16 C27         4.0750    3.7010    3.9940 ca        1 D42     -0.173600
     17 C31         4.0890    5.9610    4.4660 cc        1 D42      0.346800
     18 C32         2.8500    5.6690    3.6820 cc        1 D42     -0.424900
     19 C33         2.8250    4.2810    3.3610 c         1 D42      0.691300
     20 N34         4.1440    7.2530    4.8110 nd        1 D42     -0.371800
     21 N35         3.0310    7.8080    4.3040 na        1 D42     -0.024600
     22 C36         2.1880    6.9180    3.6120 cd        1 D42      0.233700
     23 C37         0.9670    7.3080    3.0020 cd        1 D42     -0.268400
     24 S38         0.3300    6.5530    1.6290 ss        1 D42     -0.074300
     25 C39        -0.9990    7.6340    1.6090 cd        1 D42      0.480700
     26 N40        -0.9960    8.5340    2.6010 nc        1 D42     -0.624000
     27 C41         0.1180    8.3680    3.4030 cc        1 D42      0.465600
     28 C42         0.3310    9.2490    4.5760 c3        1 D42     -0.167400
     29 C46        -2.0360    7.5470    0.5600 c3        1 D42     -0.156400
     30 O47         5.0110    0.8030    1.5680 o         1 D42     -0.314100
     31 O50         2.0500    3.5570    2.7030 o         1 D42     -0.695100
     32 H11        -0.6800   -0.0650    2.8690 h1        1 D42      0.075200
     33 H12        -1.7400    0.7450    1.6190 h1        1 D42      0.075200
     34 H21A        0.3830    1.9990    2.1400 h1        1 D42      0.088700
     35 H22         0.1420    1.5850    0.3640 h1        1 D42      0.088700
     36 H41         2.6280   -1.3250    0.7670 h1        1 D42      0.088700
     37 H42         1.5780   -0.5270   -0.5130 h1        1 D42      0.088700
     38 H51         0.4800   -2.5340    0.2420 h1        1 D42      0.075200
     39 H52         0.7060   -2.1200    2.0100 h1        1 D42      0.075200
     40 H151       -1.9850   -2.3060    2.1130 h1        1 D42      0.062033
     41 H152       -2.8530   -1.2290    0.9170 h1        1 D42      0.062033
     42 H153       -1.8860   -2.6560    0.3210 h1        1 D42      0.062033
     43 H19         2.4550    2.3530    1.1410 hn        1 D42      0.500300
     44 H21         3.8620    0.4300    3.9420 hn        1 D42      0.509300
     45 H23         6.1200    1.0320    4.7110 ha        1 D42      0.174000
     46 H24         7.4250    2.8370    5.7790 ha        1 D42      0.196000
     47 H25         6.6270    5.2110    5.7680 ha        1 D42      0.204000
     48 H35         2.8590    8.7850    4.4490 hn        1 D42      0.361700
     49 H421       -0.6200    9.7610    4.8800 hc        1 D42      0.078700
     50 H422        0.6970    8.6570    5.4510 hc        1 D42      0.078700
     51 H423        1.0730   10.0480    4.3190 hc        1 D42      0.078700
     52 H461       -1.8160    6.7040   -0.1400 hc        1 D42      0.083367
     53 H462       -3.0460    7.3850    1.0210 hc        1 D42      0.083367
     54 H463       -2.0770    8.5030   -0.0250 hc        1 D42      0.083367
     55 H192        3.1280    1.1850    0.1000 hn        1 D42      0.500300
     56 H212        2.6720    1.6020    3.6320 hn        1 D42      0.509300
@<TRIPOS>BOND
     1    1    2 1   
     2    1    6 1   
     3    1   32 1   
     4    1   33 1   
     5    2    3 1   
     6    2   34 1   
     7    2   35 1   
     8    3    4 1   
     9    3    8 1   
    10    4    5 1   
    11    4   36 1   
    12    4   37 1   
    13    5    6 1   
    14    5   38 1   
    15    5   39 1   
    16    6    7 1   
    17    7   40 1   
    18    7   41 1   
    19    7   42 1   
    20    8    9 1   
    21    8   43 1   
    22    8   55 1   
    23    9   10 1   
    24    9   30 2   
    25   10   11 1   
    26   10   44 1   
    27   10   56 1   
    28   11   12 ar  
    29   11   16 ar  
    30   12   13 ar  
    31   12   45 1   
    32   13   14 ar  
    33   13   46 1   
    34   14   15 ar  
    35   14   47 1   
    36   15   16 ar  
    37   15   17 1   
    38   16   19 1   
    39   17   18 1   
    40   17   20 2   
    41   18   19 1   
    42   18   22 2   
    43   19   31 2   
    44   20   21 1   
    45   21   22 1   
    46   21   48 1   
    47   22   23 1   
    48   23   24 1   
    49   23   27 2   
    50   24   25 1   
    51   25   26 2   
    52   25   29 1   
    53   26   27 1   
    54   27   28 1   
    55   28   49 1   
    56   28   50 1   
    57   28   51 1   
    58   29   52 1   
    59   29   53 1   
    60   29   54 1   
@<TRIPOS>SUBSTRUCTURE
     1 D42         1 TEMP              0 ****  ****    0 ROOT
