@<TRIPOS>MOLECULE
D42
   55    59     1     0     0
SMALL
bcc


@<TRIPOS>ATOM
      1 C1         -0.4210   -0.4970    0.2370 c3        1 D42      0.173300
      2 C2          1.0090   -0.1800   -0.2500 c3        1 D42      0.118800
      3 N3          1.9290    0.0280    0.8940 n3        1 D42     -0.504400
      4 C4          1.8860   -1.1250    1.8260 c3        1 D42      0.118800
      5 C5          0.4410   -1.4270    2.2760 c3        1 D42      0.173300
      6 N6         -0.4450   -1.6330    1.1430 n3        1 D42     -0.741600
      7 C15        -1.7820   -2.0280    1.5280 c3        1 D42      0.154100
      8 N19         3.2490    0.3480    0.4830 ny        1 D42     -0.458600
      9 C20         4.1300    0.9420    1.6430 c         1 D42      0.666100
     10 N21         3.6070    1.9870    2.3310 ns        1 D42     -0.394100
     11 C22         4.3520    2.7570    3.2640 ca        1 D42      0.072600
     12 C23         5.5380    2.2940    3.8860 ca        1 D42     -0.152000
     13 C24         6.1940    3.0880    4.8170 ca        1 D42     -0.073000
     14 C25         5.7160    4.3590    5.1760 ca        1 D42     -0.094000
     15 C26         4.5610    4.8160    4.5720 ca        1 D42     -0.047500
     16 C27         3.8690    4.0230    3.6030 ca        1 D42     -0.196600
     17 C31         3.8140    6.0570    4.7170 cc        1 D42      0.351800
     18 C32         2.6430    6.0150    3.8050 cc        1 D42     -0.380900
     19 C33         2.6500    4.7490    3.0920 c         1 D42      0.661300
     20 N34         3.8360    7.2060    5.4140 nd        1 D42     -0.423800
     21 N35         2.7620    7.8940    5.0000 na        1 D42     -0.027600
     22 C36         1.9830    7.2300    4.0260 cd        1 D42      0.148700
     23 C37         0.8040    7.7940    3.4530 cd        1 D42     -0.228400
     24 S38         0.3860    7.6140    1.8340 ss        1 D42     -0.014300
     25 C39        -1.0210    8.5550    2.0580 cd        1 D42      0.417700
     26 N40        -1.2030    9.0010    3.3090 nc        1 D42     -0.630000
     27 C41        -0.1630    8.5730    4.1190 cc        1 D42      0.408600
     28 C42        -0.1260    8.9280    5.5570 c3        1 D42     -0.148400
     29 C46        -1.9390    8.8310    0.9320 c3        1 D42     -0.142400
     30 O47         5.1930    0.3250    1.7500 o         1 D42     -0.501100
     31 O50         1.8730    4.2980    2.2440 o         1 D42     -0.568100
     32 H11        -1.0280   -0.7580   -0.6760 h1        1 D42      0.067450
     33 H12        -0.8620    0.4340    0.6990 h1        1 D42      0.067450
     34 H21A        1.3600   -1.0160   -0.9220 h1        1 D42      0.072950
     35 H22         0.9580    0.7750   -0.8460 h1        1 D42      0.072950
     36 H41         2.3250   -2.0550    1.3600 h1        1 D42      0.072950
     37 H42         2.4850   -0.8620    2.7430 h1        1 D42      0.072950
     38 H51         0.0890   -0.5950    2.9530 h1        1 D42      0.067450
     39 H52         0.4760   -2.3790    2.8770 h1        1 D42      0.067450
     40 H151       -2.3240   -1.2380    2.1160 h1        1 D42      0.051367
     41 H152       -1.7140   -2.9600    2.1480 h1        1 D42      0.051367
     42 H153       -2.3690   -2.2550    0.6000 h1        1 D42      0.051367
     43 H19         3.7790   -0.4680    0.1240 hn        1 D42      0.452800
     44 H21         2.6880    2.3430    2.1090 hn        1 D42      0.392500
     45 H23         5.9520    1.3030    3.6360 ha        1 D42      0.168000
     46 H24         7.1160    2.7090    5.2900 ha        1 D42      0.162000
     47 H25         6.2510    4.9710    5.9190 ha        1 D42      0.173000
     48 H35         2.5560    8.7840    5.4000 hn        1 D42      0.341700
     49 H421       -1.1440    9.2000    5.9370 hc        1 D42      0.064700
     50 H422        0.2530    8.0650    6.1590 hc        1 D42      0.064700
     51 H423        0.5440    9.8110    5.7120 hc        1 D42      0.064700
     52 H461       -2.0190    9.9340    0.7550 hc        1 D42      0.069367
     53 H462       -1.5650    8.3430   -0.0020 hc        1 D42      0.069367
     54 H463       -2.9640    8.4410    1.1580 hc        1 D42      0.069367
     55 H192        3.1850    1.0560   -0.2620 hn        1 D42      0.452800
@<TRIPOS>BOND
     1    1    2 1   
     2    1    6 1   
     3    1   32 1   
     4    1   33 1   
     5    2    3 1   
     6    2   34 1   
     7    2   35 1   
     8    3    4 1   
     9    3    8 1   
    10    4    5 1   
    11    4   36 1   
    12    4   37 1   
    13    5    6 1   
    14    5   38 1   
    15    5   39 1   
    16    6    7 1   
    17    7   40 1   
    18    7   41 1   
    19    7   42 1   
    20    8    9 1   
    21    8   43 1   
    22    8   55 1   
    23    9   10 1   
    24    9   30 2   
    25   10   11 1   
    26   10   44 1   
    27   11   12 ar  
    28   11   16 ar  
    29   12   13 ar  
    30   12   45 1   
    31   13   14 ar  
    32   13   46 1   
    33   14   15 ar  
    34   14   47 1   
    35   15   16 ar  
    36   15   17 1   
    37   16   19 1   
    38   17   18 1   
    39   17   20 2   
    40   18   19 1   
    41   18   22 2   
    42   19   31 2   
    43   20   21 1   
    44   21   22 1   
    45   21   48 1   
    46   22   23 1   
    47   23   24 1   
    48   23   27 2   
    49   24   25 1   
    50   25   26 2   
    51   25   29 1   
    52   26   27 1   
    53   27   28 1   
    54   28   49 1   
    55   28   50 1   
    56   28   51 1   
    57   29   52 1   
    58   29   53 1   
    59   29   54 1   
@<TRIPOS>SUBSTRUCTURE
     1 D42         1 TEMP              0 ****  ****    0 ROOT
