@<TRIPOS>MOLECULE
D42
   54    58     1     0     0
SMALL
bcc


@<TRIPOS>ATOM
      1 C1          4.6390    2.4650    1.2010 c3        1 D42      0.168300
      2 C2          5.0750    1.0350    0.8390 c3        1 D42      0.148800
      3 N3          4.3200    0.5080   -0.3200 n3        1 D42     -0.517600
      4 C4          4.4580    1.4320   -1.4690 c3        1 D42      0.148800
      5 C5          4.0160    2.8580   -1.0970 c3        1 D42      0.168300
      6 N6          4.7100    3.3800    0.0720 n3        1 D42     -0.734600
      7 C15         4.2860    4.7180    0.4160 c3        1 D42      0.157100
      8 N19         4.6230   -0.7920   -0.6650 n         1 D42     -0.376300
      9 C20         3.7420   -1.8490   -0.2240 c         1 D42      0.760100
     10 N21         2.3740   -1.6020   -0.0970 n         1 D42     -0.447100
     11 C22         1.3860   -2.5670    0.1080 ca        1 D42      0.157600
     12 C23         1.6600   -3.9470    0.3550 ca        1 D42     -0.169000
     13 C24         0.6370   -4.8510    0.5690 ca        1 D42     -0.083000
     14 C25        -0.7170   -4.4650    0.5550 ca        1 D42     -0.135000
     15 C26        -1.0010   -3.1400    0.3190 ca        1 D42     -0.059500
     16 C27         0.0380   -2.1760    0.0930 ca        1 D42     -0.245600
     17 C31        -2.2720   -2.4340    0.2350 cc        1 D42      0.364800
     18 C32        -1.9980   -1.0050   -0.0450 cc        1 D42     -0.357900
     19 C33        -0.5470   -0.8180   -0.1380 c         1 D42      0.650300
     20 N34        -3.5950   -2.6600    0.3180 nd        1 D42     -0.454800
     21 N35        -4.1730   -1.4670    0.1160 na        1 D42     -0.037600
     22 C36        -3.2600   -0.4130   -0.1220 cd        1 D42      0.099700
     23 C37        -3.6660    0.9380   -0.3540 cd        1 D42     -0.194400
     24 S38        -2.7990    2.2620    0.2060 ss        1 D42      0.015700
     25 C39        -3.9340    3.3370   -0.4720 cd        1 D42      0.383700
     26 N40        -4.9500    2.7470   -1.1190 nc        1 D42     -0.635000
     27 C41        -4.8050    1.3690   -1.0590 cc        1 D42      0.378600
     28 C42        -5.7900    0.4720   -1.7100 c3        1 D42     -0.139400
     29 C46        -3.7690    4.8000   -0.3410 c3        1 D42     -0.134400
     30 O47         4.2710   -2.9710   -0.0550 o         1 D42     -0.627100
     31 O50         0.0750    0.2240   -0.3530 o         1 D42     -0.549100
     32 H11         5.3410    2.8430    1.9960 h1        1 D42      0.043450
     33 H12         3.6010    2.4260    1.6450 h1        1 D42      0.043450
     34 H21A        4.8620    0.3790    1.7290 h1        1 D42      0.051200
     35 H22         6.1890    1.0280    0.6550 h1        1 D42      0.051200
     36 H41         3.7870    1.0700   -2.2970 h1        1 D42      0.051200
     37 H42         5.5150    1.4630   -1.8590 h1        1 D42      0.051200
     38 H51         2.8950    2.8680   -0.9580 h1        1 D42      0.043450
     39 H52         4.2630    3.5260   -1.9700 h1        1 D42      0.043450
     40 H151        3.2050    4.7800    0.7200 h1        1 D42      0.034033
     41 H152        4.9170    5.0880    1.2670 h1        1 D42      0.034033
     42 H153        4.4470    5.3860   -0.4700 h1        1 D42      0.034033
     43 H19         5.5820   -1.0660   -0.4920 hn        1 D42      0.287500
     44 H21         2.0420   -0.6680   -0.2590 hn        1 D42      0.366500
     45 H23         2.7030   -4.3050    0.3750 ha        1 D42      0.183000
     46 H24         0.8860   -5.9080    0.7560 ha        1 D42      0.140000
     47 H25        -1.5130   -5.2020    0.7280 ha        1 D42      0.151000
     48 H35        -5.1640   -1.3880    0.1000 hn        1 D42      0.327700
     49 H421       -5.2650   -0.3900   -2.1910 hc        1 D42      0.057700
     50 H422       -6.5140    0.0870   -0.9490 hc        1 D42      0.057700
     51 H423       -6.3740    1.0100   -2.4990 hc        1 D42      0.057700
     52 H461       -3.6820    5.2770   -1.3500 hc        1 D42      0.062033
     53 H462       -4.6520    5.2490    0.1810 hc        1 D42      0.062033
     54 H463       -2.8480    5.0340    0.2480 hc        1 D42      0.062033
@<TRIPOS>BOND
     1    1    2 1   
     2    1    6 1   
     3    1   32 1   
     4    1   33 1   
     5    2    3 1   
     6    2   34 1   
     7    2   35 1   
     8    3    4 1   
     9    3    8 1   
    10    4    5 1   
    11    4   36 1   
    12    4   37 1   
    13    5    6 1   
    14    5   38 1   
    15    5   39 1   
    16    6    7 1   
    17    7   40 1   
    18    7   41 1   
    19    7   42 1   
    20    8    9 1   
    21    8   43 1   
    22    9   10 1   
    23    9   30 2   
    24   10   11 1   
    25   10   44 1   
    26   11   12 ar  
    27   11   16 ar  
    28   12   13 ar  
    29   12   45 1   
    30   13   14 ar  
    31   13   46 1   
    32   14   15 ar  
    33   14   47 1   
    34   15   16 ar  
    35   15   17 1   
    36   16   19 1   
    37   17   18 1   
    38   17   20 2   
    39   18   19 1   
    40   18   22 2   
    41   19   31 2   
    42   20   21 1   
    43   21   22 1   
    44   21   48 1   
    45   22   23 1   
    46   23   24 1   
    47   23   27 2   
    48   24   25 1   
    49   25   26 2   
    50   25   29 1   
    51   26   27 1   
    52   27   28 1   
    53   28   49 1   
    54   28   50 1   
    55   28   51 1   
    56   29   52 1   
    57   29   53 1   
    58   29   54 1   
@<TRIPOS>SUBSTRUCTURE
     1 D42         1 TEMP              0 ****  ****    0 ROOT
