@<TRIPOS>MOLECULE
D42
   54    51     1     0     0
SMALL
bcc


@<TRIPOS>ATOM
      1 C1         -2.7270   -4.1950    0.8930 c3        1 D42     -0.095500
      2 C2         -1.7790   -3.5770   -0.0800 c3        1 D42     -0.123000
      3 N3         -0.2820   -3.7360    0.3520 n3        1 D42     -0.154000
      4 C4         -0.2780   -5.3160    0.3200 c3        1 D42     -0.123000
      5 C5         -1.2340   -5.9100    1.2860 c3        1 D42     -0.095500
      6 N6         -2.1310   -5.0590    1.6410 n3        1 D42     -0.262000
      7 C15        -3.0740   -5.6940    2.4710 c3        1 D42     -0.118000
      8 N19         0.5710   -3.2260   -0.6780 n         1 D42     -0.265000
      9 C20         1.7470   -2.5630   -0.3390 c2        1 D42      0.388000
     10 N21         1.7260   -1.1210   -0.1200 n         1 D42     -0.301000
     11 C22         2.9980   -0.3780    0.0190 c2        1 D42      0.165000
     12 C23         4.3320   -0.7060    0.3220 c2        1 D42     -0.169000
     13 C24         5.2450    0.2930    0.5900 c1        1 D42     -0.083000
     14 C25         4.8370    1.6630    0.5600 c1        1 D42     -0.134000
     15 C26         3.4990    1.9950    0.2570 c1        1 D42      0.048000
     16 C27         2.5850    0.9980   -0.0110 c1        1 D42     -0.225000
     17 C31         2.8190    3.3490   -0.0030 c1        1 D42     -0.071000
     18 C32         1.5200    3.1090   -0.4170 c1        1 D42     -0.273000
     19 C33         1.3020    1.6500   -0.4160 c1        1 D42      0.370000
     20 N34         2.9670    4.7130    0.1640 n2        1 D42     -0.022000
     21 N35         1.7610    5.3160   -0.1460 n2        1 D42     -0.182000
     22 C36         0.8690    4.3250   -0.5050 c2        1 D42      0.125000
     23 C37        -0.4640    4.7400   -0.7110 c2        1 D42     -0.401000
     24 S38        -1.6490    4.4340    0.1900 ss        1 D42      0.603000
     25 C39        -2.9120    5.0640   -0.4660 c1        1 D42     -0.288000
     26 N40        -2.5130    5.6880   -1.6510 n2        1 D42     -0.110000
     27 C41        -0.9410    5.4880   -1.8220 c1        1 D42     -0.044000
     28 C42        -0.1450    5.8380   -3.0360 c2        1 D42     -0.160500
     29 C46        -4.3440    5.1260    0.1640 c2        1 D42     -0.160500
     30 O47         2.8220   -3.1540   -0.4080 o         1 D42     -0.390000
     31 O50         0.3100    1.0770   -0.8360 o         1 D42     -0.310000
     32 H11        -3.1150   -3.4880    1.4630 h1        1 D42      0.096500
     33 H12        -3.4250   -4.6290    0.4150 h1        1 D42      0.096500
     34 H21A       -1.9840   -2.6320   -0.1610 h1        1 D42      0.107750
     35 H22        -1.9090   -4.0270   -1.0080 h1        1 D42      0.107750
     36 H41        -0.5260   -5.6250   -0.6170 h1        1 D42      0.107750
     37 H42         0.5960   -5.6260    0.5230 h1        1 D42      0.107750
     38 H51        -1.6850   -6.7060    0.8600 h1        1 D42      0.096500
     39 H52        -0.7770   -6.1850    2.0240 h1        1 D42      0.096500
     40 H151       -4.0240   -5.3260    2.2610 h1        1 D42      0.071667
     41 H152       -2.8630   -5.5240    3.3750 h1        1 D42      0.071667
     42 H153       -3.0540   -6.7070    2.2990 h1        1 D42      0.071667
     43 H19         0.3840   -3.3780   -1.5120 hn        1 D42      0.201000
     44 H21         0.9050   -0.6420   -0.2010 hn        1 D42      0.280000
     45 H23         4.5920   -1.5780    0.3410 ha        1 D42      0.182000
     46 H24         6.1590    0.0640    0.8010 ha        1 D42      0.140000
     47 H25         5.4920    2.3790    0.7550 ha        1 D42      0.151000
     48 H35         1.6210    6.2420   -0.2430 DU        1 D42      0.278000
     49 H421        0.0840    5.0070   -3.5330 ha        1 D42      0.099000
     50 H422       -0.6520    6.4050   -3.5920 ha        1 D42      0.099000
     51 H423        0.7080    6.3120   -2.7550 ha        1 D42      0.099000
     52 H461       -4.9800    4.5640   -0.3840 ha        1 D42      0.099000
     53 H462       -4.6710    6.1050    0.1720 ha        1 D42      0.099000
     54 H463       -4.3120    4.7640    1.1310 ha        1 D42      0.099000
@<TRIPOS>BOND
     1    1    2 1   
     2    1    6 1   
     3    1   32 1   
     4    1   33 1   
     5    2    3 1   
     6    2   34 1   
     7    2   35 1   
     8    3    4 1   
     9    3    8 1   
    10    4    5 1   
    11    4   36 1   
    12    4   37 1   
    13    5    6 1   
    14    5   38 1   
    15    5   39 1   
    16    6    7 1   
    17    7   40 1   
    18    7   41 1   
    19    7   42 1   
    20    8    9 1   
    21    8   43 1   
    22    9   10 1   
    23    9   30 1   
    24   10   11 1   
    25   10   44 1   
    26   11   12 1   
    27   11   16 1   
    28   12   13 1   
    29   12   45 1   
    30   13   46 1   
    31   14   15 1   
    32   14   47 1   
    33   16   19 1   
    34   17   18 1   
    35   17   20 1   
    36   18   22 1   
    37   19   31 1   
    38   20   21 1   
    39   21   22 1   
    40   22   23 1   
    41   23   24 1   
    42   23   27 1   
    43   24   25 1   
    44   25   26 1   
    45   26   27 1   
    46   28   49 1   
    47   28   50 1   
    48   28   51 1   
    49   29   52 1   
    50   29   53 1   
    51   29   54 1   
@<TRIPOS>SUBSTRUCTURE
     1 D42         1 TEMP              0 ****  ****    0 ROOT
