@<TRIPOS>MOLECULE
D42
   55    59     1     0     0
SMALL
bcc


@<TRIPOS>ATOM
      1 C1         -0.4030   -0.4900    0.2070 c3        1 D42      0.173300
      2 C2          1.0300   -0.1670   -0.2700 c3        1 D42      0.118800
      3 N3          1.9430    0.0360    0.8820 n3        1 D42     -0.504400
      4 C4          1.8960   -1.1230    1.8060 c3        1 D42      0.118800
      5 C5          0.4500   -1.4300    2.2450 c3        1 D42      0.173300
      6 N6         -0.4300   -1.6310    1.1060 n3        1 D42     -0.741600
      7 C15        -1.7680   -2.0320    1.4800 c3        1 D42      0.154100
      8 N19         3.2650    0.3610    0.4810 n4        1 D42     -0.458600
      9 C20         4.1370    0.9500    1.6490 c         1 D42      0.666100
     10 N21         3.6080    1.9900    2.3400 n         1 D42     -0.394100
     11 C22         4.3470    2.7560    3.2810 ca        1 D42      0.072600
     12 C23         5.5290    2.2910    3.9090 ca        1 D42     -0.152000
     13 C24         6.1780    3.0820    4.8480 ca        1 D42     -0.073000
     14 C25         5.6970    4.3510    5.2090 ca        1 D42     -0.094000
     15 C26         4.5460    4.8110    4.5980 ca        1 D42     -0.047500
     16 C27         3.8600    4.0210    3.6230 ca        1 D42     -0.196600
     17 C31         3.7980    6.0500    4.7440 cc        1 D42      0.351800
     18 C32         2.6320    6.0110    3.8240 cc        1 D42     -0.380900
     19 C33         2.6440    4.7490    3.1060 c         1 D42      0.661300
     20 N34         3.8140    7.1960    5.4470 nd        1 D42     -0.423800
     21 N35         2.7430    7.8850    5.0290 na        1 D42     -0.027600
     22 C36         1.9700    7.2250    4.0460 cd        1 D42      0.148700
     23 C37         0.7950    7.7920    3.4670 cd        1 D42     -0.228400
     24 S38         0.3890    7.6190    1.8450 ss        1 D42     -0.014300
     25 C39        -1.0210    8.5580    2.0630 cd        1 D42      0.417700
     26 N40        -1.2120    8.9970    3.3160 nc        1 D42     -0.630000
     27 C41        -0.1770    8.5670    4.1300 cc        1 D42      0.408600
     28 C42        -0.1500    8.9140    5.5710 c3        1 D42     -0.148400
     29 C46        -1.9310    8.8390    0.9320 c3        1 D42     -0.142400
     30 O47         5.2010    0.3340    1.7590 o         1 D42     -0.501100
     31 O50         1.8740    4.3010    2.2510 o         1 D42     -0.568100
     32 H11        -1.0040   -0.7470   -0.7110 h1        1 D42      0.067450
     33 H12        -0.8480    0.4370    0.6720 h1        1 D42      0.067450
     34 H21A        0.9800    0.7920   -0.8600 h1        1 D42      0.072950
     35 H22         1.3860   -0.9980   -0.9450 h1        1 D42      0.072950
     36 H41         2.3400   -2.0490    1.3370 h1        1 D42      0.072950
     37 H42         2.4890   -0.8640    2.7280 h1        1 D42      0.072950
     38 H51         0.4830   -2.3860    2.8410 h1        1 D42      0.067450
     39 H52         0.0910   -0.6030    2.9250 h1        1 D42      0.067450
     40 H151       -2.3150   -1.2470    2.0700 h1        1 D42      0.051367
     41 H152       -2.3490   -2.2540    0.5460 h1        1 D42      0.051367
     42 H153       -1.7020   -2.9680    2.0950 h1        1 D42      0.051367
     43 H19         3.7980   -0.4510    0.1190 hn        1 D42      0.452800
     44 H21         2.6890    2.3460    2.1150 hn        1 D42      0.392500
     45 H23         5.9450    1.3010    3.6570 ha        1 D42      0.168000
     46 H24         7.0970    2.7010    5.3250 ha        1 D42      0.162000
     47 H25         6.2270    4.9600    5.9580 ha        1 D42      0.173000
     48 H35         2.5330    8.7730    5.4310 hn        1 D42      0.341700
     49 H421       -1.1710    9.1830    5.9450 hc        1 D42      0.064700
     50 H422        0.2260    8.0490    6.1710 hc        1 D42      0.064700
     51 H423        0.5180    9.7970    5.7350 hc        1 D42      0.064700
     52 H461       -2.9570    8.4450    1.1490 hc        1 D42      0.069367
     53 H462       -2.0120    9.9430    0.7620 hc        1 D42      0.069367
     54 H463       -1.5490    8.3570   -0.0020 hc        1 D42      0.069367
     55 H192        3.2030    1.0740   -0.2610 hn        1 D42      0.452800
@<TRIPOS>BOND
     1    1    2 1   
     2    1    6 1   
     3    1   32 1   
     4    1   33 1   
     5    2    3 1   
     6    2   34 1   
     7    2   35 1   
     8    3    4 1   
     9    3    8 1   
    10    4    5 1   
    11    4   36 1   
    12    4   37 1   
    13    5    6 1   
    14    5   38 1   
    15    5   39 1   
    16    6    7 1   
    17    7   40 1   
    18    7   41 1   
    19    7   42 1   
    20    8    9 1   
    21    8   43 1   
    22    8   55 1   
    23    9   10 1   
    24    9   30 2   
    25   10   11 1   
    26   10   44 1   
    27   11   12 ar  
    28   11   16 ar  
    29   12   13 ar  
    30   12   45 1   
    31   13   14 ar  
    32   13   46 1   
    33   14   15 ar  
    34   14   47 1   
    35   15   16 ar  
    36   15   17 1   
    37   16   19 1   
    38   17   18 1   
    39   17   20 2   
    40   18   19 1   
    41   18   22 2   
    42   19   31 2   
    43   20   21 1   
    44   21   22 1   
    45   21   48 1   
    46   22   23 1   
    47   23   24 1   
    48   23   27 2   
    49   24   25 1   
    50   25   26 2   
    51   25   29 1   
    52   26   27 1   
    53   27   28 1   
    54   28   49 1   
    55   28   50 1   
    56   28   51 1   
    57   29   52 1   
    58   29   53 1   
    59   29   54 1   
@<TRIPOS>SUBSTRUCTURE
     1 D42         1 TEMP              0 ****  ****    0 ROOT
