@<TRIPOS>MOLECULE
D44
   38    40     1     0     0
SMALL
bcc


@<TRIPOS>ATOM
      1 O1         -0.3080    0.2470   -0.1910 o         1 D44     -0.575100
      2 C2          0.9290    0.1540   -0.0960 c         1 D44      0.681100
      3 N3          1.6020    0.1300    1.1150 n         1 D44     -0.468100
      4 C4          1.0210    0.1290    2.3980 ca        1 D44      0.066600
      5 C9         -0.2750    0.6430    2.6210 ca        1 D44     -0.144000
      6 C8         -0.8160    0.6610    3.9010 ca        1 D44     -0.109000
      7 C7         -0.0860    0.1780    4.9850 ca        1 D44     -0.148000
      8 C6          1.1910   -0.3320    4.7780 ca        1 D44     -0.107000
      9 C5          1.7620   -0.3730    3.5020 ca        1 D44     -0.120300
     10 C10         3.1290   -0.9510    3.3590 c3        1 D44     -0.040100
     11 C11         4.2060    0.1080    3.3140 c3        1 D44     -0.094100
     12 C12         1.8250    0.0720   -1.3190 c3        1 D44     -0.130300
     13 S13         0.8330    0.1770   -2.7820 ss        1 D44     -0.033300
     14 C14         2.0150    0.0790   -3.9990 cc        1 D44      0.388700
     15 N18         1.6390    0.1320   -5.3580 na        1 D44     -0.360000
     16 C17         2.8240    0.0260   -6.1040 ca        1 D44      0.401800
     17 N22         3.0040    0.0250   -7.4540 nb        1 D44     -0.655000
     18 C21         4.2820   -0.0940   -7.8380 ca        1 D44      0.409200
     19 C20         5.3950   -0.2110   -6.9660 ca        1 D44     -0.265300
     20 C19         5.2140   -0.2100   -5.5910 ca        1 D44     -0.040000
     21 C16         3.9000   -0.0890   -5.1150 ca        1 D44     -0.022900
     22 N15         3.3530   -0.0520   -3.8260 nd        1 D44     -0.590100
     23 H1          2.5890   -0.0070    1.0860 hn        1 D44      0.322500
     24 H2         -0.8740    1.0280    1.7790 ha        1 D44      0.168000
     25 H3         -1.8290    1.0640    4.0530 ha        1 D44      0.136000
     26 H4         -0.5160    0.1960    5.9970 ha        1 D44      0.134000
     27 H5          1.7680   -0.7180    5.6340 ha        1 D44      0.132000
     28 H6          3.3320   -1.6320    4.2310 hc        1 D44      0.046700
     29 H7          3.1900   -1.5990    2.4430 hc        1 D44      0.046700
     30 H8          5.2080   -0.3720    3.2050 hc        1 D44      0.037033
     31 H9          4.0560    0.8090    2.4590 hc        1 D44      0.037033
     32 H10         4.2000    0.7080    4.2560 hc        1 D44      0.037033
     33 H11         2.5750    0.9040   -1.3020 h1        1 D44      0.106200
     34 H12         2.3930   -0.8930   -1.3080 h1        1 D44      0.106200
     35 H13         0.7240    0.2230   -5.7160 hn        1 D44      0.324700
     36 H14         4.4390   -0.0960   -8.9330 h4        1 D44      0.025100
     37 H15         6.4020   -0.3030   -7.3960 ha        1 D44      0.145000
     38 H16         6.0590   -0.3000   -4.8940 ha        1 D44      0.151000
@<TRIPOS>BOND
     1    1    2 2   
     2    2    3 1   
     3    2   12 1   
     4    3    4 1   
     5    3   23 1   
     6    4    5 ar  
     7    4    9 ar  
     8    5    6 ar  
     9    5   24 1   
    10    6    7 ar  
    11    6   25 1   
    12    7    8 ar  
    13    7   26 1   
    14    8    9 ar  
    15    8   27 1   
    16    9   10 1   
    17   10   11 1   
    18   10   28 1   
    19   10   29 1   
    20   11   30 1   
    21   11   31 1   
    22   11   32 1   
    23   12   13 1   
    24   12   33 1   
    25   12   34 1   
    26   13   14 1   
    27   14   15 1   
    28   14   22 2   
    29   15   16 1   
    30   15   35 1   
    31   16   17 ar  
    32   16   21 ar  
    33   17   18 ar  
    34   18   19 ar  
    35   18   36 1   
    36   19   20 ar  
    37   19   37 1   
    38   20   21 ar  
    39   20   38 1   
    40   21   22 1   
@<TRIPOS>SUBSTRUCTURE
     1 D44         1 TEMP              0 ****  ****    0 ROOT
