@<TRIPOS>MOLECULE
D44
   38    40     1     0     0
SMALL
bcc


@<TRIPOS>ATOM
      1 O1         -1.6130    2.0530   -0.0410 o         1 D44     -0.575100
      2 C2         -1.4170    0.8270    0.0300 c         1 D44      0.681100
      3 N3         -2.4390   -0.1060    0.1280 n         1 D44     -0.468100
      4 C4         -3.8210    0.1580    0.0870 ca        1 D44      0.066600
      5 C9         -4.3410    1.4230    0.4340 ca        1 D44     -0.144000
      6 C8         -5.7130    1.6510    0.4180 ca        1 D44     -0.109000
      7 C7         -6.5950    0.6330    0.0650 ca        1 D44     -0.148000
      8 C6         -6.0950   -0.6180   -0.2800 ca        1 D44     -0.107000
      9 C5         -4.7210   -0.8790   -0.2820 ca        1 D44     -0.120300
     10 C10        -4.2610   -2.2400   -0.6810 c3        1 D44     -0.040100
     11 C11        -3.9700   -3.1260    0.5070 c3        1 D44     -0.094100
     12 C12        -0.0190    0.2350    0.0300 c3        1 D44     -0.130300
     13 S13         1.1720    1.5440   -0.0190 ss        1 D44     -0.033300
     14 C14         2.6320    0.6740    0.0050 cc        1 D44      0.388700
     15 N18         3.8650    1.3590   -0.0140 na        1 D44     -0.360000
     16 C17         4.8670    0.3750    0.0110 ca        1 D44      0.401800
     17 N22         6.2230    0.5140    0.0050 nb        1 D44     -0.655000
     18 C21         6.8940   -0.6450    0.0360 ca        1 D44      0.409200
     19 C20         6.3060   -1.9350    0.0710 ca        1 D44     -0.265300
     20 C19         4.9260   -2.0790    0.0770 ca        1 D44     -0.040000
     21 C16         4.1560   -0.9070    0.0460 ca        1 D44     -0.022900
     22 N15         2.7750   -0.6740    0.0410 nd        1 D44     -0.590100
     23 H1         -2.1800   -1.0680    0.1190 hn        1 D44      0.322500
     24 H2         -3.6630    2.2470    0.7150 ha        1 D44      0.168000
     25 H3         -6.0980    2.6460    0.6900 ha        1 D44      0.136000
     26 H4         -7.6790    0.8160    0.0560 ha        1 D44      0.134000
     27 H5         -6.7920   -1.4230   -0.5630 ha        1 D44      0.132000
     28 H6         -5.0610   -2.7280   -1.3040 hc        1 D44      0.046700
     29 H7         -3.3550   -2.1730   -1.3410 hc        1 D44      0.046700
     30 H8         -3.6300   -4.1310    0.1590 hc        1 D44      0.037033
     31 H9         -3.1750   -2.6910    1.1590 hc        1 D44      0.037033
     32 H10        -4.8890   -3.2580    1.1290 hc        1 D44      0.037033
     33 H11         0.1340   -0.3900    0.9470 h1        1 D44      0.106200
     34 H12         0.1080   -0.4340   -0.8590 h1        1 D44      0.106200
     35 H13         4.0000    2.3350   -0.0430 hn        1 D44      0.324700
     36 H14         7.9950   -0.5420    0.0320 h4        1 D44      0.025100
     37 H15         6.9590   -2.8180    0.0950 ha        1 D44      0.145000
     38 H16         4.4460   -3.0680    0.1040 ha        1 D44      0.151000
@<TRIPOS>BOND
     1    1    2 2   
     2    2    3 1   
     3    2   12 1   
     4    3    4 1   
     5    3   23 1   
     6    4    5 ar  
     7    4    9 ar  
     8    5    6 ar  
     9    5   24 1   
    10    6    7 ar  
    11    6   25 1   
    12    7    8 ar  
    13    7   26 1   
    14    8    9 ar  
    15    8   27 1   
    16    9   10 1   
    17   10   11 1   
    18   10   28 1   
    19   10   29 1   
    20   11   30 1   
    21   11   31 1   
    22   11   32 1   
    23   12   13 1   
    24   12   33 1   
    25   12   34 1   
    26   13   14 1   
    27   14   15 1   
    28   14   22 2   
    29   15   16 1   
    30   15   35 1   
    31   16   17 ar  
    32   16   21 ar  
    33   17   18 ar  
    34   18   19 ar  
    35   18   36 1   
    36   19   20 ar  
    37   19   37 1   
    38   20   21 ar  
    39   20   38 1   
    40   21   22 1   
@<TRIPOS>SUBSTRUCTURE
     1 D44         1 TEMP              0 ****  ****    0 ROOT
