@<TRIPOS>MOLECULE
D44
   38    31     1     0     0
SMALL
bcc


@<TRIPOS>ATOM
      1 O1         -0.4190    1.3040   -0.0590 o         1 D44     -0.373000
      2 C2          0.6870    0.7980   -0.0790 c1        1 D44      0.317000
      3 N3          1.2860    0.3360    1.1400 n3        1 D44     -0.308000
      4 C4          0.5790    0.4720    2.3870 c2        1 D44      0.068000
      5 C9         -0.7490    0.8900    2.3920 c2        1 D44     -0.141000
      6 C8         -1.4150    1.0800    3.5990 c1        1 D44     -0.109000
      7 C7         -0.7530    0.8530    4.8020 c1        1 D44     -0.122500
      8 C6          0.5750    0.4350    4.7980 c1        1 D44     -0.122500
      9 C5          1.2410    0.2450    3.5920 c1        1 D44     -0.110000
     10 C10         2.7190   -0.1640    3.5890 c2        1 D44     -0.126000
     11 C11         2.8530   -1.6010    4.1030 c3        1 D44     -0.213000
     12 C12         1.4370    0.6510   -1.4030 c2        1 D44     -0.368000
     13 S13         0.3250    0.0300   -2.6490 ss        1 D44      0.353000
     14 C14         0.1000    1.2640   -3.9130 c2        1 D44     -0.186000
     15 N18        -1.1930    1.3990   -3.5110 n2        1 D44     -0.208000
     16 C17        -1.9270    0.4320   -4.1240 c1        1 D44      0.013000
     17 N22        -3.2540    0.0470   -3.9800 n1        1 D44     -0.127000
     18 C21        -3.7170   -1.0640   -4.6220 c1        1 D44     -0.049000
     19 C20        -2.8620   -1.8130   -5.4200 c1        1 D44     -0.122500
     20 C19        -1.5550   -1.4360   -5.5630 c1        1 D44     -0.122500
     21 C16        -1.0840   -0.3020   -4.9090 c1        1 D44     -0.120000
     22 N15         0.1670    0.2140   -4.7770 n1        1 D44     -0.093000
     23 H1          2.1120   -0.0570    1.1230 hn        1 D44      0.237000
     24 H2         -1.2140    1.0500    1.5460 ha        1 D44      0.168000
     25 H3         -2.3500    1.3750    3.6020 ha        1 D44      0.138000
     26 H4         -1.2230    0.9870    5.6540 ha        1 D44      0.141500
     27 H5          1.0410    0.2750    5.6470 ha        1 D44      0.141500
     28 H6          3.0720   -0.1090    2.6760 ha        1 D44      0.086500
     29 H7          3.2280    0.4420    4.1740 ha        1 D44      0.086500
     30 H8          3.3430   -2.1410    3.4430 hc        1 D44      0.077000
     31 H9          3.3440   -1.6010    4.9550 hc        1 D44      0.077000
     32 H10         1.9600   -1.9850    4.2400 hc        1 D44      0.077000
     33 H11         2.1840    0.0230   -1.2880 h4        1 D44      0.149500
     34 H12         1.7850    1.5270   -1.6810 h4        1 D44      0.149500
     35 H13        -1.5210    2.0540   -2.9590 DU        1 D44      0.297000
     36 H14        -4.6540   -1.3350   -4.5190 ha        1 D44      0.161000
     37 H15        -3.1950   -2.6130   -5.8810 ha        1 D44      0.141500
     38 H16        -0.9510   -1.9640   -6.1270 ha        1 D44      0.141500
@<TRIPOS>BOND
     1    1    2 1   
     2    2    3 1   
     3    3    4 1   
     4    3   23 1   
     5    4    5 1   
     6    4    9 1   
     7    5    6 1   
     8    5   24 1   
     9    6   25 1   
    10    7    8 1   
    11    7   26 1   
    12    8   27 1   
    13   10   11 1   
    14   10   28 1   
    15   10   29 1   
    16   11   30 1   
    17   11   31 1   
    18   11   32 1   
    19   12   13 1   
    20   12   33 1   
    21   12   34 1   
    22   13   14 1   
    23   14   15 1   
    24   14   22 1   
    25   15   16 1   
    26   16   21 1   
    27   17   18 1   
    28   18   36 1   
    29   19   20 1   
    30   19   37 1   
    31   20   38 1   
@<TRIPOS>SUBSTRUCTURE
     1 D44         1 TEMP              0 ****  ****    0 ROOT
