@<TRIPOS>MOLECULE
D44
   39    41     1     0     0
SMALL
bcc


@<TRIPOS>ATOM
      1 O1          2.0630   -2.2750   -0.0510 o         1 D44     -0.402100
      2 C2          1.3690   -1.3280   -0.3870 c         1 D44      0.569100
      3 N3          1.7390    0.0290    0.1730 n4        1 D44     -0.536200
      4 C4          1.2660    0.2110    1.5480 ca        1 D44     -0.059400
      5 C9         -0.0270    0.7350    1.7490 ca        1 D44     -0.112000
      6 C8         -0.4930    0.9350    3.0430 ca        1 D44     -0.108000
      7 C7          0.3190    0.6210    4.1360 ca        1 D44     -0.069000
      8 C6          1.5960    0.1090    3.9330 ca        1 D44     -0.111000
      9 C5          2.0980   -0.1060    2.6420 ca        1 D44     -0.023300
     10 C10         3.4750   -0.6550    2.4830 c3        1 D44     -0.077100
     11 C11         4.4970    0.4250    2.2180 c3        1 D44     -0.097100
     12 C12         0.2020   -1.3690   -1.3230 c3        1 D44     -0.154300
     13 S13        -0.0190    0.0470   -2.3410 ss        1 D44     -0.054300
     14 C14         1.4380    0.0920   -3.2170 cc        1 D44      0.312700
     15 N18         1.5000    0.1530   -4.6170 na        1 D44     -0.304000
     16 C17         2.8580    0.2170   -4.9500 ca        1 D44      0.414800
     17 N22         3.4490    0.3120   -6.1830 nb        1 D44     -0.639000
     18 C21         4.7810    0.3340   -6.1520 ca        1 D44      0.447200
     19 C20         5.5840    0.2710   -4.9710 ca        1 D44     -0.245300
     20 C19         4.9950    0.1810   -3.7260 ca        1 D44     -0.033000
     21 C16         3.5840    0.1560   -3.6780 ca        1 D44     -0.036900
     22 N15         2.6680    0.0860   -2.6340 nd        1 D44     -0.608100
     23 H1          1.3220    0.7590   -0.4310 hn        1 D44      0.479800
     24 H2         -0.6740    0.9970    0.8960 ha        1 D44      0.149000
     25 H3         -1.5030    1.3470    3.2020 ha        1 D44      0.168000
     26 H4         -0.0550    0.7820    5.1620 ha        1 D44      0.169000
     27 H5          2.2330   -0.1340    4.8010 ha        1 D44      0.168000
     28 H6          3.7640   -1.1970    3.4270 hc        1 D44      0.076200
     29 H7          3.5010   -1.4280    1.6670 hc        1 D44      0.076200
     30 H8          5.5130   -0.0340    2.1260 hc        1 D44      0.048367
     31 H9          4.2790    0.9830    1.2750 hc        1 D44      0.048367
     32 H10         4.5190    1.1620    3.0570 hc        1 D44      0.048367
     33 H11        -0.7490   -1.4540   -0.7230 h1        1 D44      0.151700
     34 H12         0.2960   -2.3150   -1.9250 h1        1 D44      0.151700
     35 H13         0.7350    0.2120   -5.2430 hn        1 D44      0.340700
     36 H14         5.2720    0.4070   -7.1430 h4        1 D44      0.049100
     37 H15         6.6790    0.2960   -5.0760 ha        1 D44      0.166000
     38 H16         5.5910    0.1310   -2.8030 ha        1 D44      0.156000
     39 H32         2.7660    0.1230    0.1500 hn        1 D44      0.479800
@<TRIPOS>BOND
     1    1    2 2   
     2    2    3 1   
     3    2   12 1   
     4    3    4 1   
     5    3   23 1   
     6    3   39 1   
     7    4    5 ar  
     8    4    9 ar  
     9    5    6 ar  
    10    5   24 1   
    11    6    7 ar  
    12    6   25 1   
    13    7    8 ar  
    14    7   26 1   
    15    8    9 ar  
    16    8   27 1   
    17    9   10 1   
    18   10   11 1   
    19   10   28 1   
    20   10   29 1   
    21   11   30 1   
    22   11   31 1   
    23   11   32 1   
    24   12   13 1   
    25   12   33 1   
    26   12   34 1   
    27   13   14 1   
    28   14   15 1   
    29   14   22 2   
    30   15   16 1   
    31   15   35 1   
    32   16   17 ar  
    33   16   21 ar  
    34   17   18 ar  
    35   18   19 ar  
    36   18   36 1   
    37   19   20 ar  
    38   19   37 1   
    39   20   21 ar  
    40   20   38 1   
    41   21   22 1   
@<TRIPOS>SUBSTRUCTURE
     1 D44         1 TEMP              0 ****  ****    0 ROOT
