@<TRIPOS>MOLECULE
D44
   38    40     1     0     0
SMALL
bcc


@<TRIPOS>ATOM
      1 O1         -0.3090    0.2280   -0.1890 o         1 D44     -0.575100
      2 C2          0.9280    0.1430   -0.0950 c         1 D44      0.681100
      3 N3          1.6030    0.1260    1.1160 ns        1 D44     -0.468100
      4 C4          1.0230    0.1250    2.3990 ca        1 D44      0.066600
      5 C9         -0.2750    0.6320    2.6220 ca        1 D44     -0.144000
      6 C8         -0.8150    0.6510    3.9030 ca        1 D44     -0.109000
      7 C7         -0.0820    0.1750    4.9870 ca        1 D44     -0.148000
      8 C6          1.1990   -0.3270    4.7800 ca        1 D44     -0.107000
      9 C5          1.7690   -0.3680    3.5040 ca        1 D44     -0.120300
     10 C10         3.1390   -0.9370    3.3610 c3        1 D44     -0.040100
     11 C11         4.2090    0.1280    3.3120 c3        1 D44     -0.094100
     12 C12         1.8230    0.0620   -1.3190 c3        1 D44     -0.130300
     13 S13         0.8300    0.1640   -2.7800 ss        1 D44     -0.033300
     14 C14         2.0110    0.0710   -3.9990 cc        1 D44      0.388700
     15 N18         1.6330    0.1240   -5.3580 na        1 D44     -0.360000
     16 C17         2.8180    0.0230   -6.1040 ca        1 D44      0.401800
     17 N22         2.9970    0.0230   -7.4550 nb        1 D44     -0.655000
     18 C21         4.2750   -0.0910   -7.8400 ca        1 D44      0.409200
     19 C20         5.3890   -0.2070   -6.9690 ca        1 D44     -0.265300
     20 C19         5.2090   -0.2080   -5.5940 ca        1 D44     -0.040000
     21 C16         3.8950   -0.0910   -5.1160 ca        1 D44     -0.022900
     22 N15         3.3500   -0.0570   -3.8270 nd        1 D44     -0.590100
     23 H1          2.5910   -0.0050    1.0860 hn        1 D44      0.322500
     24 H2         -0.8780    1.0110    1.7790 ha        1 D44      0.168000
     25 H3         -1.8310    1.0470    4.0540 ha        1 D44      0.136000
     26 H4         -0.5110    0.1940    5.9990 ha        1 D44      0.134000
     27 H5          1.7790   -0.7060    5.6370 ha        1 D44      0.132000
     28 H6          3.2030   -1.5880    2.4470 hc        1 D44      0.046700
     29 H7          3.3480   -1.6140    4.2350 hc        1 D44      0.046700
     30 H8          4.0540    0.8260    2.4540 hc        1 D44      0.037033
     31 H9          5.2150   -0.3460    3.2040 hc        1 D44      0.037033
     32 H10         4.2010    0.7310    4.2520 hc        1 D44      0.037033
     33 H11         2.3940   -0.9020   -1.3070 h1        1 D44      0.106200
     34 H12         2.5710    0.8960   -1.3020 h1        1 D44      0.106200
     35 H13         0.7180    0.2130   -5.7150 hn        1 D44      0.324700
     36 H14         4.4300   -0.0920   -8.9350 h4        1 D44      0.025100
     37 H15         6.3950   -0.2950   -7.4000 ha        1 D44      0.145000
     38 H16         6.0560   -0.2960   -4.8990 ha        1 D44      0.151000
@<TRIPOS>BOND
     1    1    2 2   
     2    2    3 1   
     3    2   12 1   
     4    3    4 1   
     5    3   23 1   
     6    4    5 ar  
     7    4    9 ar  
     8    5    6 ar  
     9    5   24 1   
    10    6    7 ar  
    11    6   25 1   
    12    7    8 ar  
    13    7   26 1   
    14    8    9 ar  
    15    8   27 1   
    16    9   10 1   
    17   10   11 1   
    18   10   28 1   
    19   10   29 1   
    20   11   30 1   
    21   11   31 1   
    22   11   32 1   
    23   12   13 1   
    24   12   33 1   
    25   12   34 1   
    26   13   14 1   
    27   14   15 1   
    28   14   22 2   
    29   15   16 1   
    30   15   35 1   
    31   16   17 ar  
    32   16   21 ar  
    33   17   18 ar  
    34   18   19 ar  
    35   18   36 1   
    36   19   20 ar  
    37   19   37 1   
    38   20   21 ar  
    39   20   38 1   
    40   21   22 1   
@<TRIPOS>SUBSTRUCTURE
     1 D44         1 TEMP              0 ****  ****    0 ROOT
