@<TRIPOS>MOLECULE
D46
   48    44     1     0     0
SMALL
bcc


@<TRIPOS>ATOM
      1 C1         -3.3310   -0.6240   -3.6670 c1        1 D46     -0.127500
      2 CL1         0.0050   -1.5400   -9.9160 cl        1 D46      0.058000
      3 C2         -1.9600   -0.7810   -3.6890 c1        1 D46     -0.110000
      4 C3         -1.2280   -0.6520   -2.5190 c1        1 D46     -0.137000
      5 C4         -1.8860   -0.3600   -1.3070 c1        1 D46      0.075000
      6 C5         -3.2520   -0.2040   -1.2860 c1        1 D46     -0.140000
      7 C6         -3.9840   -0.3340   -2.4580 c1        1 D46     -0.127500
      8 C7          0.2840   -0.7290   -2.5590 c3        1 D46      0.001000
      9 N8          0.7080   -1.1250   -3.8790 n         1 D46     -0.367000
     10 C9          1.5800   -0.2640   -4.6460 c2        1 D46      0.373000
     11 C10         1.5060   -0.2660   -6.1780 c2        1 D46     -0.449000
     12 O11         2.4360    0.4080   -4.0760 o         1 D46     -0.346000
     13 N12        -1.1300   -0.3190   -0.0580 n         1 D46     -0.306000
     14 C13        -1.7860    0.1030    1.1810 c2        1 D46      0.388000
     15 C14        -0.9620    0.3220    2.4300 c2        1 D46     -0.382000
     16 O15        -2.9530    0.4170    1.1680 o         1 D46     -0.359000
     17 S16         0.6290   -1.2320   -7.0520 ss        1 D46      0.614000
     18 C17         0.8290   -0.8320   -8.5340 c2        1 D46     -0.366000
     19 C18         1.7620    0.2980   -8.5730 c1        1 D46     -0.162000
     20 C19         2.1860    0.6510   -7.0740 c1        1 D46     -0.078000
     21 N20        -0.9820    1.5350    3.2480 n2        1 D46     -0.088000
     22 C21        -0.0970    1.2930    4.5150 c1        1 D46     -0.072000
     23 C22         0.4540   -0.0820    4.4460 c1        1 D46     -0.430000
     24 S23        -0.0640   -0.7300    3.1520 ss        1 D46      0.670000
     25 C24         1.4330   -0.5300    5.5950 c2        1 D46      0.006000
     26 N25         1.8190    0.4470    6.4930 n3        1 D46     -0.254000
     27 C26         0.8530    1.4190    6.8700 c3        1 D46     -0.068000
     28 C27         0.1850    2.1120    5.7900 c2        1 D46     -0.090000
     29 C28         2.3680   -0.1770    7.6780 c3        1 D46     -0.120000
     30 H1         -3.8630   -0.7180   -4.5170 ha        1 D46      0.135500
     31 H2         -1.4780   -0.9950   -4.5800 ha        1 D46      0.129000
     32 H5         -3.7310    0.0080   -0.4030 ha        1 D46      0.167000
     33 H6         -4.9580   -0.2230   -2.4430 ha        1 D46      0.135500
     34 H7          0.6670    0.1550   -2.3430 h1        1 D46      0.114500
     35 H7A         0.5930   -1.3850   -1.9080 h1        1 D46      0.114500
     36 HN8         0.4460   -1.9490   -4.2250 hn        1 D46      0.217000
     37 HN12       -0.2500   -0.5430   -0.0530 hn        1 D46      0.256000
     38 H18         2.0730    0.7610   -9.3850 DU        1 D46      0.175500
     39 H19         2.8080    1.3730   -6.8020 DU        1 D46      0.175500
     40 H24         2.2410   -0.8930    5.1780 h4        1 D46      0.086500
     41 H24A        0.9850   -1.2720    6.1130 h4        1 D46      0.086500
     42 H26         1.3270    2.1020    7.3940 h1        1 D46      0.077000
     43 H26A        0.1590    0.9500    7.3820 h1        1 D46      0.077000
     44 H27         0.7570    2.9130    5.5280 ha        1 D46      0.110500
     45 H27A       -0.6790    2.4490    6.1320 ha        1 D46      0.110500
     46 H28         2.9760   -0.9120    7.4120 h1        1 D46      0.075000
     47 H28A        1.6360   -0.5390    8.2270 h1        1 D46      0.075000
     48 H28B        2.8700    0.4920    8.1980 h1        1 D46      0.075000
@<TRIPOS>BOND
     1    1    7 1   
     2    1   30 1   
     3    2   18 1   
     4    3    4 1   
     5    3   31 1   
     6    4    8 1   
     7    5    6 1   
     8    5   13 1   
     9    6   32 1   
    10    7   33 1   
    11    8    9 1   
    12    8   34 1   
    13    8   35 1   
    14    9   10 1   
    15    9   36 1   
    16   10   11 1   
    17   10   12 1   
    18   11   17 1   
    19   11   20 1   
    20   13   14 1   
    21   13   37 1   
    22   14   15 1   
    23   14   16 1   
    24   15   21 1   
    25   15   24 1   
    26   17   18 1   
    27   18   19 1   
    28   19   20 1   
    29   21   22 1   
    30   22   23 1   
    31   23   24 1   
    32   25   26 1   
    33   25   40 1   
    34   25   41 1   
    35   26   27 1   
    36   26   29 1   
    37   27   28 1   
    38   27   42 1   
    39   27   43 1   
    40   28   44 1   
    41   28   45 1   
    42   29   46 1   
    43   29   47 1   
    44   29   48 1   
@<TRIPOS>SUBSTRUCTURE
     1 D46         1 TEMP              0 ****  ****    0 ROOT
