@<TRIPOS>MOLECULE
D46
   50    53     1     0     0
SMALL
bcc


@<TRIPOS>ATOM
      1 C1          0.4400    0.2650    1.2360 ca        1 D46     -0.066000
      2 CL1         7.5950   -3.2370   -3.2910 cl        1 D46      0.086600
      3 C2          1.2960   -0.8350    1.1620 ca        1 D46     -0.099000
      4 C3          1.9000   -1.3670    2.3080 ca        1 D46     -0.133300
      5 C4          1.6180   -0.7680    3.5570 ca        1 D46     -0.009400
      6 C5          0.7550    0.3410    3.6310 ca        1 D46     -0.091000
      7 C6          0.1730    0.8520    2.4710 ca        1 D46     -0.068000
      8 C7          2.7600   -2.5780    2.1220 c3        1 D46      0.160100
      9 N8          4.1220   -2.2470    1.6030 n4        1 D46     -0.687800
     10 C9          5.0130   -3.5020    1.5350 c         1 D46      0.628700
     11 C10         5.7870   -3.6510    0.3480 cc        1 D46     -0.315700
     12 O11         4.9440   -4.2130    2.5290 o         1 D46     -0.447100
     13 N12         2.1780   -1.2760    4.8120 n4        1 D46     -0.542200
     14 C13         3.5630   -0.6910    5.1030 c         1 D46      0.545600
     15 C14         3.6770    0.1260    6.2700 cc        1 D46      0.099900
     16 O15         4.4300   -1.0160    4.2890 o         1 D46     -0.549100
     17 S16         5.8850   -2.6290   -0.9880 ss        1 D46      0.078200
     18 C17         6.9830   -3.6040   -1.7980 cc        1 D46      0.075300
     19 C18         7.3040   -4.7410   -1.0550 cd        1 D46     -0.168000
     20 C19         6.6220   -4.7740    0.1790 cd        1 D46      0.018000
     21 N20         2.5870    0.4500    7.0580 nd        1 D46     -0.623000
     22 C21         2.9880    1.2260    8.0820 cd        1 D46      0.401600
     23 C22         4.4070    1.4990    8.0870 cc        1 D46     -0.179700
     24 S23         5.1390    0.7940    6.8260 ss        1 D46      0.321700
     25 C24         5.0250    2.3250    9.1590 c3        1 D46      0.220100
     26 N25         4.0500    3.1380    9.8750 n3        1 D46     -0.726600
     27 C26         2.8850    2.3720   10.2940 c3        1 D46      0.156800
     28 C27         2.0880    1.8090    9.1140 c3        1 D46     -0.123700
     29 C28         4.6550    3.8920   10.9540 c3        1 D46      0.149100
     30 H1         -0.0290    0.6620    0.3170 ha        1 D46      0.190000
     31 H2          1.4800   -1.3060    0.1810 ha        1 D46      0.162000
     32 H5          0.5230    0.8190    4.6010 ha        1 D46      0.183000
     33 H6         -0.5080    1.7210    2.5400 ha        1 D46      0.193000
     34 H7          2.9040   -3.1730    3.0690 hx        1 D46      0.118700
     35 H7A         2.2710   -3.2720    1.3700 hx        1 D46      0.118700
     36 HN8         4.0400   -1.8140    0.6790 hn        1 D46      0.461800
     37 HN12        2.2600   -2.2980    4.7700 hn        1 D46      0.478800
     38 H18         8.0040   -5.5210   -1.3860 ha        1 D46      0.213000
     39 H19         6.7280   -5.5780    0.9190 ha        1 D46      0.200000
     40 H24         5.7820    3.0330    8.7090 h1        1 D46      0.078200
     41 H24A        5.5860    1.6210    9.8510 h1        1 D46      0.078200
     42 H26         3.1690    1.5200   10.9790 h1        1 D46      0.063200
     43 H26A        2.2070    3.0630   10.8710 h1        1 D46      0.063200
     44 H27         1.3700    1.0360    9.4990 hc        1 D46      0.090200
     45 H27A        1.4860    2.6310    8.6360 hc        1 D46      0.090200
     46 H28         3.8800    4.5850   11.3770 h1        1 D46      0.055700
     47 H28A        5.0520    3.2420   11.7800 h1        1 D46      0.055700
     48 H28B        5.4970    4.5070   10.5390 h1        1 D46      0.055700
     49 H82         4.5750   -1.5740    2.2390 hn        1 D46      0.461800
     50 H122        1.5280   -1.0390    5.5810 hn        1 D46      0.478800
@<TRIPOS>BOND
     1    1    3 ar  
     2    1    7 ar  
     3    1   30 1   
     4    2   18 1   
     5    3    4 ar  
     6    3   31 1   
     7    4    5 ar  
     8    4    8 1   
     9    5    6 ar  
    10    5   13 1   
    11    6    7 ar  
    12    6   32 1   
    13    7   33 1   
    14    8    9 1   
    15    8   34 1   
    16    8   35 1   
    17    9   10 1   
    18    9   36 1   
    19    9   49 1   
    20   10   11 1   
    21   10   12 2   
    22   11   17 1   
    23   11   20 2   
    24   13   14 1   
    25   13   37 1   
    26   13   50 1   
    27   14   15 1   
    28   14   16 2   
    29   15   21 2   
    30   15   24 1   
    31   17   18 1   
    32   18   19 2   
    33   19   20 1   
    34   19   38 1   
    35   20   39 1   
    36   21   22 1   
    37   22   23 2   
    38   22   28 1   
    39   23   24 1   
    40   23   25 1   
    41   25   26 1   
    42   25   40 1   
    43   25   41 1   
    44   26   27 1   
    45   26   29 1   
    46   27   28 1   
    47   27   42 1   
    48   27   43 1   
    49   28   44 1   
    50   28   45 1   
    51   29   46 1   
    52   29   47 1   
    53   29   48 1   
@<TRIPOS>SUBSTRUCTURE
     1 D46         1 TEMP              0 ****  ****    0 ROOT
