@<TRIPOS>MOLECULE
D46
   49    52     1     0     0
SMALL
bcc


@<TRIPOS>ATOM
      1 C1         -0.1730    0.0460    0.2200 ca        1 D46     -0.122000
      2 CL1         6.6770   -6.5410    3.3290 cl        1 D46      0.045600
      3 C2          1.1990   -0.1610    0.2270 ca        1 D46     -0.111000
      4 C3          1.9580    0.0250    1.3940 ca        1 D46     -0.171300
      5 C4          1.3180    0.4260    2.5870 ca        1 D46      0.091600
      6 C5         -0.0840    0.6390    2.5610 ca        1 D46     -0.151000
      7 C6         -0.8130    0.4500    1.3950 ca        1 D46     -0.071000
      8 C7          3.4330   -0.1720    1.2820 c3        1 D46      0.184100
      9 N8          3.7690   -1.6350    1.2290 n4        1 D46     -0.678800
     10 C9          5.1980   -1.8990    0.8040 c         1 D46      0.611700
     11 C10         5.8030   -3.0930    1.3290 cc        1 D46     -0.302700
     12 O11         5.6930   -1.0820    0.0350 o         1 D46     -0.445100
     13 N12         2.0040    0.7040    3.7900 n         1 D46     -0.456100
     14 C13         2.7870   -0.1940    4.4930 c         1 D46      0.638600
     15 C14         3.1820    0.1610    5.8750 cc        1 D46      0.239900
     16 O15         3.1920   -1.2660    3.9770 o         1 D46     -0.698100
     17 S16         5.1850   -4.1710    2.4570 ss        1 D46      0.137200
     18 C17         6.5310   -5.1590    2.4180 cc        1 D46      0.029300
     19 C18         7.5010   -4.6780    1.5380 cd        1 D46     -0.169000
     20 C19         7.0850   -3.4840    0.9090 cd        1 D46     -0.011000
     21 N20         2.8320    1.3170    6.4830 nd        1 D46     -0.600000
     22 C21         3.3530    1.3360    7.7530 cd        1 D46      0.359600
     23 C22         4.0920    0.1820    8.0970 cc        1 D46     -0.203700
     24 S23         4.1270   -0.8860    6.8360 ss        1 D46      0.106700
     25 C24         4.7210    0.0130    9.4310 c3        1 D46      0.241100
     26 N25         4.7750    1.2480   10.2070 n3        1 D46     -0.727600
     27 C26         3.5520    2.0350   10.1260 c3        1 D46      0.164800
     28 C27         3.2030    2.4710    8.7000 c3        1 D46     -0.110700
     29 C28         5.1960    1.0090   11.5700 c3        1 D46      0.153100
     30 H1         -0.7530   -0.0980   -0.7050 ha        1 D46      0.161000
     31 H2          1.7080   -0.4510   -0.7070 ha        1 D46      0.137000
     32 H5         -0.6090    0.9630    3.4760 ha        1 D46      0.159000
     33 H6         -1.9020    0.6210    1.3980 ha        1 D46      0.162000
     34 H7          3.9970    0.2680    2.1520 hx        1 D46      0.117700
     35 H7A         3.8160    0.3060    0.3310 hx        1 D46      0.117700
     36 HN8         3.5920   -2.0420    2.1620 hn        1 D46      0.468300
     37 HN12        1.6570    1.5030    4.2850 hn        1 D46      0.358500
     38 H18         8.4670   -5.1600    1.3530 ha        1 D46      0.198000
     39 H19         7.6870   -2.9280    0.1800 ha        1 D46      0.193000
     40 H24         4.1580   -0.8040    9.9810 h1        1 D46      0.055200
     41 H24A        5.7880   -0.3360    9.3060 h1        1 D46      0.055200
     42 H26         3.7040    2.9640   10.7460 h1        1 D46      0.046200
     43 H26A        2.6700    1.4760   10.5570 h1        1 D46      0.046200
     44 H27         2.1530    2.8640    8.6910 hc        1 D46      0.077200
     45 H27A        3.8860    3.3020    8.3750 hc        1 D46      0.077200
     46 H28         6.1730    0.4590   11.5560 h1        1 D46      0.042367
     47 H28A        5.3470    1.9990   12.0750 h1        1 D46      0.042367
     48 H28B        4.4540    0.4090   12.1660 h1        1 D46      0.042367
     49 H82         3.1430   -2.0910    0.5560 hn        1 D46      0.468300
@<TRIPOS>BOND
     1    1    3 ar  
     2    1    7 ar  
     3    1   30 1   
     4    2   18 1   
     5    3    4 ar  
     6    3   31 1   
     7    4    5 ar  
     8    4    8 1   
     9    5    6 ar  
    10    5   13 1   
    11    6    7 ar  
    12    6   32 1   
    13    7   33 1   
    14    8    9 1   
    15    8   34 1   
    16    8   35 1   
    17    9   10 1   
    18    9   36 1   
    19    9   49 1   
    20   10   11 1   
    21   10   12 2   
    22   11   17 1   
    23   11   20 2   
    24   13   14 1   
    25   13   37 1   
    26   14   15 1   
    27   14   16 2   
    28   15   21 2   
    29   15   24 1   
    30   17   18 1   
    31   18   19 2   
    32   19   20 1   
    33   19   38 1   
    34   20   39 1   
    35   21   22 1   
    36   22   23 2   
    37   22   28 1   
    38   23   24 1   
    39   23   25 1   
    40   25   26 1   
    41   25   40 1   
    42   25   41 1   
    43   26   27 1   
    44   26   29 1   
    45   27   28 1   
    46   27   42 1   
    47   27   43 1   
    48   28   44 1   
    49   28   45 1   
    50   29   46 1   
    51   29   47 1   
    52   29   48 1   
@<TRIPOS>SUBSTRUCTURE
     1 D46         1 TEMP              0 ****  ****    0 ROOT
