@<TRIPOS>MOLECULE
D46
   49    52     1     0     0
SMALL
bcc


@<TRIPOS>ATOM
      1 C1         -0.1520    0.0870    0.2040 ca        1 D46     -0.122000
      2 Cl1         6.6980   -6.5120    3.3130 cl        1 D46      0.045600
      3 C2          1.2200   -0.1210    0.2160 ca        1 D46     -0.111000
      4 C3          1.9730    0.0530    1.3890 ca        1 D46     -0.171300
      5 C4          1.3270    0.4440    2.5820 ca        1 D46      0.091600
      6 C5         -0.0750    0.6590    2.5500 ca        1 D46     -0.151000
      7 C6         -0.7970    0.4810    1.3790 ca        1 D46     -0.071000
      8 C7          3.4480   -0.1440    1.2820 c3        1 D46      0.184100
      9 N8          3.7830   -1.6070    1.2180 ny        1 D46     -0.678800
     10 C9          5.2130   -1.8680    0.7950 c         1 D46      0.611700
     11 C10         5.8190   -3.0620    1.3190 cc        1 D46     -0.302700
     12 O11         5.7080   -1.0490    0.0270 o         1 D46     -0.445100
     13 N12         2.0070    0.7110    3.7910 ns        1 D46     -0.456100
     14 C13         2.7860   -0.1940    4.4900 c         1 D46      0.638600
     15 C14         3.1750    0.1490    5.8770 cc        1 D46      0.239900
     16 O15         3.1920   -1.2610    3.9670 o         1 D46     -0.698100
     17 S16         5.2020   -4.1440    2.4430 ss        1 D46      0.137200
     18 C17         6.5500   -5.1290    2.4050 cc        1 D46      0.029300
     19 C18         7.5210   -4.6440    1.5280 cd        1 D46     -0.169000
     20 C19         7.1030   -3.4500    0.9010 cd        1 D46     -0.011000
     21 N20         2.8250    1.3010    6.4920 nd        1 D46     -0.600000
     22 C21         3.3390    1.3080    7.7650 cd        1 D46      0.359600
     23 C22         4.0730    0.1490    8.1040 cc        1 D46     -0.202700
     24 S23         4.1120   -0.9090    6.8340 ss        1 D46      0.106700
     25 C24         4.6940   -0.0330    9.4400 c3        1 D46      0.241100
     26 N25         4.7480    1.1960   10.2250 n3        1 D46     -0.727600
     27 C26         3.5280    1.9880   10.1440 c3        1 D46      0.164800
     28 C27         3.1870    2.4350    8.7200 c3        1 D46     -0.110700
     29 C28         5.1620    0.9450   11.5890 c3        1 D46      0.153100
     30 H1         -0.7270   -0.0490   -0.7250 ha        1 D46      0.161000
     31 H2          1.7330   -0.4040   -0.7170 ha        1 D46      0.137000
     32 H5         -0.6030    0.9760    3.4660 ha        1 D46      0.159000
     33 H6         -1.8870    0.6540    1.3770 ha        1 D46      0.162000
     34 H7          3.8370    0.3420    0.3380 hx        1 D46      0.117700
     35 H7A         4.0080    0.2870    2.1590 hx        1 D46      0.117700
     36 HN8         3.6030   -2.0220    2.1470 hn        1 D46      0.468300
     37 HN12        1.6590    1.5060    4.2910 hn        1 D46      0.358500
     38 H18         8.4890   -5.1230    1.3430 ha        1 D46      0.198000
     39 H19         7.7060   -2.8910    0.1740 ha        1 D46      0.193000
     40 H24         5.7610   -0.3840    9.3170 h1        1 D46      0.055200
     41 H24A        4.1260   -0.8520    9.9800 h1        1 D46      0.055200
     42 H26         2.6420    1.4270   10.5660 h1        1 D46      0.046200
     43 H26A        3.6790    2.9110   10.7730 h1        1 D46      0.046200
     44 H27         2.1380    2.8320    8.7090 hc        1 D46      0.077200
     45 H27A        3.8740    3.2680    8.4050 hc        1 D46      0.077200
     46 H28         4.4150    0.3430   12.1770 h1        1 D46      0.042367
     47 H28A        6.1380    0.3930   11.5750 h1        1 D46      0.042367
     48 H28B        5.3130    1.9310   12.1020 h1        1 D46      0.042367
     49 H82         3.1590   -2.0560    0.5390 hn        1 D46      0.468300
@<TRIPOS>BOND
     1    1    3 ar  
     2    1    7 ar  
     3    1   30 1   
     4    2   18 1   
     5    3    4 ar  
     6    3   31 1   
     7    4    5 ar  
     8    4    8 1   
     9    5    6 ar  
    10    5   13 1   
    11    6    7 ar  
    12    6   32 1   
    13    7   33 1   
    14    8    9 1   
    15    8   34 1   
    16    8   35 1   
    17    9   10 1   
    18    9   36 1   
    19    9   49 1   
    20   10   11 1   
    21   10   12 2   
    22   11   17 1   
    23   11   20 2   
    24   13   14 1   
    25   13   37 1   
    26   14   15 1   
    27   14   16 2   
    28   15   21 2   
    29   15   24 1   
    30   17   18 1   
    31   18   19 2   
    32   19   20 1   
    33   19   38 1   
    34   20   39 1   
    35   21   22 1   
    36   22   23 2   
    37   22   28 1   
    38   23   24 1   
    39   23   25 1   
    40   25   26 1   
    41   25   40 1   
    42   25   41 1   
    43   26   27 1   
    44   26   29 1   
    45   27   28 1   
    46   27   42 1   
    47   27   43 1   
    48   28   44 1   
    49   28   45 1   
    50   29   46 1   
    51   29   47 1   
    52   29   48 1   
@<TRIPOS>SUBSTRUCTURE
     1 D46         1 TEMP              0 ****  ****    0 ROOT
