@<TRIPOS>MOLECULE
D46
   48    51     1     0     0
SMALL
bcc


@<TRIPOS>ATOM
      1 C1         -2.0520    5.2120    0.4410 ca        1 D46     -0.152000
      2 CL1        -3.4420   -4.4240   -0.3710 cl        1 D46     -0.022400
      3 C2         -1.9510    4.3570   -0.6530 ca        1 D46     -0.090000
      4 C3         -1.0140    3.3220   -0.6770 ca        1 D46     -0.162300
      5 C4         -0.1500    3.1340    0.4340 ca        1 D46      0.071600
      6 C5         -0.2620    4.0110    1.5360 ca        1 D46     -0.150000
      7 C6         -1.2060    5.0320    1.5320 ca        1 D46     -0.102000
      8 C7         -0.9540    2.4510   -1.9020 c3        1 D46      0.124300
      9 N8         -1.4350    1.1070   -1.7080 n         1 D46     -0.555900
     10 C9         -2.6220    0.6790   -2.2970 c         1 D46      0.701700
     11 C10        -3.1190   -0.6510   -1.9070 cc        1 D46     -0.198700
     12 O11        -3.2080    1.3690   -3.1550 o         1 D46     -0.593100
     13 N12         0.8080    2.1030    0.3990 n         1 D46     -0.457100
     14 C13         1.4340    1.5360    1.4940 c         1 D46      0.602600
     15 C14         2.4280    0.4560    1.2230 cc        1 D46      0.280900
     16 O15         1.2080    1.8770    2.6720 o         1 D46     -0.595100
     17 S16        -2.2670   -1.8100   -1.0480 ss        1 D46      0.084200
     18 C17        -3.5320   -2.9120   -1.0780 cc        1 D46     -0.020700
     19 C18        -4.6330   -2.4130   -1.7560 cd        1 D46     -0.163000
     20 C19        -4.3890   -1.0970   -2.2410 cd        1 D46     -0.079000
     21 N20         2.6170   -0.1320    0.0270 nd        1 D46     -0.616000
     22 C21         3.6020   -1.0880    0.1460 cd        1 D46      0.350600
     23 C22         4.1490   -1.2070    1.4370 cc        1 D46     -0.231700
     24 S23         3.4230   -0.1400    2.4780 ss        1 D46      0.091700
     25 C24         5.2280   -2.1710    1.7620 c3        1 D46      0.249100
     26 N25         5.4880   -3.1440    0.7040 n3        1 D46     -0.728600
     27 C26         5.4140   -2.5850   -0.6390 c3        1 D46      0.168800
     28 C27         4.0560   -1.9590   -0.9680 c3        1 D46     -0.105700
     29 C28         6.7170   -3.8700    0.9340 c3        1 D46      0.156100
     30 H1         -2.7970    6.0210    0.4420 ha        1 D46      0.137000
     31 H2         -2.6240    4.4930   -1.5160 ha        1 D46      0.143000
     32 H5          0.3920    3.8880    2.4160 ha        1 D46      0.168000
     33 H6         -1.2790    5.7000    2.4030 ha        1 D46      0.137000
     34 H7         -1.5530    2.9320   -2.7320 h1        1 D46      0.071200
     35 H7A         0.1140    2.3840   -2.2680 h1        1 D46      0.071200
     36 HN8        -1.1470    0.6500   -0.8740 hn        1 D46      0.304500
     37 HN12        1.0510    1.7630   -0.5070 hn        1 D46      0.341500
     38 H18        -5.5730   -2.9480   -1.9080 ha        1 D46      0.170000
     39 H19        -5.1140   -0.5080   -2.8120 ha        1 D46      0.179000
     40 H24         6.1610   -1.5810    2.0210 h1        1 D46      0.047700
     41 H24A        4.9390   -2.7670    2.6770 h1        1 D46      0.047700
     42 H26         6.2170   -1.8080   -0.8080 h1        1 D46      0.038200
     43 H26A        5.5960   -3.4260   -1.3670 h1        1 D46      0.038200
     44 H27         3.2900   -2.7650   -1.1310 hc        1 D46      0.070700
     45 H27A        4.1500   -1.3760   -1.9210 hc        1 D46      0.070700
     46 H28         6.6810   -4.3260    1.9580 h1        1 D46      0.036033
     47 H28A        6.7950   -4.6920    0.1760 h1        1 D46      0.036033
     48 H28B        7.6370   -3.2260    0.8620 h1        1 D46      0.036033
@<TRIPOS>BOND
     1    1    3 ar  
     2    1    7 ar  
     3    1   30 1   
     4    2   18 1   
     5    3    4 ar  
     6    3   31 1   
     7    4    5 ar  
     8    4    8 1   
     9    5    6 ar  
    10    5   13 1   
    11    6    7 ar  
    12    6   32 1   
    13    7   33 1   
    14    8    9 1   
    15    8   34 1   
    16    8   35 1   
    17    9   10 1   
    18    9   36 1   
    19   10   11 1   
    20   10   12 2   
    21   11   17 1   
    22   11   20 2   
    23   13   14 1   
    24   13   37 1   
    25   14   15 1   
    26   14   16 2   
    27   15   21 2   
    28   15   24 1   
    29   17   18 1   
    30   18   19 2   
    31   19   20 1   
    32   19   38 1   
    33   20   39 1   
    34   21   22 1   
    35   22   23 2   
    36   22   28 1   
    37   23   24 1   
    38   23   25 1   
    39   25   26 1   
    40   25   40 1   
    41   25   41 1   
    42   26   27 1   
    43   26   29 1   
    44   27   28 1   
    45   27   42 1   
    46   27   43 1   
    47   28   44 1   
    48   28   45 1   
    49   29   46 1   
    50   29   47 1   
    51   29   48 1   
@<TRIPOS>SUBSTRUCTURE
     1 D46         1 TEMP              0 ****  ****    0 ROOT
