@<TRIPOS>MOLECULE
D4D
   35    36     1     0     0
SMALL
bcc


@<TRIPOS>ATOM
      1 PA          0.0000    0.0000    0.0000 p5        1 D4D      0.884800
      2 O1A         1.4800    0.0000    0.0000 o         1 D4D     -0.683500
      3 O2A        -0.5370    0.0000    1.5180 o         1 D4D     -0.683500
      4 O3A        -0.5360    1.3140   -0.7600 os        1 D4D     -0.463800
      5 PB          0.4210    2.5310   -0.3180 p5        1 D4D      0.799900
      6 O1B         1.7850    2.4770   -1.1690 o         1 D4D     -0.651833
      7 O2B         0.7350    2.4130    1.1240 o         1 D4D     -0.651833
      8 O3B        -0.3270    3.9300   -0.5900 o         1 D4D     -0.651833
      9 O5'        -0.5360   -1.3150   -0.7590 os        1 D4D     -0.479200
     10 C5'         0.0660   -2.4390   -0.1140 c3        1 D4D      0.239400
     11 C4'        -0.4040   -3.7280   -0.7920 c3        1 D4D      0.182300
     12 O4'         0.1000   -3.7940   -2.1400 os        1 D4D     -0.339600
     13 C3'         0.1690   -4.9320   -0.0800 c2        1 D4D     -0.082200
     14 C2'         0.5880   -5.7870   -0.9840 c2        1 D4D     -0.257200
     15 C1'         0.3220   -5.2010   -2.3510 c3        1 D4D      0.263700
     16 N1          1.4810   -5.4050   -3.2240 n         1 D4D      0.089000
     17 C2          2.6530   -4.8190   -2.9220 c         1 D4D      0.571500
     18 O2          2.7380   -4.1250   -1.9270 o         1 D4D     -0.668500
     19 N3          3.7340   -4.9890   -3.7060 ns        1 D4D     -0.148500
     20 C4          3.6580   -5.7590   -4.8100 c         1 D4D      0.607700
     21 O4          4.6360   -5.9140   -5.5190 o         1 D4D     -0.797500
     22 C5          2.4290   -6.3780   -5.1430 cc        1 D4D     -0.373400
     23 C5M         2.3170   -7.2390   -6.3740 c3        1 D4D      0.131100
     24 C6          1.3610   -6.1900   -4.3390 cd        1 D4D     -0.285400
     25 H5'1       -0.2230   -2.4530    0.9300 h1        1 D4D      0.023200
     26 H5'2        1.1440   -2.3630   -0.1890 h1        1 D4D      0.023200
     27 H4'C       -1.4860   -3.7800   -0.7970 h1        1 D4D      0.005700
     28 H3'C       -0.2900   -5.2900    0.8330 ha        1 D4D      0.086000
     29 H2'C        0.4690   -6.8510   -0.8190 ha        1 D4D      0.087000
     30 H1'C       -0.5620   -5.6550   -2.7840 h2        1 D4D      0.000700
     31 HN3         4.5980   -4.5460   -3.4660 hn        1 D4D      0.182500
     32 H5M1        3.2670   -7.7220   -6.5650 hc        1 D4D     -0.023300
     33 H5M2        2.0490   -6.6220   -7.2230 hc        1 D4D     -0.023300
     34 H5M3        1.5530   -7.9920   -6.2190 hc        1 D4D     -0.023300
     35 H66         0.4120   -6.6550   -4.5770 h4        1 D4D      0.108000
@<TRIPOS>BOND
     1    1    2 1   
     2    1    3 1   
     3    1    4 1   
     4    1    9 1   
     5    4    5 1   
     6    5    6 1   
     7    5    7 1   
     8    5    8 1   
     9    9   10 1   
    10   10   11 1   
    11   10   25 1   
    12   10   26 1   
    13   11   12 1   
    14   11   13 1   
    15   11   27 1   
    16   12   15 1   
    17   13   14 2   
    18   13   28 1   
    19   14   15 1   
    20   14   29 1   
    21   15   16 1   
    22   15   30 1   
    23   16   17 1   
    24   16   24 1   
    25   17   18 2   
    26   17   19 1   
    27   19   20 1   
    28   19   31 1   
    29   20   21 2   
    30   20   22 1   
    31   22   23 1   
    32   22   24 2   
    33   23   32 1   
    34   23   33 1   
    35   23   34 1   
    36   24   35 1   
@<TRIPOS>SUBSTRUCTURE
     1 D4D         1 TEMP              0 ****  ****    0 ROOT
