@<TRIPOS>MOLECULE
D4G
   22    23     1     0     0
SMALL
bcc


@<TRIPOS>ATOM
      1 C3         -3.0710   -0.0300    0.9190 ca        1 D4G     -0.236300
      2 C2         -4.0800    0.8420    0.4770 ca        1 D4G      0.407700
      3 N_1        -4.0420    1.4890   -0.7050 nb        1 D4G     -0.660000
      4 C1         -2.9730    1.2680   -1.4930 ca        1 D4G      0.407700
      5 C5         -1.9160    0.4070   -1.1460 ca        1 D4G     -0.236300
      6 C4         -1.9670   -0.2540    0.0830 ca        1 D4G      0.015900
      7 S_1        -0.8200   -1.3610    0.6670 ss        1 D4G     -0.065900
      8 S_2         0.8200   -1.3600   -0.6670 ss        1 D4G     -0.065900
      9 C6          1.9670   -0.2540   -0.0830 ca        1 D4G      0.015900
     10 C7          1.9160    0.4070    1.1460 ca        1 D4G     -0.236300
     11 C8          2.9730    1.2680    1.4930 ca        1 D4G      0.407700
     12 N_2         4.0420    1.4890    0.7060 nb        1 D4G     -0.660000
     13 C9          4.0800    0.8420   -0.4770 ca        1 D4G      0.407700
     14 C10         3.0710   -0.0300   -0.9190 ca        1 D4G     -0.236300
     15 H3         -3.1510   -0.5260    1.8970 ha        1 D4G      0.156500
     16 H2         -4.9670    1.0380    1.1050 h4        1 D4G      0.028100
     17 H1         -2.9630    1.8090   -2.4560 h4        1 D4G      0.028100
     18 H5         -1.0680    0.2610   -1.8330 ha        1 D4G      0.156500
     19 H7          1.0680    0.2610    1.8330 ha        1 D4G      0.156500
     20 H8          2.9630    1.8090    2.4560 h4        1 D4G      0.028100
     21 H9          4.9670    1.0390   -1.1050 h4        1 D4G      0.028100
     22 H10         3.1500   -0.5260   -1.8970 ha        1 D4G      0.156500
@<TRIPOS>BOND
     1    1    2 ar  
     2    1    6 ar  
     3    1   15 1   
     4    2    3 ar  
     5    2   16 1   
     6    3    4 ar  
     7    4    5 ar  
     8    4   17 1   
     9    5    6 ar  
    10    5   18 1   
    11    6    7 1   
    12    7    8 1   
    13    8    9 1   
    14    9   10 ar  
    15    9   14 ar  
    16   10   11 ar  
    17   10   19 1   
    18   11   12 ar  
    19   11   20 1   
    20   12   13 ar  
    21   13   14 ar  
    22   13   21 1   
    23   14   22 1   
@<TRIPOS>SUBSTRUCTURE
     1 D4G         1 TEMP              0 ****  ****    0 ROOT
