@<TRIPOS>MOLECULE
D4G
   22    23     1     0     0
SMALL
bcc


@<TRIPOS>ATOM
      1 C3          0.1120   -0.1800   -0.0530 ca        1 D4G     -0.236300
      2 C2          1.4970   -0.3610   -0.1950 ca        1 D4G      0.407700
      3 N_1         2.3470   -0.4690    0.8470 nb        1 D4G     -0.660000
      4 C1          1.8170   -0.4010    2.0820 ca        1 D4G      0.407700
      5 C5          0.4430   -0.2310    2.3310 ca        1 D4G     -0.236300
      6 C4         -0.4250   -0.1180    1.2420 ca        1 D4G      0.015900
      7 S_1        -2.1120    0.0500    1.3270 ss        1 D4G     -0.065900
      8 S_2        -2.6360    0.3220    3.3570 ss        1 D4G     -0.065900
      9 C6         -2.7120    1.9900    3.6560 ca        1 D4G      0.015900
     10 C7         -2.6150    3.0010    2.6970 ca        1 D4G     -0.236300
     11 C8         -2.7360    4.3390    3.1130 ca        1 D4G      0.407700
     12 N_2        -2.9460    4.7060    4.3910 nb        1 D4G     -0.660000
     13 C9         -3.0390    3.7200    5.3060 ca        1 D4G      0.407700
     14 C10        -2.9250    2.3550    4.9940 ca        1 D4G     -0.236300
     15 H3         -0.5330   -0.0910   -0.9380 ha        1 D4G      0.156500
     16 H2          1.9560   -0.4200   -1.1980 h4        1 D4G      0.028100
     17 H1          2.5320   -0.4900    2.9200 h4        1 D4G      0.028100
     18 H5          0.0640   -0.1870    3.3630 ha        1 D4G      0.156500
     19 H7         -2.4490    2.7590    1.6360 ha        1 D4G      0.156500
     20 H8         -2.6610    5.1630    2.3800 h4        1 D4G      0.028100
     21 H9         -3.2130    4.0450    6.3480 h4        1 D4G      0.028100
     22 H10        -3.0020    1.5940    5.7830 ha        1 D4G      0.156500
@<TRIPOS>BOND
     1    1    2 ar  
     2    1    6 ar  
     3    1   15 1   
     4    2    3 ar  
     5    2   16 1   
     6    3    4 ar  
     7    4    5 ar  
     8    4   17 1   
     9    5    6 ar  
    10    5   18 1   
    11    6    7 1   
    12    7    8 1   
    13    8    9 1   
    14    9   10 ar  
    15    9   14 ar  
    16   10   11 ar  
    17   10   19 1   
    18   11   12 ar  
    19   11   20 1   
    20   12   13 ar  
    21   13   14 ar  
    22   13   21 1   
    23   14   22 1   
@<TRIPOS>SUBSTRUCTURE
     1 D4G         1 TEMP              0 ****  ****    0 ROOT
