@<TRIPOS>MOLECULE
D4G
   22    23     1     0     0
SMALL
bcc


@<TRIPOS>ATOM
      1 C3          0.1230   -0.1740   -0.0510 ca        1 D4G     -0.236300
      2 C2          1.5080   -0.3590   -0.1850 ca        1 D4G      0.407700
      3 N_1         2.3510   -0.4740    0.8610 nb        1 D4G     -0.660000
      4 C1          1.8130   -0.4100    2.0930 ca        1 D4G      0.407700
      5 C5          0.4380   -0.2360    2.3340 ca        1 D4G     -0.236300
      6 C4         -0.4230   -0.1160    1.2400 ca        1 D4G      0.015900
      7 S_1        -2.1090    0.0580    1.3150 ss        1 D4G     -0.065900
      8 S_2        -2.6450    0.3240    3.3430 ss        1 D4G     -0.065900
      9 C6         -2.7170    1.9920    3.6480 ca        1 D4G      0.015900
     10 C7         -2.6120    3.0050    2.6920 ca        1 D4G     -0.236300
     11 C8         -2.7300    4.3430    3.1130 ca        1 D4G      0.407700
     12 N_2        -2.9460    4.7050    4.3910 nb        1 D4G     -0.660000
     13 C9         -3.0480    3.7170    5.3020 ca        1 D4G      0.407700
     14 C10        -2.9350    2.3530    4.9860 ca        1 D4G     -0.236300
     15 H3         -0.5170   -0.0790   -0.9400 ha        1 D4G      0.156500
     16 H2          1.9730   -0.4160   -1.1860 h4        1 D4G      0.028100
     17 H1          2.5220   -0.5060    2.9350 h4        1 D4G      0.028100
     18 H5          0.0530   -0.1960    3.3640 ha        1 D4G      0.156500
     19 H7         -2.4410    2.7670    1.6320 ha        1 D4G      0.156500
     20 H8         -2.6500    5.1690    2.3840 h4        1 D4G      0.028100
     21 H9         -3.2250    4.0390    6.3440 h4        1 D4G      0.028100
     22 H10        -3.0190    1.5890    5.7720 ha        1 D4G      0.156500
@<TRIPOS>BOND
     1    1    2 ar  
     2    1    6 ar  
     3    1   15 1   
     4    2    3 ar  
     5    2   16 1   
     6    3    4 ar  
     7    4    5 ar  
     8    4   17 1   
     9    5    6 ar  
    10    5   18 1   
    11    6    7 1   
    12    7    8 1   
    13    8    9 1   
    14    9   10 ar  
    15    9   14 ar  
    16   10   11 ar  
    17   10   19 1   
    18   11   12 ar  
    19   11   20 1   
    20   12   13 ar  
    21   13   14 ar  
    22   13   21 1   
    23   14   22 1   
@<TRIPOS>SUBSTRUCTURE
     1 D4G         1 TEMP              0 ****  ****    0 ROOT
