@<TRIPOS>MOLECULE
D4M
   31    32     1     0     0
SMALL
bcc


@<TRIPOS>ATOM
      1 OP2        -0.5660   -1.1900    1.1510 o         1 D4M     -0.920833
      2 P          -2.0390   -0.9350    1.4040 p5        1 D4M      1.334900
      3 OP1        -2.8520   -0.9060    0.1350 o         1 D4M     -0.920833
      4 OP3        -2.6310   -1.5440    2.6330 o         1 D4M     -0.920833
      5 O5'        -2.0410    0.7750    1.7390 os        1 D4M     -0.564200
      6 C5'        -0.8960    1.4740    1.4920 c3        1 D4M      0.226400
      7 C4'        -0.9280    2.1890    0.1180 c3        1 D4M      0.090300
      8 O4'         0.3950    2.7150   -0.2050 os        1 D4M     -0.451600
      9 C3'        -1.2910    1.2850   -1.0300 c2        1 D4M     -0.092200
     10 C2'        -0.2720    1.2270   -1.9070 c2        1 D4M     -0.317200
     11 C1'         0.9010    2.0250   -1.3640 c3        1 D4M      0.336700
     12 N1          2.0310    1.1510   -1.0020 n         1 D4M     -0.363000
     13 C6          1.8310    0.0100   -0.2360 cc        1 D4M      0.068600
     14 C5          2.8720   -0.7650    0.2060 cd        1 D4M     -0.301400
     15 C5M         2.6050   -1.9700    1.0180 c3        1 D4M     -0.040900
     16 C4          4.2480   -0.3940   -0.0990 c         1 D4M      0.716700
     17 O4          5.2900   -0.9980    0.2390 o         1 D4M     -0.694500
     18 N3          4.4170    0.7790   -0.8670 n         1 D4M     -0.599500
     19 C2          3.3410    1.5690   -1.3070 c         1 D4M      0.794500
     20 O2          3.5930    2.5970   -1.9900 o         1 D4M     -0.718500
     21 H5'         0.0160    0.8150    1.5360 h1        1 D4M      0.005700
     22 H5''       -0.7850    2.2930    2.2640 h1        1 D4M      0.005700
     23 H4'        -1.5990    3.0860    0.1550 h1        1 D4M      0.047700
     24 H3'        -2.2140    0.6610   -0.9490 ha        1 D4M      0.265000
     25 H2'        -0.1890    0.6570   -2.8270 ha        1 D4M      0.137000
     26 H1'         1.2960    2.8200   -2.0590 h2        1 D4M      0.083700
     27 H6          0.7560   -0.2800    0.0210 h4        1 D4M      0.307000
     28 H71         1.5060   -2.0150    1.2810 hc        1 D4M      0.056700
     29 H72         2.8870   -2.8910    0.4500 hc        1 D4M      0.056700
     30 H73         3.2110   -1.9450    1.9560 hc        1 D4M      0.056700
     31 H3          5.3310    1.0960   -1.0920 hn        1 D4M      0.317500
@<TRIPOS>BOND
     1    1    2 1   
     2    2    3 1   
     3    2    4 1   
     4    2    5 1   
     5    5    6 1   
     6    6    7 1   
     7    6   21 1   
     8    6   22 1   
     9    7    8 1   
    10    7    9 1   
    11    7   23 1   
    12    8   11 1   
    13    9   10 2   
    14    9   24 1   
    15   10   11 1   
    16   10   25 1   
    17   11   12 1   
    18   11   26 1   
    19   12   13 1   
    20   12   19 1   
    21   13   14 2   
    22   13   27 1   
    23   14   15 1   
    24   14   16 1   
    25   15   28 1   
    26   15   29 1   
    27   15   30 1   
    28   16   17 2   
    29   16   18 1   
    30   18   19 1   
    31   18   31 1   
    32   19   20 2   
@<TRIPOS>SUBSTRUCTURE
     1 D4M         1 TEMP              0 ****  ****    0 ROOT
