@<TRIPOS>MOLECULE
D4M
   31    30     1     0     0
SMALL
bcc


@<TRIPOS>ATOM
      1 OP2        -1.2450   -3.1130    4.6410 o         1 D4M     -0.921833
      2 P           0.2350   -3.0470    4.7000 p5        1 D4M      1.550500
      3 OP1         0.6830   -3.0010    6.1600 o         1 D4M     -0.921833
      4 OP3         0.8280   -4.2870    4.0180 o         1 D4M     -0.921833
      5 O5'         0.7380   -1.7410    3.9540 os        1 D4M     -0.732000
      6 C5'         0.3170   -1.5180    2.6020 c3        1 D4M      0.070000
      7 C4'         1.1990   -0.5590    1.9790 c3        1 D4M     -0.022000
      8 O4'         1.1090   -0.6920    0.3490 os        1 D4M     -0.308000
      9 C3'         0.7470    0.5980    2.1360 c2        1 D4M     -0.056000
     10 C2'         0.8450    1.4050    1.0510 c1        1 D4M     -0.329000
     11 C1'         1.0760    0.7260   -0.1460 c2        1 D4M      0.187000
     12 N1          0.1120    0.9740   -1.1610 n         1 D4M     -0.254000
     13 C6          0.4570    0.7700   -2.5440 c2        1 D4M      0.081000
     14 C5         -0.5530    0.9560   -3.5800 c1        1 D4M     -0.287000
     15 C5M        -0.2600    0.5550   -4.9920 c2        1 D4M     -0.147000
     16 C4         -1.8960    1.4860   -3.2190 c2        1 D4M      0.358000
     17 O4         -2.7310    1.6400   -4.0740 o         1 D4M     -0.412000
     18 N3         -2.2230    1.7240   -1.8500 n         1 D4M     -0.378000
     19 C2         -1.2140    1.5020   -0.8050 c2        1 D4M      0.387000
     20 O2         -1.4780    1.7590    0.3650 o         1 D4M     -0.436000
     21 H5'        -0.5930   -1.1720    2.5960 h1        1 D4M      0.056000
     22 H5''        0.3470   -2.3190    2.1320 h1        1 D4M      0.056000
     23 H4'         2.0650   -0.7790    2.4150 h1        1 D4M      0.080000
     24 H3'         0.5940    0.9610    3.0160 ha        1 D4M      0.257000
     25 H2'         1.1510    2.3350    1.1560 ha        1 D4M      0.135000
     26 H1'         1.9200    1.0010   -0.5860 h5        1 D4M      0.122000
     27 H6          1.3690    0.3950   -2.7890 h4        1 D4M      0.281000
     28 H71         0.6650    0.1730   -5.0450 ha        1 D4M      0.089333
     29 H72        -0.9010   -0.1110   -5.2770 ha        1 D4M      0.089333
     30 H73        -0.3230    1.3290   -5.5680 ha        1 D4M      0.089333
     31 H3         -3.0390    2.0480   -1.6300 hn        1 D4M      0.234000
@<TRIPOS>BOND
     1    1    2 1   
     2    2    3 1   
     3    2    4 1   
     4    2    5 1   
     5    5    6 1   
     6    6    7 1   
     7    6   21 1   
     8    6   22 1   
     9    7    8 1   
    10    7    9 1   
    11    7   23 1   
    12    8   11 1   
    13    9   10 1   
    14    9   24 1   
    15   10   25 1   
    16   11   12 1   
    17   11   26 1   
    18   12   13 1   
    19   12   19 1   
    20   13   14 1   
    21   13   27 1   
    22   14   16 1   
    23   15   28 1   
    24   15   29 1   
    25   15   30 1   
    26   16   17 1   
    27   16   18 1   
    28   18   19 1   
    29   18   31 1   
    30   19   20 1   
@<TRIPOS>SUBSTRUCTURE
     1 D4M         1 TEMP              0 ****  ****    0 ROOT
