@<TRIPOS>MOLECULE
D4N
   57    56     1     0     0
SMALL
bcc


@<TRIPOS>ATOM
      1 O1          1.9810   -2.2550   -2.5380 o         1 D4N     -0.414000
      2 C1          3.2180   -0.8060   -1.0840 c3        1 D4N     -0.374000
      3 C2          5.5420   -4.1160   -8.4240 c3        1 D4N      0.376000
      4 C3          2.2290   -1.0750   -2.1890 c2        1 D4N      0.347000
      5 C5          6.1550   -5.2580   -7.5070 c3        1 D4N      0.064000
      6 C6          4.6260   -0.4200   -1.4800 c3        1 D4N     -0.343000
      7 C7          5.6520   -6.6110   -7.9790 c3        1 D4N     -0.218000
      8 C8          5.7460   -4.9570   -6.0590 c3        1 D4N     -0.168000
      9 C9          6.4430   -5.8510   -5.1030 c2        1 D4N     -0.070000
     10 C10         6.0190   -6.1140   -3.9020 c1        1 D4N      0.027000
     11 C11         5.6050   -6.4310   -2.6900 c2        1 D4N     -0.673000
     12 C12         4.8060   -7.5720   -2.4850 c1        1 D4N     -0.183000
     13 C13         4.1450   -8.5610   -2.3520 c1        1 D4N     -0.100000
     14 C14         3.7460    0.6220   -0.9240 c1        1 D4N      0.268000
     15 C18         4.3880   -5.1080   -0.7080 c3        1 D4N     -0.621000
     16 F3          4.1970   -3.9270   -8.2500 f         1 D4N     -0.157667
     17 O6          7.5580   -5.2560   -7.6580 oh        1 D4N     -0.293000
     18 O15         6.6250   -6.3510   -0.3410 o         1 D4N     -0.901000
     19 O16         6.6390   -4.3500   -1.6610 o         1 D4N     -0.901000
     20 N17         4.0600   -5.7150    0.5580 n3        1 D4N     -0.276000
     21 C22         3.2540   -5.0380    1.4240 c2        1 D4N      0.098000
     22 C68         0.3260   -1.5780    2.7970 c3        1 D4N     -0.276000
     23 C21         2.6920   -3.8210    1.1530 c2        1 D4N     -0.390000
     24 C19         4.2750   -3.5730   -0.6790 c3        1 D4N     -0.113000
     25 N20         2.9810   -3.1100   -0.0840 n4        1 D4N      0.071000
     26 C23         2.9920   -1.6260    0.1530 c3        1 D4N     -0.055000
     27 N1          1.6400   -0.0170   -2.8060 n         1 D4N     -0.389000
     28 H6          5.4800   -0.8220   -0.8960 hc        1 D4N      0.183500
     29 H6A         4.8940   -0.3820   -2.5590 hc        1 D4N      0.183500
     30 H7          6.0220   -6.8100   -9.0150 hc        1 D4N      0.111667
     31 H7A         6.0350   -7.4120   -7.3020 hc        1 D4N      0.111667
     32 H7B         4.5360   -6.6150   -7.9760 hc        1 D4N      0.111667
     33 H9          4.6300   -5.0570   -5.9760 hc        1 D4N      0.127500
     34 H10         7.4060   -6.2820   -5.4590 ha        1 D4N      0.207000
     35 H12         3.5590   -9.4380   -2.2110 ha        1 D4N      0.246000
     36 H13         6.0150   -3.8900   -5.8180 hc        1 D4N      0.127500
     37 H14         4.3700    1.2730    1.1580 ha        1 D4N      0.015500
     38 H14A        4.4410    0.5930    1.1610 ha        1 D4N      0.015500
     39 H18         3.6210   -5.4890   -1.4540 h2        1 D4N      0.163000
     40 H18A        4.3320   -3.1710   -1.7330 hx        1 D4N      0.155000
     41 HO6         7.8770   -4.3600   -7.4750 ho        1 D4N      0.223000
     42 H22         4.6580   -6.4440    0.8930 hn        1 D4N      0.278000
     43 H68         0.0020   -1.7370    1.7450 hc        1 D4N      0.069750
     44 H68A       -0.3560   -0.8470    3.2840 hc        1 D4N      0.069750
     45 H68B        3.0300   -5.5440    2.3880 h4        1 D4N      0.196000
     46 H21         0.2850   -2.5410    3.3500 hc        1 D4N      0.069750
     47 H21A        1.3650   -1.1790    2.8170 hc        1 D4N      0.069750
     48 H19         2.2290   -3.3200   -0.7710 hn        1 D4N      0.273000
     49 H19A        5.1200   -3.1330   -0.0750 hx        1 D4N      0.155000
     50 H23         1.9860   -1.3580    0.6000 hx        1 D4N      0.148500
     51 H23A        3.7920   -1.4090    0.9190 hx        1 D4N      0.148500
     52 HN1         1.9790   -3.3230    1.8290 hx        1 D4N      0.203000
     53 HN1A        1.7710    0.9110   -2.4810 hn        1 D4N      0.253000
     54 F4          6.1100   -2.8900   -8.1780 f         1 D4N     -0.157667
     55 H131        0.9820   -0.1810   -3.5330 hn        1 D4N      0.253000
     56 S14         6.0440   -5.5700   -1.3330 s6        1 D4N      2.814000
     57 F1          5.7120   -4.3240   -9.7630 f         1 D4N     -0.157667
@<TRIPOS>BOND
     1    1    4 1   
     2    2    4 1   
     3    2    6 1   
     4    2   14 1   
     5    2   26 1   
     6    3    5 1   
     7    3   16 1   
     8    3   54 1   
     9    3   57 1   
    10    4   27 1   
    11    5    7 1   
    12    5    8 1   
    13    5   17 1   
    14    6   14 1   
    15    6   28 1   
    16    6   29 1   
    17    7   30 1   
    18    7   31 1   
    19    7   32 1   
    20    8    9 1   
    21    8   33 1   
    22    8   36 1   
    23    9   10 1   
    24    9   34 1   
    25   10   11 1   
    26   11   12 1   
    27   11   56 1   
    28   12   13 1   
    29   13   35 1   
    30   15   20 1   
    31   15   24 1   
    32   15   39 1   
    33   15   56 1   
    34   17   41 1   
    35   18   56 1   
    36   19   56 1   
    37   20   21 1   
    38   20   42 1   
    39   21   23 1   
    40   21   45 1   
    41   22   43 1   
    42   22   44 1   
    43   22   46 1   
    44   22   47 1   
    45   23   25 1   
    46   23   52 1   
    47   24   25 1   
    48   24   40 1   
    49   24   49 1   
    50   25   26 1   
    51   25   48 1   
    52   26   50 1   
    53   26   51 1   
    54   27   53 1   
    55   27   55 1   
    56   37   38 1   
@<TRIPOS>SUBSTRUCTURE
     1 D4N         1 TEMP              0 ****  ****    0 ROOT
