@<TRIPOS>MOLECULE
D4N
   57    55     1     0     0
SMALL
bcc


@<TRIPOS>ATOM
      1 O1          1.2670    2.9650    1.0380 o         1 D4N     -0.517000
      2 C1          2.1720    0.7270    1.3530 c3        1 D4N     -0.189000
      3 C2          8.1920    5.2050    7.2240 c3        1 D4N      0.379000
      4 C3          1.0210    1.7350    1.1830 c2        1 D4N      0.343000
      5 C5          7.2280    6.2860    6.5760 c3        1 D4N      0.061000
      6 C6          3.1960    1.3460    2.2930 c3        1 D4N     -0.210000
      7 C7          6.1910    6.7180    7.6000 c3        1 D4N     -0.219000
      8 C8          6.5870    5.6520    5.3340 c3        1 D4N     -0.172000
      9 C9          5.8240    6.6570    4.5530 c2        1 D4N     -0.044000
     10 C10         4.8640    6.3690    3.7240 c1        1 D4N      0.030000
     11 C11         3.8550    6.1210    2.9080 c2        1 D4N     -0.632000
     12 C12         2.5320    6.0980    3.3790 c1        1 D4N     -0.186000
     13 C13         1.4230    6.0900    3.8320 c1        1 D4N     -0.090000
     14 C14         1.6500   -0.5530    1.8540 c1        1 D4N     -0.027000
     15 C18         1.8040    5.0960    0.0640 c2        1 D4N      0.424000
     16 F3          7.5890    3.9990    7.4640 f         1 D4N     -0.154667
     17 O6          7.9820    7.4290    6.2340 oh        1 D4N     -0.297000
     18 O15         4.9120    6.8380    0.6820 o         1 D4N     -0.846000
     19 O16         5.1400    4.5110    1.4090 os        1 D4N     -0.581000
     20 N17         2.9140    5.4480    0.5770 n2        1 D4N     -1.063000
     21 C22         6.6130    4.5290   -0.4560 c2        1 D4N     -0.185000
     22 C68         1.9470    1.8170   -1.8940 c3        1 D4N     -0.132000
     23 C21         5.6740    3.9240    0.2820 c2        1 D4N     -0.062000
     24 C19         4.1200   -0.3170    0.1100 c3        1 D4N     -0.216000
     25 N20         2.9700    1.5970   -0.9060 n3        1 D4N     -0.304000
     26 C23         2.7920    0.4240   -0.0690 c3        1 D4N      0.008000
     27 N1         -0.2590    1.2880    1.1770 n         1 D4N     -0.379000
     28 H6          3.9780    0.5960    2.5640 hc        1 D4N      0.091667
     29 H6A         3.6920    2.2260    1.8140 hc        1 D4N      0.091667
     30 H7          6.7000    7.2170    8.4620 hc        1 D4N      0.111333
     31 H7A         5.6350    5.8230    7.9670 hc        1 D4N      0.111333
     32 H7B         5.4810    7.4420    7.1360 hc        1 D4N      0.111333
     33 H9          5.9310    4.8010    5.6610 hc        1 D4N      0.135500
     34 H10         6.1430    7.7170    4.6880 ha        1 D4N      0.215000
     35 H12         0.4310    6.0800    4.2170 ha        1 D4N      0.248000
     36 H13         7.3990    5.2270    4.6780 hc        1 D4N      0.135500
     37 H14         2.3840   -1.2430    2.2930 ha        1 D4N      0.072000
     38 H14A        2.6960    1.6960    3.2280 hc        1 D4N      0.091667
     39 H18         0.8310    5.4420    0.4760 h4        1 D4N      0.145000
     40 H18A        4.9070    0.3490    0.5370 hc        1 D4N      0.091000
     41 HO6         8.7540    7.1390    5.7250 ho        1 D4N      0.226000
     42 H22         5.3060    2.8910    0.1530 h4        1 D4N      0.177000
     43 H68         2.2650    2.6810   -2.5380 h1        1 D4N      0.079667
     44 H68A        1.8500    0.9080   -2.5450 h1        1 D4N      0.079667
     45 H68B        6.9430    5.5640   -0.2870 ha        1 D4N      0.158500
     46 H21         7.0930    4.0000   -1.2930 ha        1 D4N      0.158500
     47 H21A        1.7820    4.4220   -0.8240 h4        1 D4N      0.145000
     48 H19         3.1050    2.4160   -0.3400 hn        1 D4N      0.158000
     49 H19A        4.4770   -0.6880   -0.8830 hc        1 D4N      0.091000
     50 H23         2.0720   -0.2840   -0.5840 h1        1 D4N      0.113000
     51 H23A        3.9770   -1.1920    0.7870 hc        1 D4N      0.091000
     52 HN1         0.9380    2.0520   -1.4540 h1        1 D4N      0.079667
     53 HN1A       -0.4490    0.3250    1.3500 hn        1 D4N      0.251500
     54 F4          9.2660    4.9180    6.4180 f         1 D4N     -0.154667
     55 H131       -1.0120    1.9280    1.1050 hn        1 D4N      0.251500
     56 S14         4.1230    5.8590    1.2840 s6        1 D4N      2.858000
     57 F1          8.7340    5.5890    8.4180 f         1 D4N     -0.154667
@<TRIPOS>BOND
     1    1    4 1   
     2    2    4 1   
     3    2    6 1   
     4    2   14 1   
     5    2   26 1   
     6    3    5 1   
     7    3   16 1   
     8    3   54 1   
     9    3   57 1   
    10    4   27 1   
    11    5    7 1   
    12    5    8 1   
    13    5   17 1   
    14    6   28 1   
    15    6   29 1   
    16    6   38 1   
    17    7   30 1   
    18    7   31 1   
    19    7   32 1   
    20    8    9 1   
    21    8   33 1   
    22    8   36 1   
    23    9   10 1   
    24    9   34 1   
    25   10   11 1   
    26   11   12 1   
    27   11   56 1   
    28   12   13 1   
    29   13   35 1   
    30   14   37 1   
    31   15   20 1   
    32   15   39 1   
    33   15   47 1   
    34   17   41 1   
    35   18   56 1   
    36   19   23 1   
    37   19   56 1   
    38   20   56 1   
    39   21   23 1   
    40   21   45 1   
    41   21   46 1   
    42   22   25 1   
    43   22   43 1   
    44   22   44 1   
    45   22   52 1   
    46   23   42 1   
    47   24   26 1   
    48   24   40 1   
    49   24   49 1   
    50   24   51 1   
    51   25   26 1   
    52   25   48 1   
    53   26   50 1   
    54   27   53 1   
    55   27   55 1   
@<TRIPOS>SUBSTRUCTURE
     1 D4N         1 TEMP              0 ****  ****    0 ROOT
