@<TRIPOS>MOLECULE
D4N
   57    54     1     0     0
SMALL
bcc


@<TRIPOS>ATOM
      1 O1          2.4180   -1.6870   -0.1150 o         1 D4N     -0.702100
      2 C1          2.2760    0.7130   -0.3470 cx        1 D4N     -0.200600
      3 C2          6.3700   -4.8950   -5.7340 c3        1 D4N      0.595900
      4 C3          1.8210   -0.6200    0.1770 c         1 D4N      0.703100
      5 C5          6.8740   -6.3940   -5.8320 c3        1 D4N      0.141800
      6 C6          1.3630    1.9000   -0.2830 cu        1 D4N     -0.156700
      7 C7          6.1110   -7.0920   -6.9530 c3        1 D4N     -0.107100
      8 C8          6.7490   -7.1890   -4.5230 c3        1 D4N     -0.026300
      9 C9          7.3160   -6.5390   -3.2960 c2        1 D4N     -0.162200
     10 C10         6.6790   -6.4130   -2.1120 ce        1 D4N     -0.058000
     11 C11         5.2060   -6.6260   -2.0320 ce        1 D4N     -0.622400
     12 C12         4.8670   -7.3120   -3.1450 c1        1 D4N      0.320200
     13 C13         5.4000   -7.8290   -4.2250 c2        1 D4N     -0.177300
     14 C14         2.3490    1.8830    0.5880 cu        1 D4N     -0.156700
     15 C18         2.4600   -4.3320   -2.4750 c2        1 D4N     -0.093000
     16 F3          5.0770   -4.7490   -5.3080 f         1 D4N     -0.228633
     17 O6          8.2310   -6.3670   -6.2280 oh        1 D4N     -0.553800
     18 O15         3.1320   -6.6180   -0.6660 o         1 D4N     -0.435900
     19 O16         5.0780   -5.5350    0.2000 o         1 D4N     -0.435900
     20 N17         3.5450   -4.0710   -1.5640 nu        1 D4N     -0.569600
     21 C22         4.5730   -3.2960   -2.0490 c1        1 D4N     -0.179200
     22 C68         1.9260   -4.5700    1.4400 c3        1 D4N     -0.136800
     23 C21         5.4600   -2.5870   -2.4310 c1        1 D4N      0.003500
     24 C19         2.3870   -3.9630   -3.7570 c2        1 D4N     -0.159000
     25 N20         4.5500    0.0500   -1.1890 n8        1 D4N     -0.909800
     26 C23         3.2560    0.5930   -1.5010 c3        1 D4N      0.185800
     27 N1          0.7260   -0.6710    0.9940 nt        1 D4N     -0.655000
     28 H6          1.6100   -0.8530   -4.1310 ha        1 D4N      0.000500
     29 H6A         0.5070    2.3480   -0.7460 ha        1 D4N      0.209000
     30 H7          6.3330   -6.5840   -7.9250 hc        1 D4N      0.076367
     31 H7A         5.0150   -7.0390   -6.7490 hc        1 D4N      0.076367
     32 H7B         6.4360   -8.1570   -7.0290 hc        1 D4N      0.076367
     33 H9          8.3590   -6.1920   -3.4030 ha        1 D4N      0.177000
     34 H10         7.1810   -6.0710   -1.1920 ha        1 D4N      0.190000
     35 H12         5.0710   -8.6950   -4.8140 ha        1 D4N      0.219000
     36 H13         7.3920   -8.1220   -4.6950 hc        1 D4N      0.148700
     37 H14         2.9170    2.3030    1.3930 ha        1 D4N      0.209000
     38 H14A        1.7310   -1.5160   -4.0680 ha        1 D4N      0.000500
     39 H18         1.6490   -4.8910   -1.9630 h4        1 D4N      0.180000
     40 H18A        1.5150   -4.2370   -4.3690 ha        1 D4N      0.149500
     41 HO6         8.7130   -5.7830   -5.6240 ho        1 D4N      0.425000
     42 H22         3.1570   -3.6000   -0.7320 hn        1 D4N      0.476800
     43 H68         1.7870   -3.5030    1.1500 hc        1 D4N      0.034200
     44 H68A        1.4830   -5.2350    0.6660 hc        1 D4N      0.034200
     45 H68B        1.4270   -4.7570    2.4160 hc        1 D4N      0.034200
     46 H21         6.2540   -1.9610   -2.7650 ha        1 D4N      0.206500
     47 H21A        3.0130   -4.7900    1.5380 hc        1 D4N      0.034200
     48 H19         4.4610   -0.8740   -0.8070 hn        1 D4N      0.353800
     49 H19A        3.1700   -3.3880   -4.2750 ha        1 D4N      0.149500
     50 H23         3.4030    1.6180   -1.9480 h1        1 D4N      0.063700
     51 H23A        2.7840   -0.0660   -2.2870 h1        1 D4N      0.063700
     52 HN1         5.0310    0.6290   -0.5280 hn        1 D4N      0.353800
     53 HN1A        0.2380    0.1500    1.2480 hn        1 D4N      0.320500
     54 F4          7.1250   -4.1280   -4.8820 f         1 D4N     -0.228633
     55 H131        0.4230   -1.5400    1.3610 hn        1 D4N      0.320500
     56 S14         4.3640   -6.0540   -0.8400 s4        1 D4N      1.647100
     57 F1          6.4230   -4.2340   -6.9300 f         1 D4N     -0.228633
@<TRIPOS>BOND
     1    1    4 2   
     2    2    4 1   
     3    2    6 1   
     4    2   14 1   
     5    2   26 1   
     6    3    5 1   
     7    3   16 1   
     8    3   54 1   
     9    3   57 1   
    10    4   27 1   
    11    5    7 1   
    12    5    8 1   
    13    5   17 1   
    14    6   14 2   
    15    6   29 1   
    16    7   30 1   
    17    7   31 1   
    18    7   32 1   
    19    8    9 1   
    20    8   13 1   
    21    8   36 1   
    22    9   10 2   
    23    9   33 1   
    24   10   11 1   
    25   10   34 1   
    26   11   12 2   
    27   11   56 1   
    28   12   13 2   
    29   13   35 1   
    30   14   37 1   
    31   15   20 1   
    32   15   24 2   
    33   15   39 1   
    34   17   41 1   
    35   18   56 1   
    36   19   56 1   
    37   20   21 1   
    38   20   42 1   
    39   21   23 3   
    40   22   43 1   
    41   22   44 1   
    42   22   45 1   
    43   22   47 1   
    44   23   46 1   
    45   24   40 1   
    46   24   49 1   
    47   25   26 1   
    48   25   48 1   
    49   25   52 1   
    50   26   50 1   
    51   26   51 1   
    52   27   53 1   
    53   27   55 1   
    54   28   38 1   
@<TRIPOS>SUBSTRUCTURE
     1 D4N         1 TEMP              0 ****  ****    0 ROOT
