@<TRIPOS>MOLECULE
D4N
   56    58     1     0     0
SMALL
bcc


@<TRIPOS>ATOM
      1 O1         -5.6610    1.6910   -1.6620 o         1 D4N     -0.620100
      2 C1         -4.0680    2.4170   -0.0110 cx        1 D4N     -0.213000
      3 C2          4.1660    2.2080   -0.2250 c3        1 D4N      0.588900
      4 C3         -5.2780    1.6530   -0.4740 c         1 D4N      0.694100
      5 C5          4.5460    0.7030    0.1340 c3        1 D4N      0.183100
      6 C6         -3.4890    3.4240   -0.9800 cx        1 D4N     -0.102900
      7 C7          5.6910    0.2550   -0.7670 c3        1 D4N     -0.093100
      8 C8          3.3540   -0.2070   -0.0050 ca        1 D4N     -0.074300
      9 C9          2.9540   -1.0120    1.0690 ca        1 D4N     -0.136500
     10 C10         1.8680   -1.8730    0.9290 ca        1 D4N     -0.019500
     11 C11         1.1650   -1.9560   -0.2760 ca        1 D4N     -0.357500
     12 C12         1.5870   -1.1660   -1.3500 ca        1 D4N     -0.019500
     13 C13         2.6690   -0.3010   -1.2220 ca        1 D4N     -0.136500
     14 C14        -4.2330    3.9020    0.2260 cx        1 D4N     -0.102900
     15 C18        -2.1940   -1.4170   -1.0980 c3        1 D4N      0.224800
     16 F1          3.1340    2.7010    0.5330 f         1 D4N     -0.234300
     17 F3          5.1980    3.0810   -0.0020 f         1 D4N     -0.234300
     18 O6          5.0590    0.7320    1.4530 oh        1 D4N     -0.565800
     19 O15        -0.1950   -3.4320   -1.8000 o         1 D4N     -0.646800
     20 O16         0.0110   -4.0460    0.5210 o         1 D4N     -0.646800
     21 N17        -1.4310   -2.1120   -0.0930 n3        1 D4N     -0.814500
     22 C22        -1.8970   -1.9140    1.2650 c3        1 D4N      0.249500
     23 C68        -3.1480   -2.7230    1.6050 c3        1 D4N     -0.105100
     24 C21        -2.1450   -0.4140    1.5860 c3        1 D4N      0.156800
     25 C19        -2.4340    0.0700   -0.7680 c3        1 D4N      0.144800
     26 N20        -2.9470    0.2680    0.5800 n3        1 D4N     -0.732600
     27 C23        -3.1330    1.6750    0.9160 c3        1 D4N      0.200800
     28 N1         -6.0010    0.9520    0.4650 n         1 D4N     -0.641000
     29 H6         -2.3920    3.5440   -1.0240 hc        1 D4N      0.084450
     30 H6A        -3.9650    3.5120   -1.9760 hc        1 D4N      0.084450
     31 H7          6.5660    0.9350   -0.6250 hc        1 D4N      0.069033
     32 H7A         5.9940   -0.7840   -0.4960 hc        1 D4N      0.069033
     33 H7B         5.3590    0.2860   -1.8320 hc        1 D4N      0.069033
     34 H9          3.5080   -0.9840    2.0210 ha        1 D4N      0.153000
     35 H10         1.5690   -2.5170    1.7760 ha        1 D4N      0.158000
     36 H12         1.0620   -1.2460   -2.3200 ha        1 D4N      0.158000
     37 H13         2.9840    0.3120   -2.0830 ha        1 D4N      0.153000
     38 H14        -5.2350    4.3490    0.0980 hc        1 D4N      0.084450
     39 H14A       -3.6740    4.3620    1.0610 hc        1 D4N      0.084450
     40 H18        -1.6510   -1.4770   -2.0850 h1        1 D4N      0.064200
     41 H18A       -3.1940   -1.9270   -1.2180 h1        1 D4N      0.064200
     42 HO6         4.3590    1.0680    2.0310 ho        1 D4N      0.419000
     43 H22        -1.0670   -2.2590    1.9580 h1        1 D4N      0.056700
     44 H68        -2.9690   -3.8130    1.4390 hc        1 D4N      0.048367
     45 H68A       -3.4000   -2.5660    2.6820 hc        1 D4N      0.048367
     46 H68B       -4.0160   -2.4010    0.9820 hc        1 D4N      0.048367
     47 H21        -2.6980   -0.3590    2.5650 h1        1 D4N      0.038200
     48 H21A       -1.1430    0.0870    1.7280 h1        1 D4N      0.038200
     49 H19        -1.4750    0.6430   -0.9360 h1        1 D4N      0.051200
     50 H19A       -3.2050    0.4650   -1.4900 h1        1 D4N      0.051200
     51 H23        -2.1470    2.2300    0.9400 h1        1 D4N      0.039700
     52 H23A       -3.5630    1.7150    1.9590 h1        1 D4N      0.039700
     53 HN1        -6.7250    0.3560    0.1400 hn        1 D4N      0.305000
     54 HN1A       -5.5810    0.7240    1.3310 hn        1 D4N      0.305000
     55 S14        -0.1400   -3.0310   -0.4480 sy        1 D4N      1.505200
     56 F4          3.7990    2.4300   -1.5250 f         1 D4N     -0.234300
@<TRIPOS>BOND
     1    1    4 2   
     2    2    4 1   
     3    2    6 1   
     4    2   14 1   
     5    2   27 1   
     6    3    5 1   
     7    3   16 1   
     8    3   17 1   
     9    3   56 1   
    10    4   28 1   
    11    5    7 1   
    12    5    8 1   
    13    5   18 1   
    14    6   14 1   
    15    6   29 1   
    16    6   30 1   
    17    7   31 1   
    18    7   32 1   
    19    7   33 1   
    20    8    9 ar  
    21    8   13 ar  
    22    9   10 ar  
    23    9   34 1   
    24   10   11 ar  
    25   10   35 1   
    26   11   12 ar  
    27   11   55 1   
    28   12   13 ar  
    29   12   36 1   
    30   13   37 1   
    31   14   38 1   
    32   14   39 1   
    33   15   21 1   
    34   15   25 1   
    35   15   40 1   
    36   15   41 1   
    37   18   42 1   
    38   19   55 2   
    39   20   55 2   
    40   21   22 1   
    41   21   55 1   
    42   22   23 1   
    43   22   24 1   
    44   22   43 1   
    45   23   44 1   
    46   23   45 1   
    47   23   46 1   
    48   24   26 1   
    49   24   47 1   
    50   24   48 1   
    51   25   26 1   
    52   25   49 1   
    53   25   50 1   
    54   26   27 1   
    55   27   51 1   
    56   27   52 1   
    57   28   53 1   
    58   28   54 1   
@<TRIPOS>SUBSTRUCTURE
     1 D4N         1 TEMP              0 ****  ****    0 ROOT
