@<TRIPOS>MOLECULE
D4N
   56    55     1     0     0
SMALL
bcc


@<TRIPOS>ATOM
      1 O1         -1.1410   -1.6760   -5.0860 o         1 D4N     -0.382000
      2 C1         -0.1600   -3.0640   -3.3880 cx        1 D4N     -0.163000
      3 C2          2.8160    1.0850    5.5050 c3        1 D4N      0.377000
      4 C3         -0.1340   -2.2540   -4.7060 c2        1 D4N      0.338000
      5 C5          2.0040    2.3440    5.1950 c3        1 D4N      0.107000
      6 C6         -1.3520   -3.7160   -3.5350 cx        1 D4N     -0.181500
      7 C7          1.1190    2.6810    6.3840 c3        1 D4N     -0.253000
      8 C8          1.1370    2.0980    3.9680 c2        1 D4N     -0.033000
      9 C9         -0.0380    1.3600    4.0840 c2        1 D4N     -0.143000
     10 C10        -0.8770    1.2080    2.9830 c1        1 D4N     -0.021000
     11 C11        -0.5420    1.7950    1.7650 c1        1 D4N     -0.803000
     12 C12         0.6330    2.5340    1.6490 c1        1 D4N     -0.027000
     13 C13         1.4720    2.6850    2.7510 c1        1 D4N     -0.113000
     14 C14        -0.2510   -4.3300   -3.8930 cx        1 D4N     -0.181500
     15 C18        -2.0890   -0.6520   -0.8000 c3        1 D4N     -0.012000
     16 F4          1.9910    0.1140    5.9290 f         1 D4N     -0.163667
     17 F1          3.4530    0.6780    4.3950 f         1 D4N     -0.163667
     18 F3          3.7160    1.3570    6.4640 f         1 D4N     -0.163667
     19 O6          2.8760    3.4100    4.9450 oh        1 D4N     -0.301000
     20 S14        -1.6990    1.7310    0.3900 s4        1 D4N      2.060800
     21 O15        -3.0540    1.5630    0.8540 o         1 D4N     -0.535900
     22 O16        -1.7880    3.0050   -0.2790 o         1 D4N     -0.535900
     23 N17        -1.2680    0.5150   -0.6750 n2        1 D4N     -0.833000
     24 C22        -0.5800    0.8370   -1.8870 c3        1 D4N      0.052000
     25 C68        -1.6010    1.3100   -2.9260 c3        1 D4N     -0.223000
     26 C21         0.1850   -0.3540   -2.4540 c3        1 D4N     -0.082000
     27 C19        -1.3230   -1.8430   -1.3670 c3        1 D4N     -0.092000
     28 N20        -0.6350   -1.5210   -2.5790 n3        1 D4N     -0.258000
     29 C23         0.1950   -2.6620   -2.9890 c3        1 D4N     -0.037000
     30 N1          1.0570   -2.2340   -5.5160 n         1 D4N     -0.400000
     31 H6         -1.9220   -3.4020   -4.2720 hc        1 D4N      0.123500
     32 H6A        -1.7680   -4.0380   -2.7020 hc        1 D4N      0.123500
     33 H7          1.6810    2.9170    7.1560 hc        1 D4N      0.106667
     34 H7A         0.5620    1.9030    6.6100 hc        1 D4N      0.106667
     35 H7B         0.5400    3.4430    6.1560 hc        1 D4N      0.106667
     36 H9         -0.2750    0.9460    4.9420 ha        1 D4N      0.150000
     37 H10        -1.7050    0.6870    3.0650 ha        1 D4N      0.157000
     38 H12         0.8700    2.9470    0.7920 ha        1 D4N      0.157000
     39 H13         2.3010    3.2070    2.6690 ha        1 D4N      0.165000
     40 H14        -0.1060   -4.4140   -4.8630 hc        1 D4N      0.123500
     41 H14A        0.0500   -5.0510   -3.2910 hc        1 D4N      0.123500
     42 H18        -2.8460   -0.4480   -1.3950 h1        1 D4N      0.103500
     43 H18A       -2.4380   -0.8920    0.0890 h1        1 D4N      0.103500
     44 HO6         3.1700    3.7420    5.7190 ho        1 D4N      0.225000
     45 H22         0.0540    1.5670   -1.7080 h1        1 D4N      0.097000
     46 H68        -2.0740    0.5350   -3.2960 hc        1 D4N      0.087667
     47 H68A       -1.1350    1.7870   -3.6500 hc        1 D4N      0.087667
     48 H68B       -2.2480    1.9150   -2.4980 hc        1 D4N      0.087667
     49 H21         0.9420   -0.5590   -1.8590 h1        1 D4N      0.078000
     50 H21A        0.5350   -0.1140   -3.3420 h1        1 D4N      0.078000
     51 H19        -0.6670   -2.1460   -0.6990 h1        1 D4N      0.090500
     52 H19A       -1.9580   -2.5740   -1.5450 h1        1 D4N      0.090500
     53 H23         0.4840   -3.1650   -2.1870 h1        1 D4N      0.079500
     54 H23A        0.9900   -2.3330   -3.4760 h1        1 D4N      0.079500
     55 HN1         1.3260   -1.4520   -5.9170 hn        1 D4N      0.219000
     56 HN1A        1.5160   -3.0130   -5.6750 hn        1 D4N      0.219000
@<TRIPOS>BOND
     1    1    4 1   
     2    2    4 1   
     3    2    6 1   
     4    2   14 1   
     5    2   29 1   
     6    3    5 1   
     7    3   16 1   
     8    3   17 1   
     9    3   18 1   
    10    4   30 1   
    11    5    7 1   
    12    5    8 1   
    13    5   19 1   
    14    6   14 1   
    15    6   31 1   
    16    6   32 1   
    17    7   33 1   
    18    7   34 1   
    19    7   35 1   
    20    8    9 1   
    21    8   13 1   
    22    9   10 1   
    23    9   36 1   
    24   10   37 1   
    25   11   12 1   
    26   11   20 1   
    27   12   38 1   
    28   13   39 1   
    29   14   40 1   
    30   14   41 1   
    31   15   23 1   
    32   15   27 1   
    33   15   42 1   
    34   15   43 1   
    35   19   44 1   
    36   20   21 1   
    37   20   22 1   
    38   23   24 1   
    39   24   25 1   
    40   24   26 1   
    41   24   45 1   
    42   25   46 1   
    43   25   47 1   
    44   25   48 1   
    45   26   28 1   
    46   26   49 1   
    47   26   50 1   
    48   27   28 1   
    49   27   51 1   
    50   27   52 1   
    51   28   29 1   
    52   29   53 1   
    53   29   54 1   
    54   30   55 1   
    55   30   56 1   
@<TRIPOS>SUBSTRUCTURE
     1 D4N         1 TEMP              0 ****  ****    0 ROOT
