@<TRIPOS>MOLECULE
D4P
   20    20     1     0     0
SMALL
bcc


@<TRIPOS>ATOM
      1 N           1.6590   -2.2990   -2.1740 n3        1 D4P     -0.883800
      2 CA          1.8930   -0.9740   -1.6040 c3        1 D4P      0.049800
      3 C           3.2590   -0.3510   -2.0690 c         1 D4P      0.892600
      4 O           4.2610   -1.1210   -2.1050 o         1 D4P     -0.833800
      5 C1          1.8490   -1.0050   -0.1020 ca        1 D4P     -0.044300
      6 C2          0.7530   -0.4850    0.5920 ca        1 D4P     -0.093000
      7 C3          0.7140   -0.5140    1.9850 ca        1 D4P     -0.194500
      8 C4          1.7860   -1.0760    2.6870 ca        1 D4P      0.085100
      9 O4          1.8080   -1.1510    4.0690 oh        1 D4P     -0.519100
     10 C5          2.8980   -1.5970    2.0070 ca        1 D4P     -0.194500
     11 C6          2.9200   -1.5550    0.6180 ca        1 D4P     -0.093000
     12 OXT         3.2600    0.8610   -2.4080 o         1 D4P     -0.833800
     13 HN1         2.3580   -2.9240   -1.8080 hn        1 D4P      0.331800
     14 HN2         1.8270   -2.2320   -3.1630 hn        1 D4P      0.331800
     15 HA          1.0690   -0.3020   -1.9820 h1        1 D4P      0.052700
     16 H2         -0.0860   -0.0430    0.0340 ha        1 D4P      0.152000
     17 H3         -0.1460   -0.1000    2.5270 ha        1 D4P      0.120500
     18 H4          1.0120   -0.7080    4.3910 ho        1 D4P      0.401000
     19 H5          3.7340   -2.0220    2.5780 ha        1 D4P      0.120500
     20 H6          3.7970   -1.9230    0.0510 ha        1 D4P      0.152000
@<TRIPOS>BOND
     1    1    2 1   
     2    1   13 1   
     3    1   14 1   
     4    2    3 1   
     5    2    5 1   
     6    2   15 1   
     7    3    4 1   
     8    3   12 1   
     9    5    6 ar  
    10    5   11 ar  
    11    6    7 ar  
    12    6   16 1   
    13    7    8 ar  
    14    7   17 1   
    15    8    9 1   
    16    8   10 ar  
    17    9   18 1   
    18   10   11 ar  
    19   10   19 1   
    20   11   20 1   
@<TRIPOS>SUBSTRUCTURE
     1 D4P         1 TEMP              0 ****  ****    0 ROOT
