@<TRIPOS>MOLECULE
D4T
   39    40     1     0     0
SMALL
bcc


@<TRIPOS>ATOM
      1 PC          0.0000    0.0000    0.0000 p5        1 D4T      0.801900
      2 O1C         1.6100    0.0000    0.0000 o         1 D4T     -0.668167
      3 O2C        -0.5360    0.0000    1.5180 o         1 D4T     -0.668167
      4 O3C        -0.4940   -1.2100   -0.6970 o         1 D4T     -0.668167
      5 O7'        -0.5360    1.3140   -0.7590 os        1 D4T     -0.479800
      6 PB         -0.4390    1.0110   -2.3380 p5        1 D4T      0.958800
      7 O1B         0.8150    0.2790   -2.6240 o         1 D4T     -0.526000
      8 O2B        -1.6990    0.1160   -2.7910 o         1 D4T     -0.526000
      9 O6'        -0.4480    2.4000   -3.1520 os        1 D4T     -0.488800
     10 PA          0.0460    2.0660   -4.6480 p5        1 D4T      0.913800
     11 O1A         1.1510    1.0830   -4.5950 o         1 D4T     -0.643000
     12 O2A        -1.1790    1.4510   -5.4920 o         1 D4T     -0.643000
     13 O5'         0.5620    3.4160   -5.3570 os        1 D4T     -0.480200
     14 C5'         1.0930    3.0380   -6.6280 c3        1 D4T      0.240400
     15 C4'         1.6030    4.2820   -7.3580 c3        1 D4T      0.191300
     16 O4'         2.7380    4.8350   -6.6640 os        1 D4T     -0.344600
     17 C1'         3.5580    5.3690   -7.7200 c3        1 D4T      0.261700
     18 N1          4.9760    5.2370   -7.3750 n         1 D4T      0.121000
     19 C6          5.7930    6.3330   -7.4320 cc        1 D4T     -0.477400
     20 C2          5.4630    4.0380   -7.0050 c         1 D4T      0.574500
     21 O2          4.7200    3.0770   -6.9610 o         1 D4T     -0.728500
     22 N3          6.7610    3.8880   -6.6830 ns        1 D4T     -0.160500
     23 C4          7.6000    4.9420   -6.7310 c         1 D4T      0.572700
     24 O4          8.7740    4.8080   -6.4400 o         1 D4T     -0.864500
     25 C5          7.0990    6.2110   -7.1140 cd        1 D4T     -0.385400
     26 C5A         8.0140    7.4070   -7.1710 c3        1 D4T      0.148100
     27 C2'         3.2400    4.5420   -8.9450 c2        1 D4T     -0.222200
     28 C3'         2.1080    3.9110   -8.7340 c2        1 D4T     -0.131200
     29 H5'1        0.3160    2.5670   -7.2180 h1        1 D4T      0.021200
     30 H5'2        1.9100    2.3420   -6.4860 h1        1 D4T      0.021200
     31 H4'C        0.8180    5.0240   -7.4370 h1        1 D4T     -0.007300
     32 H1'C        3.3060    6.4070   -7.8970 h2        1 D4T     -0.004300
     33 H66         5.3920    7.2950   -7.7280 h4        1 D4T      0.099000
     34 HN3         7.1050    2.9890   -6.4080 hn        1 D4T      0.165500
     35 HCA1        7.6480    8.1070   -7.9130 hc        1 D4T     -0.041633
     36 HCA2        8.0380    7.8900   -6.2020 hc        1 D4T     -0.041633
     37 HCA3        9.0130    7.0850   -7.4400 hc        1 D4T     -0.041633
     38 H2'C        3.4710    4.9250   -9.9320 ha        1 D4T      0.076000
     39 H3'C        1.4060    3.7690   -9.5480 ha        1 D4T      0.074000
@<TRIPOS>BOND
     1    1    2 1   
     2    1    3 1   
     3    1    4 1   
     4    1    5 1   
     5    5    6 1   
     6    6    7 1   
     7    6    8 1   
     8    6    9 1   
     9    9   10 1   
    10   10   11 1   
    11   10   12 1   
    12   10   13 1   
    13   13   14 1   
    14   14   15 1   
    15   14   29 1   
    16   14   30 1   
    17   15   16 1   
    18   15   28 1   
    19   15   31 1   
    20   16   17 1   
    21   17   18 1   
    22   17   27 1   
    23   17   32 1   
    24   18   19 1   
    25   18   20 1   
    26   19   25 2   
    27   19   33 1   
    28   20   21 2   
    29   20   22 1   
    30   22   23 1   
    31   22   34 1   
    32   23   24 2   
    33   23   25 1   
    34   25   26 1   
    35   26   35 1   
    36   26   36 1   
    37   26   37 1   
    38   27   28 2   
    39   27   38 1   
    40   28   39 1   
@<TRIPOS>SUBSTRUCTURE
     1 D4T         1 TEMP              0 ****  ****    0 ROOT
