@<TRIPOS>MOLECULE
D50
   59    60     1     0     0
SMALL
bcc


@<TRIPOS>ATOM
      1 C1          7.5450   -1.6650    2.0300 c3        1 D50     -0.090100
      2 N1          3.8310    0.4880    0.8570 n         1 D50     -0.490900
      3 O1          4.2850    0.9120   -1.3800 o         1 D50     -0.637100
      4 C2          6.4700   -1.0390    1.1620 c3        1 D50     -0.065700
      5 N2          0.8990    3.1980   -1.5180 n3        1 D50     -0.903800
      6 O2          3.5750    3.4880   -1.1180 oh        1 D50     -0.597800
      7 C3          6.7180   -1.3640   -0.2960 c3        1 D50     -0.090100
      8 O3         -4.6100    0.3490    0.0770 os        1 D50     -0.341900
      9 C4          5.1010   -1.5120    1.6250 c3        1 D50     -0.060400
     10 C5          3.9290   -0.9630    0.8090 c3        1 D50     -0.061300
     11 C7          2.9680    2.5640   -0.2410 c3        1 D50      0.067100
     12 C8          1.4730    2.2650   -0.5690 c3        1 D50      0.136500
     13 C9          0.7140    2.1500    0.7710 c3        1 D50     -0.084100
     14 C10        -0.6790    1.6620    0.5860 ca        1 D50     -0.108300
     15 C11        -0.9470    0.2910    0.7010 ca        1 D50     -0.094500
     16 C12        -2.2440   -0.1910    0.5340 ca        1 D50     -0.185500
     17 C13        -3.2810    0.7070    0.2560 ca        1 D50      0.107100
     18 C14        -4.8680   -1.0600    0.0950 c3        1 D50      0.170700
     19 C15        -6.3220   -1.2760   -0.1690 ca        1 D50     -0.080300
     20 C16        -7.2620   -0.2540   -0.0110 ca        1 D50     -0.115500
     21 C17        -8.6140   -0.5050   -0.2450 ca        1 D50     -0.135000
     22 C18        -9.0340   -1.7770   -0.6320 ca        1 D50     -0.136000
     23 C19        -8.0980   -2.8000   -0.7910 ca        1 D50     -0.135000
     24 C20        -6.7460   -2.5520   -0.5620 ca        1 D50     -0.115500
     25 C21        -3.0300    2.0850    0.1520 ca        1 D50     -0.185500
     26 C22        -1.7290    2.5490    0.3230 ca        1 D50     -0.094500
     27 C23         2.6160   -1.6460    1.3420 c         1 D50      0.904600
     28 H1          8.5540   -1.2880    1.7360 hc        1 D50      0.027700
     29 H1A         7.3720   -1.4140    3.1050 hc        1 D50      0.027700
     30 H1B         7.5370   -2.7760    1.9220 hc        1 D50      0.027700
     31 HN1         3.2310    0.7860    1.6050 hn        1 D50      0.304500
     32 H2          6.5260    0.0790    1.2870 hc        1 D50      0.046700
     33 HN2        -0.1010    3.1230   -1.5060 hn        1 D50      0.347800
     34 HN2A        1.1630    4.1370   -1.2920 hn        1 D50      0.347800
     35 HO2         3.6760    3.0460   -1.9740 ho        1 D50      0.429000
     36 H3          6.5180   -2.4440   -0.4970 hc        1 D50      0.027700
     37 H3A         6.0450   -0.7480   -0.9460 hc        1 D50      0.027700
     38 H3B         7.7770   -1.1420   -0.5700 hc        1 D50      0.027700
     39 H4          5.0390   -2.6310    1.5500 hc        1 D50      0.049200
     40 H4A         4.9680   -1.2360    2.7040 hc        1 D50      0.049200
     41 H5          4.0580   -1.2850   -0.2650 h1        1 D50      0.073700
     42 H7          3.0530    3.0530    0.7700 h1        1 D50      0.074700
     43 H8          1.4210    1.2510   -1.0730 h1        1 D50      0.085700
     44 H9          1.2590    1.4150    1.4300 hc        1 D50      0.068200
     45 H9A         0.7070    3.1460    1.2860 hc        1 D50      0.068200
     46 H11        -0.1190   -0.4100    0.9480 ha        1 D50      0.167000
     47 H12        -2.4270   -1.2700    0.6300 ha        1 D50      0.135500
     48 H14        -4.2440   -1.5650   -0.6920 h1        1 D50      0.054200
     49 H14A       -4.5990   -1.4720    1.1070 h1        1 D50      0.054200
     50 H16        -6.9260    0.7500    0.2910 ha        1 D50      0.143000
     51 H17        -9.3490    0.3030   -0.1220 ha        1 D50      0.126000
     52 H18       -10.1000   -1.9740   -0.8150 ha        1 D50      0.123000
     53 H19        -8.4260   -3.8030   -1.0980 ha        1 D50      0.126000
     54 H20        -6.0080   -3.3570   -0.6920 ha        1 D50      0.143000
     55 H21        -3.8570    2.7750   -0.0580 ha        1 D50      0.135500
     56 H22        -1.5320    3.6300    0.2580 ha        1 D50      0.167000
     57 O5          1.7350   -0.9110    1.8820 o         1 D50     -0.836800
     58 O4          2.5150   -2.8880    1.1860 o         1 D50     -0.836800
     59 C6          3.7340    1.2260   -0.3010 c         1 D50      0.613100
@<TRIPOS>BOND
     1    1    4 1   
     2    1   28 1   
     3    1   29 1   
     4    1   30 1   
     5    2   10 1   
     6    2   31 1   
     7    2   59 1   
     8    3   59 2   
     9    4    7 1   
    10    4    9 1   
    11    4   32 1   
    12    5   12 1   
    13    5   33 1   
    14    5   34 1   
    15    6   11 1   
    16    6   35 1   
    17    7   36 1   
    18    7   37 1   
    19    7   38 1   
    20    8   17 1   
    21    8   18 1   
    22    9   10 1   
    23    9   39 1   
    24    9   40 1   
    25   10   27 1   
    26   10   41 1   
    27   11   12 1   
    28   11   42 1   
    29   11   59 1   
    30   12   13 1   
    31   12   43 1   
    32   13   14 1   
    33   13   44 1   
    34   13   45 1   
    35   14   15 ar  
    36   14   26 ar  
    37   15   16 ar  
    38   15   46 1   
    39   16   17 ar  
    40   16   47 1   
    41   17   25 ar  
    42   18   19 1   
    43   18   48 1   
    44   18   49 1   
    45   19   20 ar  
    46   19   24 ar  
    47   20   21 ar  
    48   20   50 1   
    49   21   22 ar  
    50   21   51 1   
    51   22   23 ar  
    52   22   52 1   
    53   23   24 ar  
    54   23   53 1   
    55   24   54 1   
    56   25   26 ar  
    57   25   55 1   
    58   26   56 1   
    59   27   57 1   
    60   27   58 1   
@<TRIPOS>SUBSTRUCTURE
     1 D50         1 TEMP              0 ****  ****    0 ROOT
