@<TRIPOS>MOLECULE
D50
   61    55     1     0     0
SMALL
bcc


@<TRIPOS>ATOM
      1 C1          3.3870    2.9570   -0.7530 c2        1 D50     -0.283000
      2 N1          2.8130   -0.2060   -2.0630 n         1 D50     -0.463100
      3 O1          3.4910   -0.9440   -4.1370 o         1 D50     -0.625100
      4 C2          3.8270    2.2410    0.2820 c2        1 D50     -0.151200
      5 N2          5.4650    0.4410   -5.4890 n4        1 D50     -0.751000
      6 O2          5.3690    1.3350   -2.7610 oh        1 D50     -0.603800
      7 C3          2.9640    1.4040    1.1380 c3        1 D50     -0.091900
      8 O3          3.3890   -0.1810   -7.3070 oh        1 D50     -0.549100
      9 C4          1.4960   -1.5780   -0.5580 c2        1 D50     -0.254000
     10 C5          2.1160   -1.3810   -1.7300 c2        1 D50     -0.048400
     11 C7          4.1650    1.2980   -3.5030 c3        1 D50      0.049100
     12 C8          4.5450    1.4910   -4.9810 c3        1 D50      0.118800
     13 C9          7.9080    2.7990   -6.3730 c1        1 D50     -0.002500
     14 C10         7.1160    1.9140   -6.5150 c1        1 D50     -0.255100
     15 C11         4.5780   -1.3830  -10.4620 c2        1 D50     -0.140100
     16 C12         4.4690   -0.7010   -9.3660 c1        1 D50     -0.129800
     17 C13         4.3670    0.0150   -8.2730 c2        1 D50      0.009800
     18 C14         9.3130   -3.0570   -9.3270 c1        1 D50     -0.103000
     19 C15         8.3520   -3.7410   -9.1120 cg        1 D50     -0.076000
     20 C16         5.8730    4.3600  -11.3060 c3        1 D50     -0.032000
     21 C17         6.6280    3.1910  -10.9880 c1        1 D50     -0.120100
     22 C18         7.2650    2.2110  -10.7300 c1        1 D50     -0.193500
     23 C19         6.3330   -5.2460   -8.6830 c1        1 D50     -0.103000
     24 C20         7.2750   -4.5320   -8.8790 cg        1 D50     -0.076000
     25 C21         5.2560    1.1570   -7.9180 c3        1 D50     -0.041200
     26 C22         6.2020    0.8240   -6.7510 c3        1 D50      0.248600
     27 C23         7.1550   -3.1190   -4.8810 c1        1 D50      0.913000
     28 H1          4.0510    3.6060   -1.3400 ha        1 D50      0.118000
     29 H1A         1.4700   -0.8450    0.2580 ha        1 D50      0.136500
     30 H1B         4.8930    2.2600    0.5730 ha        1 D50      0.130000
     31 HN1         2.9840    1.7940    2.1890 hc        1 D50      0.058033
     32 H2          2.3280    2.9930   -1.0430 ha        1 D50      0.118000
     33 HN2         4.9030   -0.4130   -5.6810 hn        1 D50      0.481800
     34 HN2A        6.1550    0.2120   -4.7610 hn        1 D50      0.481800
     35 HO2         5.1450    1.5640   -1.8450 ho        1 D50      0.444000
     36 H3          3.2670   -0.1140    3.4510 ha        1 D50      0.000000
     37 H3A         3.3190   -0.4170    4.0550 ha        1 D50      0.000000
     38 H3B         1.9020    1.4010    0.7890 hc        1 D50      0.058033
     39 H4          0.9670   -2.5200   -0.3640 ha        1 D50      0.136500
     40 H4A         3.3380    0.3480    1.1600 hc        1 D50      0.058033
     41 H5          2.1250   -2.1430   -2.5350 h4        1 D50      0.173000
     42 H7          3.4840    2.1530   -3.2150 h1        1 D50      0.096700
     43 H8          3.6060    1.4620   -5.6080 hx        1 D50      0.119700
     44 H9          5.0530    2.4920   -5.0900 hx        1 D50      0.119700
     45 H9A         8.6150    3.5870   -6.2480 ha        1 D50      0.193500
     46 H11         4.0740   -1.0810  -11.3950 ha        1 D50      0.149500
     47 H12         5.1790   -2.3050  -10.5270 ha        1 D50      0.149500
     48 H14        10.1720   -2.4660   -9.5240 ha        1 D50      0.178500
     49 H14A        2.7660   -0.8510   -7.6240 ho        1 D50      0.448000
     50 H16         6.0150    5.1490  -10.5230 hc        1 D50      0.062367
     51 H17         4.7810    4.1190  -11.3760 hc        1 D50      0.062367
     52 H18         7.8470    1.3470  -10.5350 ha        1 D50      0.162500
     53 H19         5.5060   -5.8910   -8.5140 ha        1 D50      0.178500
     54 H20         6.2050    4.7800  -12.2920 hc        1 D50      0.062367
     55 H21         4.6290    2.0540   -7.6650 hc        1 D50      0.101700
     56 H22         5.9000    1.4250   -8.8050 hc        1 D50      0.101700
     57 O5          6.8570   -2.0070   -5.2100 o         1 D50     -0.456000
     58 O4          7.4490   -4.2160   -4.5520 o         1 D50     -0.456000
     59 H121        2.8310    0.5390   -1.3970 hn        1 D50      0.329500
     60 H23         6.8000   -0.1100   -7.0210 hx        1 D50      0.125700
     61 C6          3.4540   -0.0490   -3.2660 c         1 D50      0.633100
@<TRIPOS>BOND
     1    1    4 2   
     2    1   28 1   
     3    1   32 1   
     4    2   10 1   
     5    2   59 1   
     6    2   61 1   
     7    3   61 2   
     8    4    7 1   
     9    4   30 1   
    10    5   12 1   
    11    5   26 1   
    12    5   33 1   
    13    5   34 1   
    14    6   11 1   
    15    6   35 1   
    16    7   31 1   
    17    7   38 1   
    18    7   40 1   
    19    8   17 1   
    20    8   49 1   
    21    9   10 2   
    22    9   29 1   
    23    9   39 1   
    24   10   41 1   
    25   11   12 1   
    26   11   42 1   
    27   11   61 1   
    28   12   43 1   
    29   12   44 1   
    30   13   14 3   
    31   13   45 1   
    32   14   26 1   
    33   15   16 2   
    34   15   46 1   
    35   15   47 1   
    36   16   17 2   
    37   17   25 1   
    38   18   19 3   
    39   18   48 1   
    40   19   24 1   
    41   20   21 1   
    42   20   50 1   
    43   20   51 1   
    44   20   54 1   
    45   21   22 3   
    46   22   52 1   
    47   23   24 3   
    48   23   53 1   
    49   25   26 1   
    50   25   55 1   
    51   25   56 1   
    52   26   60 1   
    53   27   57 2   
    54   27   58 2   
    55   36   37 1   
@<TRIPOS>SUBSTRUCTURE
     1 D50         1 TEMP              0 ****  ****    0 ROOT
