@<TRIPOS>MOLECULE
D50
   61    57     1     0     0
SMALL
bcc


@<TRIPOS>ATOM
      1 C1          0.9970   -3.2580   -1.9460 c2        1 D50     -0.165000
      2 N1          3.3100    1.9310   -2.0240 ns        1 D50     -0.322000
      3 O1          5.4580    1.4500   -1.3330 o         1 D50     -0.354000
      4 C2          1.3350   -2.6700   -0.8010 c2        1 D50     -0.237000
      5 N2          6.4190    1.0770   -4.1890 nz        1 D50     -0.069000
      6 O2          6.5690    3.4800   -2.6880 oh        1 D50     -0.323000
      7 C3          2.6800   -2.1140   -0.5000 c3        1 D50      0.008000
      8 O3          6.0200   -2.2000   -6.5910 oh        1 D50     -0.158000
      9 C4          1.2470    0.6230   -1.6550 c3        1 D50     -0.236000
     10 C5          2.7630    0.6890   -1.5010 c3        1 D50     -0.006000
     11 C7          5.2920    3.0380   -3.1080 c3        1 D50     -0.004000
     12 C8          5.5030    2.2380   -4.4240 c3        1 D50     -0.069000
     13 C9          6.0350    3.1890   -5.5030 c3        1 D50     -0.134000
     14 C10         6.4970    2.4900   -6.7360 c2        1 D50     -0.133000
     15 C11         5.5100    1.6160   -7.4500 c3        1 D50     -0.012000
     16 C12         5.6930    0.2300   -7.1460 c1        1 D50     -0.257000
     17 C13         5.8470   -0.9410   -6.9480 c1        1 D50     -0.029000
     18 C14         6.5940   -4.6120   -8.8020 c1        1 D50     -0.215000
     19 C15         6.3920   -3.8340   -9.6910 c1        1 D50     -0.125000
     20 C16         4.6670    2.7280  -11.9200 c2        1 D50     -0.521000
     21 C17         5.1590    2.2930  -10.7990 c1        1 D50      0.118000
     22 C18         7.0910   -0.5410  -10.9810 c2        1 D50     -0.174000
     23 C19         6.6250   -1.7430  -10.8520 c1        1 D50     -0.133000
     24 C20         6.1400   -2.9560  -10.7590 c2        1 D50     -0.036000
     25 C21         8.8760    2.9110   -7.7140 c2        1 D50     -0.141000
     26 C22         7.6990    2.7020   -7.2150 c1        1 D50     -0.126000
     27 C23         3.4170   -0.5190   -2.1860 c2        1 D50      0.309000
     28 H1          0.9440    0.6830   -2.7280 hc        1 D50      0.111000
     29 H1A         1.6950   -3.3520   -2.7910 ha        1 D50      0.130500
     30 H1B         0.6300   -2.6020    0.0450 ha        1 D50      0.142000
     31 HN1         2.6160   -1.2390    0.1960 h1        1 D50      0.115500
     32 H2         -0.0020   -3.6860   -2.1100 ha        1 D50      0.130500
     33 HN2         6.0030    0.4330   -3.4930 hn        1 D50      0.269667
     34 HN2A        7.3140    1.4240   -3.8290 hn        1 D50      0.269667
     35 HO2         6.6020    3.4630   -1.7180 ho        1 D50      0.254000
     36 H3          5.9700   -0.9630   -1.7530 ha        1 D50      0.003000
     37 H3A         6.6080   -0.7530   -1.8510 ha        1 D50      0.003000
     38 H3B         3.3330   -2.9110   -0.0370 h1        1 D50      0.115500
     39 H4          0.8790   -0.3470   -1.2370 hc        1 D50      0.111000
     40 H4A         0.7640    1.4590   -1.0950 hc        1 D50      0.111000
     41 H5          3.0450    0.6480   -0.4040 h1        1 D50      0.151000
     42 H7          4.6460    3.9340   -3.3180 h1        1 D50      0.144000
     43 H8          4.5130    1.7960   -4.7510 hx        1 D50      0.158000
     44 H9          6.8620    3.8140   -5.0670 hc        1 D50      0.131500
     45 H9A         5.1920    3.8840   -5.7710 hc        1 D50      0.131500
     46 H11         4.4630    1.9310   -7.1750 hc        1 D50      0.134000
     47 H12         5.6110    1.7600   -8.5730 hc        1 D50      0.134000
     48 H14         6.7760   -5.3220   -8.0340 ha        1 D50      0.233000
     49 H14A        6.1110   -2.7200   -7.4220 ho        1 D50      0.264000
     50 H16         4.7720    3.7660  -12.2780 ha        1 D50      0.205000
     51 H17         4.0980    2.0980  -12.6260 ha        1 D50      0.205000
     52 H18         6.5560    0.3470  -10.6010 ha        1 D50      0.146500
     53 H19         8.0480   -0.3360  -11.4840 ha        1 D50      0.146500
     54 H20         5.4910   -3.3610  -11.5620 ha        1 D50      0.165000
     55 H21         9.0750    3.7350   -8.4190 ha        1 D50      0.155000
     56 H22         9.7460    2.2810   -7.4690 ha        1 D50      0.155000
     57 O5          4.0900   -0.4340   -3.2290 o         1 D50     -0.406000
     58 O4          3.4090   -1.7790   -1.6930 os        1 D50     -0.221000
     59 H121        2.7550    2.4030   -2.7040 hn        1 D50      0.235000
     60 H23         6.5660    0.5730   -5.0760 hn        1 D50      0.269667
     61 C6          4.6780    2.0830   -2.0760 c2        1 D50      0.243000
@<TRIPOS>BOND
     1    1    4 1   
     2    1   29 1   
     3    1   32 1   
     4    2   10 1   
     5    2   59 1   
     6    2   61 1   
     7    3   61 1   
     8    4    7 1   
     9    4   30 1   
    10    5   12 1   
    11    5   33 1   
    12    5   34 1   
    13    5   60 1   
    14    6   11 1   
    15    6   35 1   
    16    7   31 1   
    17    7   38 1   
    18    7   58 1   
    19    8   17 1   
    20    8   49 1   
    21    9   10 1   
    22    9   28 1   
    23    9   39 1   
    24    9   40 1   
    25   10   27 1   
    26   10   41 1   
    27   11   12 1   
    28   11   42 1   
    29   11   61 1   
    30   12   13 1   
    31   12   43 1   
    32   13   14 1   
    33   13   44 1   
    34   13   45 1   
    35   14   15 1   
    36   14   26 1   
    37   15   16 1   
    38   15   46 1   
    39   15   47 1   
    40   16   17 1   
    41   18   19 1   
    42   18   48 1   
    43   19   24 1   
    44   20   21 1   
    45   20   50 1   
    46   20   51 1   
    47   22   23 1   
    48   22   52 1   
    49   22   53 1   
    50   23   24 1   
    51   24   54 1   
    52   25   26 1   
    53   25   55 1   
    54   25   56 1   
    55   27   57 1   
    56   27   58 1   
    57   36   37 1   
@<TRIPOS>SUBSTRUCTURE
     1 D50         1 TEMP              0 ****  ****    0 ROOT
