@<TRIPOS>MOLECULE
D50
   59    56     1     0     0
SMALL
bcc


@<TRIPOS>ATOM
      1 C1         -1.5030    1.4780    8.2630 c3        1 D50     -0.199500
      2 N1         -1.6410    0.8260    3.8930 n         1 D50     -0.300000
      3 O1         -0.4090   -0.7720    2.8230 o         1 D50     -0.440000
      4 C2         -1.6750    0.2980    7.3310 c3        1 D50     -0.118000
      5 N2          1.2330   -0.0790    0.6470 n3        1 D50     -0.327000
      6 O2          1.2090    1.7760    2.5360 oh        1 D50     -0.337000
      7 C3         -2.3890   -0.8200    8.0590 c3        1 D50     -0.199500
      8 O3          1.3900    0.0270   -5.6200 os        1 D50     -0.221000
      9 C4         -2.4920    0.7190    6.1290 c3        1 D50     -0.147000
     10 O4         -4.2740   -0.3660    4.0590 o         1 D50     -0.561000
     11 C5         -2.0500   -0.0690    4.9180 c3        1 D50     -0.082000
     12 O5         -3.0950   -2.1690    4.3950 o         1 D50     -0.561000
     13 C6         -0.7050    0.4030    2.9130 c2        1 D50      0.253000
     14 C7         -0.0470    1.4200    2.0080 c3        1 D50     -0.038000
     15 C8          0.1350    0.8250    0.6310 c3        1 D50     -0.052000
     16 C9          0.4080    1.9310   -0.3640 c3        1 D50     -0.113000
     17 C10         0.6110    1.3340   -1.7400 c2        1 D50     -0.073000
     18 C11         1.8920    1.0590   -2.1920 c2        1 D50     -0.097000
     19 C12         2.0870    0.6030   -3.4870 c1        1 D50     -0.159000
     20 C13         1.0010    0.4220   -4.3280 c1        1 D50      0.062000
     21 C14         1.1040   -1.3200   -5.9150 c3        1 D50      0.015000
     22 C15         1.7570   -1.7000   -7.2260 c2        1 D50     -0.077000
     23 C16         3.0550   -2.1870   -7.2390 c2        1 D50     -0.102000
     24 C17         3.6590   -2.5200   -8.4410 c1        1 D50     -0.135000
     25 C18         2.9650   -2.3660   -9.6310 c1        1 D50     -0.133500
     26 C19         1.6680   -1.8790   -9.6190 c1        1 D50     -0.133500
     27 C20         1.0630   -1.5460   -8.4160 c1        1 D50     -0.127000
     28 C21        -0.2800    0.6970   -3.8760 c1        1 D50     -0.194000
     29 C22        -0.4750    1.1530   -2.5820 c1        1 D50     -0.086000
     30 C23        -3.2000   -0.9150    4.4190 c2        1 D50      0.332000
     31 H1         -1.1970    2.2560    7.7510 hc        1 D50      0.062500
     32 H1A        -0.8400    1.2580    8.9500 hc        1 D50      0.062500
     33 H1B        -2.3610    1.6840    8.6900 hc        1 D50      0.062500
     34 HN1        -1.9810    1.6710    3.8640 hn        1 D50      0.245000
     35 H2         -0.7980   -0.0140    7.0350 hc        1 D50      0.106000
     36 HN2         1.6470   -0.0430    1.4640 hn        1 D50      0.149000
     37 HN2A        0.9300   -0.9300    0.4950 hn        1 D50      0.149000
     38 HO2         1.1300    2.5260    3.0070 ho        1 D50      0.222000
     39 H3         -2.2380   -1.6660    7.5870 hc        1 D50      0.062500
     40 H3A        -3.3500   -0.6290    8.0890 hc        1 D50      0.062500
     41 H3B        -2.0410   -0.8890    8.9730 hc        1 D50      0.062500
     42 H4         -3.4390    0.5470    6.3020 hc        1 D50      0.091500
     43 H4A        -2.3590    1.6740    5.9630 hc        1 D50      0.091500
     44 H5         -1.3010   -0.6490    5.1620 h1        1 D50      0.103000
     45 H7         -0.6120    2.2150    1.9470 h1        1 D50      0.121000
     46 H8         -0.6770    0.3470    0.3720 h1        1 D50      0.120000
     47 H9          1.2130    2.4180   -0.0980 hc        1 D50      0.091000
     48 H9A        -0.3530    2.5460   -0.3840 hc        1 D50      0.091000
     49 H11         2.6570    1.1970   -1.6030 ha        1 D50      0.129000
     50 H12         2.9890    0.4090   -3.8050 ha        1 D50      0.137000
     51 H14         0.1340   -1.4400   -5.9870 h1        1 D50      0.091000
     52 H14A        1.4510   -1.8920   -5.2000 h1        1 D50      0.091000
     53 H16         3.5340   -2.3200   -6.3980 ha        1 D50      0.152000
     54 H17         4.5780   -2.8500   -8.4510 ha        1 D50      0.128000
     55 H18         3.3910   -2.6000  -10.4780 ha        1 D50      0.126000
     56 H19         1.1770   -1.7750  -10.4560 ha        1 D50      0.126000
     57 H20         0.1390   -1.2320   -8.4050 ha        1 D50      0.132000
     58 H21        -1.0440    0.5690   -4.4700 ha        1 D50      0.134000
     59 H22        -1.3780    1.3460   -2.2640 ha        1 D50      0.147000
@<TRIPOS>BOND
     1    1    4 1   
     2    1   31 1   
     3    1   32 1   
     4    1   33 1   
     5    2   11 1   
     6    2   13 1   
     7    2   34 1   
     8    3   13 1   
     9    4    7 1   
    10    4    9 1   
    11    4   35 1   
    12    5   15 1   
    13    5   36 1   
    14    5   37 1   
    15    6   14 1   
    16    6   38 1   
    17    7   39 1   
    18    7   40 1   
    19    7   41 1   
    20    8   20 1   
    21    8   21 1   
    22    9   11 1   
    23    9   42 1   
    24    9   43 1   
    25   10   30 1   
    26   11   30 1   
    27   11   44 1   
    28   12   30 1   
    29   13   14 1   
    30   14   15 1   
    31   14   45 1   
    32   15   16 1   
    33   15   46 1   
    34   16   17 1   
    35   16   47 1   
    36   16   48 1   
    37   17   18 1   
    38   17   29 1   
    39   18   19 1   
    40   18   49 1   
    41   19   50 1   
    42   20   28 1   
    43   21   22 1   
    44   21   51 1   
    45   21   52 1   
    46   22   23 1   
    47   22   27 1   
    48   23   24 1   
    49   23   53 1   
    50   24   54 1   
    51   25   26 1   
    52   25   55 1   
    53   26   56 1   
    54   27   57 1   
    55   28   58 1   
    56   29   59 1   
@<TRIPOS>SUBSTRUCTURE
     1 D50         1 TEMP              0 ****  ****    0 ROOT
