@<TRIPOS>MOLECULE
D53
   26    26     1     0     0
SMALL
bcc


@<TRIPOS>ATOM
      1 CAD        -5.4620    0.0740    0.4290 ca        1 D53     -0.145000
      2 CAE        -4.7470    1.2680    0.5170 ca        1 D53     -0.140000
      3 CAF        -4.8180   -1.0890    0.0070 ca        1 D53     -0.140000
      4 CAG        -3.3930    1.3000    0.1850 ca        1 D53     -0.121000
      5 CAH        -3.4660   -1.0600   -0.3290 ca        1 D53     -0.121000
      6 CAI         0.9190   -0.7690   -0.3840 c3        1 D53      0.185800
      7 CAJ         1.6880    0.2870    0.3790 c3        1 D53     -0.325600
      8 CAM        -2.7440    0.1360   -0.2420 ca        1 D53     -0.071300
      9 NAL        -0.5000   -0.8960   -0.1000 n3        1 D53     -0.817200
     10 OAA         3.9130   -0.9510    0.2640 o         1 D53     -0.751200
     11 OAB         3.4090    0.5830   -1.4750 o         1 D53     -0.751200
     12 OAC         3.9420    1.3820    0.6940 o         1 D53     -0.751200
     13 SAN         3.4120    0.3250   -0.0840 s6        1 D53      1.430800
     14 H1         -6.5280    0.0500    0.6930 ha        1 D53      0.117000
     15 H2         -5.2500    2.1870    0.8520 ha        1 D53      0.120500
     16 H3         -5.3780   -2.0330   -0.0610 ha        1 D53      0.120500
     17 H4         -2.8320    2.2430    0.2620 ha        1 D53      0.141500
     18 H5         -2.9570   -1.9780   -0.6620 ha        1 D53      0.141500
     19 H6          1.0460   -0.5780   -1.4880 h1        1 D53      0.063200
     20 H7          1.3750   -1.7760   -0.1530 h1        1 D53      0.063200
     21 H8          1.2570    1.2990    0.1920 h1        1 D53      0.063200
     22 H9          1.6230    0.0990    1.4760 h1        1 D53      0.063200
     23 H10        -1.2400    0.1210   -1.7650 h1        1 D53      0.041200
     24 H11        -0.8810    1.2060   -0.3550 h1        1 D53      0.041200
     25 H12        -0.6410   -0.9540    0.8930 hn        1 D53      0.345800
     26 CAK        -1.2960    0.1930   -0.6380 c3        1 D53      0.195100
@<TRIPOS>BOND
     1    1    2 ar  
     2    1    3 ar  
     3    1   14 1   
     4    2    4 ar  
     5    2   15 1   
     6    3    5 ar  
     7    3   16 1   
     8    4    8 ar  
     9    4   17 1   
    10    5    8 ar  
    11    5   18 1   
    12    6    7 1   
    13    6    9 1   
    14    6   19 1   
    15    6   20 1   
    16    7   13 1   
    17    7   21 1   
    18    7   22 1   
    19    8   26 1   
    20    9   25 1   
    21    9   26 1   
    22   10   13 1   
    23   11   13 1   
    24   12   13 1   
    25   23   26 1   
    26   24   26 1   
@<TRIPOS>SUBSTRUCTURE
     1 D53         1 TEMP              0 ****  ****    0 ROOT
