@<TRIPOS>MOLECULE
D53
   26    23     1     0     0
SMALL
bcc


@<TRIPOS>ATOM
      1 CAD        -2.1110    0.1310   -3.8690 c1        1 D53     -0.076750
      2 CAE        -0.7380    0.2880   -3.7610 c1        1 D53     -0.076750
      3 CAF        -2.8650   -0.1650   -2.7450 c1        1 D53     -0.076750
      4 CAG        -0.1200    0.1490   -2.5280 c1        1 D53     -0.076750
      5 CAH        -2.2470   -0.3050   -1.5120 c1        1 D53     -0.072500
      6 CAI         0.8620   -0.2710    1.8190 c3        1 D53      0.185800
      7 CAJ         1.3850    0.8440    2.6980 c3        1 D53     -0.325600
      8 CAK        -0.2270   -0.7540   -0.1780 c3        1 D53      0.160900
      9 CAM        -0.8740   -0.1480   -1.4040 c1        1 D53     -0.037100
     10 NAL         0.3860    0.2750    0.5930 n3        1 D53     -0.817200
     11 OAA         3.2460    1.2970    4.6210 o         1 D53     -0.751200
     12 OAB         3.7850   -0.3660    3.0750 o         1 D53     -0.751200
     13 OAC         1.9720   -0.8440    4.7190 o         1 D53     -0.751200
     14 SAN         2.5960    0.1950    3.8180 s6        1 D53      1.430800
     15 H1         -2.5470    0.2400   -4.7360 ha        1 D53      0.069500
     16 H2         -0.2060    0.4970   -4.5520 ha        1 D53      0.069500
     17 H3         -3.8320   -0.2760   -2.8220 ha        1 D53      0.069500
     18 H4          0.8470    0.2590   -2.4510 ha        1 D53      0.069500
     19 H5         -2.7810   -0.4990   -0.7180 ha        1 D53      0.075500
     20 H6          1.5840   -0.9070    1.6350 h1        1 D53      0.063200
     21 H7          0.1300   -0.7320    2.2780 h1        1 D53      0.063200
     22 H8          1.7940    1.5350    2.1400 h1        1 D53      0.063200
     23 H9          0.6450    1.2320    3.2070 h1        1 D53      0.063200
     24 H10        -0.9080   -1.2050    0.3620 h1        1 D53      0.041200
     25 H11         0.4530   -1.4030   -0.4560 h1        1 D53      0.041200
     26 H12        -0.2280    0.9310    0.7690 hn        1 D53      0.345800
@<TRIPOS>BOND
     1    1    3 3   
     2    1   15 1   
     3    2    4 3   
     4    2   16 1   
     5    3   17 1   
     6    4   18 1   
     7    5    9 3   
     8    5   19 1   
     9    6    7 1   
    10    6   10 1   
    11    6   20 1   
    12    6   21 1   
    13    7   14 1   
    14    7   22 1   
    15    7   23 1   
    16    8    9 1   
    17    8   10 1   
    18    8   24 1   
    19    8   25 1   
    20   10   26 1   
    21   11   14 1   
    22   12   14 1   
    23   13   14 1   
@<TRIPOS>SUBSTRUCTURE
     1 D53         1 TEMP              0 ****  ****    0 ROOT
