@<TRIPOS>MOLECULE
D53
   27    23     1     0     0
SMALL
bcc


@<TRIPOS>ATOM
      1 CAD         0.0430    1.9570    2.3210 c1        1 D53     -0.030000
      2 CAE         2.8920   -1.9390    0.1080 c1        1 D53     -0.163500
      3 CAF        -0.5620    0.7500    2.2380 c1        1 D53     -0.235000
      4 CAG         3.4180   -1.4850    1.0840 c1        1 D53     -0.094500
      5 CAH        -1.0070   -0.3800    2.2110 c1        1 D53     -0.030000
      6 CAI         1.8510    1.2150    5.8170 c3        1 D53     -0.199000
      7 CAJ         2.4250    2.3590    5.0300 c3        1 D53     -0.714000
      8 CAM         4.0220   -0.9760    2.1870 c1        1 D53     -0.094500
      9 NAL         2.4970    2.1190    3.5820 n4        1 D53     -0.079000
     10 OAA         4.0350    3.0490    6.9910 o         1 D53     -1.042000
     11 OAB         4.8410    1.5440    5.3200 o         1 D53     -1.042000
     12 OAC         4.4970    3.7930    4.7650 o         1 D53     -1.042000
     13 SAN         4.2210    2.7520    5.6550 s6        1 D53      2.875000
     14 H1         -0.3670    2.6310    4.4700 ha        1 D53      0.012500
     15 H2          2.4380   -2.3450   -0.7600 ha        1 D53      0.258500
     16 H3         -0.4030    2.8570    1.8810 ha        1 D53      0.185500
     17 H4         -0.9880    2.7210    4.2020 ha        1 D53      0.012500
     18 H5         -1.3820   -1.3770    2.1920 ha        1 D53      0.185500
     19 H6          3.0200    2.8950    3.1650 hn        1 D53      0.246333
     20 H7          1.8620    1.5010    6.9000 hc        1 D53      0.089333
     21 H8          2.4690    0.2910    5.6920 hc        1 D53      0.089333
     22 H9          1.8230    3.2880    5.2020 hx        1 D53      0.133000
     23 H10         5.0560   -0.1290    4.0280 ha        1 D53      0.258500
     24 H11         1.5220    2.0460    3.1290 hn        1 D53      0.246333
     25 H12         0.7980    0.9850    5.5210 hc        1 D53      0.089333
     26 CAK         4.5730   -0.5380    3.1590 c1        1 D53     -0.163500
     27 HAL2        3.0160    1.2520    3.4190 hn        1 D53      0.246333
@<TRIPOS>BOND
     1    1    3 1   
     2    1   16 1   
     3    2    4 1   
     4    2   15 1   
     5    3    5 1   
     6    4    8 1   
     7    5   18 1   
     8    6    7 1   
     9    6   20 1   
    10    6   21 1   
    11    6   25 1   
    12    7    9 1   
    13    7   13 1   
    14    7   22 1   
    15    8   26 1   
    16    9   19 1   
    17    9   24 1   
    18    9   27 1   
    19   10   13 1   
    20   11   13 1   
    21   12   13 1   
    22   14   17 1   
    23   23   26 1   
@<TRIPOS>SUBSTRUCTURE
     1 D53         1 TEMP              0 ****  ****    0 ROOT
