@<TRIPOS>MOLECULE
D53
   27    24     1     0     0
SMALL
bcc


@<TRIPOS>ATOM
      1 CAD        -0.5720    1.3960    0.6900 c3        1 D53     -0.130000
      2 CAE         3.8370   -1.6570    0.4690 c1        1 D53      0.253000
      3 CAF        -0.1740    0.5920    1.8000 c1        1 D53     -0.153000
      4 CAG         3.3620   -1.1610    1.6000 c2        1 D53     -0.384000
      5 CAH         0.1550   -0.0940    2.7260 c1        1 D53     -0.259000
      6 CAI         2.0120    0.8390    6.0810 c3        1 D53     -0.203000
      7 CAJ         2.1270    2.1840    5.4280 c3        1 D53     -0.708000
      8 CAM         4.0730   -0.5400    2.6290 c1        1 D53     -0.172000
      9 NAL         2.1960    2.1380    3.9600 n4        1 D53     -0.019000
     10 OAA         3.5750    3.2490    7.3880 o         1 D53     -1.034333
     11 OAB         4.7070    2.1520    5.5930 o         1 D53     -1.034333
     12 OAC         3.6570    4.2030    5.1950 o         1 D53     -1.034333
     13 SAN         3.7870    3.0990    6.0380 s6        1 D53      2.878000
     14 H1          0.3150    1.6810    0.0660 hc        1 D53      0.106000
     15 H2         -1.0780    2.3330    1.0400 hc        1 D53      0.106000
     16 H3         -1.2910    0.8300    0.0400 hc        1 D53      0.106000
     17 H4          2.2600   -1.2560    1.7650 ha        1 D53      0.196000
     18 H5          0.4140   -0.7200    3.5430 ha        1 D53      0.233000
     19 H6          1.0970    0.2850    5.7540 hc        1 D53      0.093333
     20 H7          2.9120    0.2090    5.8610 hc        1 D53      0.093333
     21 H8          1.9540    0.9970    7.1880 hc        1 D53      0.093333
     22 H9          1.2810    2.8510    5.7300 hx        1 D53      0.140000
     23 H10         5.2170    0.4660    4.3160 ha        1 D53      0.283000
     24 H11         2.3910    3.0920    3.6260 hn        1 D53      0.240000
     25 H12         2.9750    1.5210    3.6880 hn        1 D53      0.240000
     26 CAK         4.6870   -0.0190    3.5180 c1        1 D53     -0.171000
     27 HAL2        1.3310    1.7870    3.5440 hn        1 D53      0.240000
@<TRIPOS>BOND
     1    1    3 1   
     2    1   14 1   
     3    1   15 1   
     4    1   16 1   
     5    2    4 1   
     6    3    5 1   
     7    4    8 1   
     8    4   17 1   
     9    5   18 1   
    10    6    7 1   
    11    6   19 1   
    12    6   20 1   
    13    6   21 1   
    14    7    9 1   
    15    7   13 1   
    16    7   22 1   
    17    8   26 1   
    18    9   24 1   
    19    9   25 1   
    20    9   27 1   
    21   10   13 1   
    22   11   13 1   
    23   12   13 1   
    24   23   26 1   
@<TRIPOS>SUBSTRUCTURE
     1 D53         1 TEMP              0 ****  ****    0 ROOT
