@<TRIPOS>MOLECULE
D54
   19    18     1     0     0
SMALL
bcc


@<TRIPOS>ATOM
      1 OAA        -4.3610    0.1870   -0.3920 o         1 D54     -0.532100
      2 OAB        -2.4570   -1.2900    0.9040 oh        1 D54     -0.583800
      3 OAC         1.5520    1.5660    0.4490 o         1 D54     -0.606100
      4 OAD         3.0080   -0.4460   -1.6720 o         1 D54     -0.804800
      5 CAE        -3.2560    0.0830   -0.9240 c         1 D54      0.545900
      6 CAF        -2.0950   -0.6640   -0.3080 c3        1 D54      0.031100
      7 CAG        -0.8960    0.2910   -0.1330 c3        1 D54      0.135100
      8 CAH         0.3950   -0.4900    0.0520 c3        1 D54     -0.233400
      9 CAI         1.6220    0.3890    0.0710 c         1 D54      0.469100
     10 CAJ         2.9020   -0.3070   -0.4240 c         1 D54      0.861600
     11 OAK        -1.2100    1.1000    0.9930 oh        1 D54     -0.640800
     12 OAL         3.7110   -0.7160    0.4460 o         1 D54     -0.804800
     13 HAE        -3.0390    0.5410   -1.9160 h4        1 D54     -0.009800
     14 HAF        -1.8030   -1.5110   -0.9940 h1        1 D54      0.094700
     15 HAG        -0.8060    0.9520   -1.0410 h1        1 D54      0.043700
     16 HAH         0.3550   -1.0630    1.0150 hc        1 D54      0.082200
     17 HAHA        0.5110   -1.2240   -0.7880 hc        1 D54      0.082200
     18 HOAK       -0.4040    1.5880    1.2220 ho        1 D54      0.447000
     19 HOAB       -2.6230   -0.5840    1.5460 ho        1 D54      0.424000
@<TRIPOS>BOND
     1    1    5 2   
     2    2    6 1   
     3    2   19 1   
     4    3    9 2   
     5    4   10 1   
     6    5    6 1   
     7    5   13 1   
     8    6    7 1   
     9    6   14 1   
    10    7    8 1   
    11    7   11 1   
    12    7   15 1   
    13    8    9 1   
    14    8   16 1   
    15    8   17 1   
    16    9   10 1   
    17   10   12 1   
    18   11   18 1   
@<TRIPOS>SUBSTRUCTURE
     1 D54         1 TEMP              0 ****  ****    0 ROOT
