@<TRIPOS>MOLECULE
D54
   19    17     1     0     0
SMALL
bcc


@<TRIPOS>ATOM
      1 OAA        -2.8350   -1.2020   -1.8330 o         1 D54     -0.293000
      2 OAB        -1.3050   -2.1200    0.1730 oh        1 D54     -0.311000
      3 OAC         0.7620    2.5080    0.0950 o         1 D54     -0.367000
      4 OAD         1.8020    1.9710    3.0010 o         1 D54     -0.539500
      5 CAE        -1.6290   -1.1710   -1.9910 c1        1 D54      0.164000
      6 CAF        -0.7070   -1.2950   -0.7990 c2        1 D54     -0.030000
      7 CAG        -0.4570    0.0750   -0.2110 c3        1 D54      0.024000
      8 CAH         0.9680    0.1580    0.2850 c3        1 D54     -0.262000
      9 CAI         1.2800    1.5830    0.6860 c2        1 D54      0.180000
     10 CAJ         2.2380    1.8550    1.8250 c2        1 D54      0.331000
     11 OAK        -1.3410    0.2930    0.8620 oh        1 D54     -0.368000
     12 OAL         3.4720    1.9670    1.5970 o         1 D54     -0.539500
     13 HOAB       -1.2370   -2.9710   -0.0790 ho        1 D54      0.223000
     14 HAE        -1.2560   -1.0660   -2.8890 ha        1 D54      0.083000
     15 HAF         0.1420   -1.6870   -1.0830 h4        1 D54      0.134000
     16 HAG        -0.6040    0.7560   -0.8980 h1        1 D54      0.083000
     17 HAH         1.5780   -0.1210   -0.4270 hc        1 D54      0.121500
     18 HAHA        1.0790   -0.4300    1.0580 hc        1 D54      0.121500
     19 HOAK       -1.9490    0.8980    0.6270 ho        1 D54      0.246000
@<TRIPOS>BOND
     1    1    5 1   
     2    2    6 1   
     3    2   13 1   
     4    3    9 1   
     5    4   10 1   
     6    5   14 1   
     7    6    7 1   
     8    6   15 1   
     9    7    8 1   
    10    7   11 1   
    11    7   16 1   
    12    8    9 1   
    13    8   17 1   
    14    8   18 1   
    15    9   10 1   
    16   10   12 1   
    17   11   19 1   
@<TRIPOS>SUBSTRUCTURE
     1 D54         1 TEMP              0 ****  ****    0 ROOT
