@<TRIPOS>MOLECULE
D54
   19    18     1     0     0
SMALL
bcc


@<TRIPOS>ATOM
      1 OAA         0.2880   -0.7470   -0.1330 o         1 D54     -0.532100
      2 OAB         0.5590    0.4440    2.3150 oh        1 D54     -0.583800
      3 OAC         4.4770    3.3750    1.6100 o         1 D54     -0.606100
      4 OAD         6.4360    1.5700    3.4980 o         1 D54     -0.804800
      5 CAE         1.4210   -0.6560    0.3380 c         1 D54      0.545900
      6 CAF         1.7310    0.0130    1.6580 c3        1 D54      0.031100
      7 CAG         2.7300    1.1670    1.4350 c3        1 D54      0.135100
      8 CAH         3.3990    1.5630    2.7410 c3        1 D54     -0.233400
      9 CAI         4.4990    2.5810    2.5590 c         1 D54      0.469100
     10 CAJ         5.6060    2.5080    3.6270 c         1 D54      0.861600
     11 OAK         1.9720    2.2270    0.8670 oh        1 D54     -0.640800
     12 OAL         5.5690    3.3540    4.5560 o         1 D54     -0.804800
     13 HAE         2.3090   -1.0730   -0.1900 h4        1 D54     -0.009800
     14 HAF         2.1880   -0.7490    2.3530 h1        1 D54      0.094700
     15 HAG         3.5170    0.8460    0.6940 h1        1 D54      0.043700
     16 HAH         2.6350    1.9910    3.4430 hc        1 D54      0.082200
     17 HAHA        3.8460    0.6540    3.2230 hc        1 D54      0.082200
     18 HOAK        2.5390    3.0140    0.8750 ho        1 D54      0.447000
     19 HOAB        0.1930    1.1690    1.7890 ho        1 D54      0.424000
@<TRIPOS>BOND
     1    1    5 2   
     2    2    6 1   
     3    2   19 1   
     4    3    9 2   
     5    4   10 1   
     6    5    6 1   
     7    5   13 1   
     8    6    7 1   
     9    6   14 1   
    10    7    8 1   
    11    7   11 1   
    12    7   15 1   
    13    8    9 1   
    14    8   16 1   
    15    8   17 1   
    16    9   10 1   
    17   10   12 1   
    18   11   18 1   
@<TRIPOS>SUBSTRUCTURE
     1 D54         1 TEMP              0 ****  ****    0 ROOT
