@<TRIPOS>MOLECULE
D54
   19    18     1     0     0
SMALL
bcc


@<TRIPOS>ATOM
      1 OAA         0.3950   -0.6640   -0.3310 o         1 D54     -0.532100
      2 OAB         0.6880    0.1150    2.2750 oh        1 D54     -0.583800
      3 OAC         4.2040    3.5720    1.9310 o         1 D54     -0.606100
      4 OAD         6.4690    1.7190    3.3800 o         1 D54     -0.804800
      5 CAE         1.5390   -0.5200    0.0990 c         1 D54      0.545900
      6 CAF         1.8570   -0.0540    1.5020 c3        1 D54      0.031100
      7 CAG         2.7050    1.2330    1.4440 c3        1 D54      0.135100
      8 CAH         3.4080    1.4780    2.7690 c3        1 D54     -0.233400
      9 CAI         4.3750    2.6360    2.7230 c         1 D54      0.469100
     10 CAJ         5.5500    2.5140    3.7110 c         1 D54      0.861600
     11 OAK         1.8000    2.2760    1.1070 oh        1 D54     -0.640800
     12 OAL         5.4790    3.1780    4.7750 o         1 D54     -0.804800
     13 HAE         2.4320   -0.7300   -0.5330 h4        1 D54     -0.009800
     14 HAF         2.4380   -0.8630    2.0310 h1        1 D54      0.094700
     15 HAG         3.4740    1.1400    0.6240 h1        1 D54      0.043700
     16 HAH         2.6480    1.6840    3.5680 hc        1 D54      0.082200
     17 HAHA        3.9830    0.5600    3.0620 hc        1 D54      0.082200
     18 HOAK        2.2760    3.1120    1.2290 ho        1 D54      0.447000
     19 HOAB        0.2110    0.8690    1.9020 ho        1 D54      0.424000
@<TRIPOS>BOND
     1    1    5 2   
     2    2    6 1   
     3    2   19 1   
     4    3    9 2   
     5    4   10 1   
     6    5    6 1   
     7    5   13 1   
     8    6    7 1   
     9    6   14 1   
    10    7    8 1   
    11    7   11 1   
    12    7   15 1   
    13    8    9 1   
    14    8   16 1   
    15    8   17 1   
    16    9   10 1   
    17   10   12 1   
    18   11   18 1   
@<TRIPOS>SUBSTRUCTURE
     1 D54         1 TEMP              0 ****  ****    0 ROOT
