@<TRIPOS>MOLECULE
D55
   56    57     1     0     0
SMALL
bcc


@<TRIPOS>ATOM
      1 C3         -0.2960   -0.4130   -0.2140 c3        1 D55      0.127400
      2 C2          1.1920   -0.5390   -0.4320 c3        1 D55     -0.100100
      3 C5         -6.3490    0.5840    3.5800 c3        1 D55      0.126400
      4 C6         -7.7100    1.2270    3.7180 c3        1 D55     -0.101100
      5 C9         -2.4630    1.3650    0.8750 ca        1 D55     -0.098000
      6 C8         -3.7560    1.6900    1.2560 ca        1 D55     -0.161000
      7 C7         -4.3860    0.9230    2.2550 ca        1 D55      0.151100
      8 C31        -3.7350   -0.1500    2.8720 ca        1 D55     -0.222000
      9 C12        -2.4210   -0.4830    2.4900 ca        1 D55      0.081600
     10 N13        -1.7020   -1.5480    3.0650 ns        1 D55     -0.449100
     11 C14        -2.0240   -2.2460    4.2130 c         1 D55      0.672700
     12 O15        -3.0840   -2.1020    4.8490 o         1 D55     -0.576100
     13 C16        -1.0010   -3.2380    4.6850 ca        1 D55     -0.113600
     14 C17        -0.3380   -4.0910    3.8020 ca        1 D55     -0.084500
     15 C18         0.5870   -5.0270    4.2820 ca        1 D55     -0.077300
     16 C19         1.2660   -5.9420    3.3380 c3        1 D55     -0.053300
     17 C20         0.8220   -5.0820    5.6670 ca        1 D55      0.071100
     18 O21         1.6580   -6.0960    6.1480 os        1 D55     -0.385900
     19 C22         2.9590   -5.6450    6.5300 c3        1 D55      0.103400
     20 C23         3.4500   -6.6080    7.6170 c3        1 D55      0.091800
     21 N24         3.3020   -8.0370    7.2150 nz        1 D55     -0.833600
     22 C28         0.1620   -4.2320    6.5700 ca        1 D55     -0.077300
     23 C29         0.4060   -4.2840    8.0300 c3        1 D55     -0.053300
     24 O3         -5.6700    1.3220    2.5530 os        1 D55     -0.325900
     25 C30        -0.7590   -3.3120    6.0600 ca        1 D55     -0.084500
     26 O8         -0.4710    0.0180    1.1480 os        1 D55     -0.358900
     27 C11        -1.7960    0.2900    1.4720 ca        1 D55      0.009100
     28 H2C1        1.3830   -0.8580   -1.4850 hc        1 D55      0.046700
     29 H2C2        1.6290   -1.2950    0.2630 hc        1 D55      0.046700
     30 H2C3        1.6980    0.4390   -0.2490 hc        1 D55      0.046700
     31 H3C1       -0.7450    0.3440   -0.9090 h1        1 D55      0.037700
     32 H3C2       -0.8180   -1.3960   -0.3540 h1        1 D55      0.037700
     33 H5C1       -6.4370   -0.4900    3.2670 h1        1 D55      0.043200
     34 H5C2       -5.7660    0.6530    4.5350 h1        1 D55      0.043200
     35 H6C1       -8.2680    1.1740    2.7530 hc        1 D55      0.052033
     36 H6C2       -8.2880    0.6900    4.5070 hc        1 D55      0.052033
     37 H6C3       -7.6070    2.3010    4.0050 hc        1 D55      0.052033
     38 H8         -4.2930    2.5320    0.7980 ha        1 D55      0.160000
     39 H31        -4.2450   -0.7320    3.6560 ha        1 D55      0.178000
     40 H9         -1.9480    1.9570    0.1030 ha        1 D55      0.149000
     41 H13        -0.7830   -1.6730    2.6910 hn        1 D55      0.332500
     42 H17        -0.5450   -4.0530    2.7200 ha        1 D55      0.165500
     43 H30        -1.3150   -2.6480    6.7440 ha        1 D55      0.165500
     44 H191        0.6110   -6.8260    3.1270 hc        1 D55      0.050700
     45 H192        2.2300   -6.3140    3.7650 hc        1 D55      0.050700
     46 H193        1.4810   -5.4270    2.3690 hc        1 D55      0.050700
     47 H221        3.6250   -5.6670    5.6270 h1        1 D55      0.087700
     48 H222        2.9290   -4.6080    6.9600 h1        1 D55      0.087700
     49 H231        2.8410   -6.4580    8.5560 hx        1 D55      0.117700
     50 H232        4.5370   -6.4040    7.8370 hx        1 D55      0.117700
     51 H241        3.8900   -8.2390    6.4010 hn        1 D55      0.467467
     52 H242        3.5640   -8.6550    7.9870 hn        1 D55      0.467467
     53 H291       -0.5610   -4.2100    8.5890 hc        1 D55      0.050700
     54 H292        1.0550   -3.4280    8.3440 hc        1 D55      0.050700
     55 H293        0.9080   -5.2390    8.3220 hc        1 D55      0.050700
     56 H243        2.3200   -8.2080    6.9550 hn        1 D55      0.467467
@<TRIPOS>BOND
     1    1    2 1   
     2    1   26 1   
     3    1   31 1   
     4    1   32 1   
     5    2   28 1   
     6    2   29 1   
     7    2   30 1   
     8    3    4 1   
     9    3   24 1   
    10    3   33 1   
    11    3   34 1   
    12    4   35 1   
    13    4   36 1   
    14    4   37 1   
    15    5    6 ar  
    16    5   27 ar  
    17    5   40 1   
    18    6    7 ar  
    19    6   38 1   
    20    7    8 ar  
    21    7   24 1   
    22    8    9 ar  
    23    8   39 1   
    24    9   10 1   
    25    9   27 ar  
    26   10   11 1   
    27   10   41 1   
    28   11   12 2   
    29   11   13 1   
    30   13   14 ar  
    31   13   25 ar  
    32   14   15 ar  
    33   14   42 1   
    34   15   16 1   
    35   15   17 ar  
    36   16   44 1   
    37   16   45 1   
    38   16   46 1   
    39   17   18 1   
    40   17   22 ar  
    41   18   19 1   
    42   19   20 1   
    43   19   47 1   
    44   19   48 1   
    45   20   21 1   
    46   20   49 1   
    47   20   50 1   
    48   21   51 1   
    49   21   52 1   
    50   21   56 1   
    51   22   23 1   
    52   22   25 ar  
    53   23   53 1   
    54   23   54 1   
    55   23   55 1   
    56   25   43 1   
    57   26   27 1   
@<TRIPOS>SUBSTRUCTURE
     1 D55         1 TEMP              0 ****  ****    0 ROOT
