@<TRIPOS>MOLECULE
D55
   55    56     1     0     0
SMALL
bcc


@<TRIPOS>ATOM
      1 C3         28.0270   12.6720   32.7130 c3        1 D55      0.126400
      2 C2         29.1510   12.1310   33.5640 c3        1 D55     -0.100100
      3 C5         21.9330   12.5510   28.9240 c3        1 D55      0.125400
      4 C6         20.5860   13.1380   28.5690 c3        1 D55     -0.100100
      5 C9         24.9690   12.9310   32.6170 ca        1 D55     -0.091000
      6 C8         23.7760   13.2660   31.9950 ca        1 D55     -0.177000
      7 C7         23.4830   12.7040   30.7380 ca        1 D55      0.151100
      8 C31        24.3630   11.8180   30.1080 ca        1 D55     -0.231000
      9 C12        25.5800   11.4760   30.7320 ca        1 D55      0.102600
     10 N13        26.5080   10.5880   30.1730 n         1 D55     -0.462100
     11 C14        26.4560    9.9750   28.9290 c         1 D55      0.683700
     12 O15        25.5650   10.2050   28.0910 o         1 D55     -0.589100
     13 C16        27.5710    9.0260   28.6260 ca        1 D55     -0.145600
     14 C17        28.1090    9.0410   27.3360 ca        1 D55     -0.090500
     15 C18        29.1450    8.1680   26.9900 ca        1 D55     -0.088300
     16 C19        29.6950    8.1820   25.6160 c3        1 D55     -0.054300
     17 C20        29.6230    7.2700   27.9620 ca        1 D55      0.110100
     18 O21        30.5800    6.3330   27.5860 os        1 D55     -0.352900
     19 C22        31.9130    6.6990   27.9780 c3        1 D55      0.081400
     20 C23        32.8400    5.6210   27.4000 c3        1 D55      0.154800
     21 N24        32.8560    5.4830   25.9700 n3        1 D55     -0.899800
     22 C28        29.0770    7.2330   29.2580 ca        1 D55     -0.088300
     23 C29        29.5690    6.2730   30.2730 c3        1 D55     -0.054300
     24 O3         22.2760   13.1020   30.2040 os        1 D55     -0.331900
     25 C30        28.0460    8.1210   29.5780 ca        1 D55     -0.090500
     26 O8         27.0120   11.6530   32.6840 os        1 D55     -0.353900
     27 C11        25.8660   12.0530   32.0030 ca        1 D55     -0.003900
     28 H2C1       29.5600   11.1910   33.1230 hc        1 D55      0.046033
     29 H2C2       29.9660   12.8910   33.6240 hc        1 D55      0.046033
     30 H2C3       28.7850   11.9040   34.5940 hc        1 D55      0.046033
     31 H3C1       27.5990   13.6110   33.1510 h1        1 D55      0.035200
     32 H3C2       28.3690   12.8760   31.6640 h1        1 D55      0.035200
     33 H5C1       21.8810   11.4330   29.0020 h1        1 D55      0.045200
     34 H5C2       22.7140   12.8410   28.1720 h1        1 D55      0.045200
     35 H6C1       19.8250   12.8620   29.3370 hc        1 D55      0.048700
     36 H6C2       20.6460   14.2510   28.5170 hc        1 D55      0.048700
     37 H6C3       20.2670   12.7410   27.5760 hc        1 D55      0.048700
     38 H8         23.0590   13.9550   32.4630 ha        1 D55      0.152000
     39 H31        24.1110   11.3870   29.1260 ha        1 D55      0.180000
     40 H9         25.2210   13.3510   33.6020 ha        1 D55      0.144000
     41 H13        27.2840   10.3680   30.7640 hn        1 D55      0.334500
     42 H17        27.7030    9.7400   26.5870 ha        1 D55      0.150500
     43 H30        27.6010    8.0790   30.5850 ha        1 D55      0.150500
     44 H191       29.0100    7.6240   24.9280 hc        1 D55      0.050867
     45 H192       29.7950    9.2290   25.2390 hc        1 D55      0.050867
     46 H193       30.6990    7.6880   25.5840 hc        1 D55      0.050867
     47 H221       32.1570    7.7150   27.5720 h1        1 D55      0.039700
     48 H222       31.9780    6.7160   29.0970 h1        1 D55      0.039700
     49 H231       33.8840    5.8670   27.7460 h1        1 D55      0.062700
     50 H232       32.5450    4.6280   27.8420 h1        1 D55      0.062700
     51 H241       31.9640    5.1730   25.6370 hn        1 D55      0.350800
     52 H242       33.0770    6.3540   25.5290 hn        1 D55      0.350800
     53 H291       30.0250    5.3780   29.7810 hc        1 D55      0.050867
     54 H292       30.3470    6.7580   30.9150 hc        1 D55      0.050867
     55 H293       28.7340    5.9310   30.9320 hc        1 D55      0.050867
@<TRIPOS>BOND
     1    1    2 1   
     2    1   26 1   
     3    1   31 1   
     4    1   32 1   
     5    2   28 1   
     6    2   29 1   
     7    2   30 1   
     8    3    4 1   
     9    3   24 1   
    10    3   33 1   
    11    3   34 1   
    12    4   35 1   
    13    4   36 1   
    14    4   37 1   
    15    5    6 ar  
    16    5   27 ar  
    17    5   40 1   
    18    6    7 ar  
    19    6   38 1   
    20    7    8 ar  
    21    7   24 1   
    22    8    9 ar  
    23    8   39 1   
    24    9   10 1   
    25    9   27 ar  
    26   10   11 1   
    27   10   41 1   
    28   11   12 2   
    29   11   13 1   
    30   13   14 ar  
    31   13   25 ar  
    32   14   15 ar  
    33   14   42 1   
    34   15   16 1   
    35   15   17 ar  
    36   16   44 1   
    37   16   45 1   
    38   16   46 1   
    39   17   18 1   
    40   17   22 ar  
    41   18   19 1   
    42   19   20 1   
    43   19   47 1   
    44   19   48 1   
    45   20   21 1   
    46   20   49 1   
    47   20   50 1   
    48   21   51 1   
    49   21   52 1   
    50   22   23 1   
    51   22   25 ar  
    52   23   53 1   
    53   23   54 1   
    54   23   55 1   
    55   25   43 1   
    56   26   27 1   
@<TRIPOS>SUBSTRUCTURE
     1 D55         1 TEMP              0 ****  ****    0 ROOT
