@<TRIPOS>MOLECULE
D55
   57    58     1     0     0
SMALL
bcc


@<TRIPOS>ATOM
      1 C3          0.8200    1.1550    2.7910 c3        1 D55      0.135400
      2 C2          1.9650    1.1930    3.7730 c3        1 D55     -0.108100
      3 C5         -6.3410   -0.3310    1.7840 c3        1 D55      0.127400
      4 C6         -7.5120   -0.2050    0.8390 c3        1 D55     -0.106100
      5 C9         -1.6460    0.7050    1.4540 ca        1 D55     -0.147000
      6 C8         -2.9130    0.6300    0.9090 ca        1 D55     -0.064000
      7 C7         -3.9900    0.1230    1.6820 ca        1 D55      0.152100
      8 C31        -3.7850   -0.2990    2.9940 ca        1 D55     -0.183000
      9 C12        -2.4890   -0.2110    3.5460 ca        1 D55     -0.068400
     10 N13        -2.2790   -0.6050    4.9420 n4        1 D55     -0.526200
     11 C14        -2.5880   -2.0690    5.1830 c         1 D55      0.575700
     12 O15        -3.7730   -2.3310    5.3430 o         1 D55     -0.420100
     13 C16        -1.4570   -3.0040    5.2620 ca        1 D55     -0.168600
     14 C17        -1.6750   -4.1790    5.9980 ca        1 D55     -0.067000
     15 C18        -0.6640   -5.1380    6.1200 ca        1 D55     -0.067800
     16 C19        -0.9080   -6.3580    6.9220 c3        1 D55     -0.063800
     17 C20         0.5660   -4.8980    5.4810 ca        1 D55      0.122100
     18 O21         1.6080   -5.7980    5.7050 os        1 D55     -0.377900
     19 C22         1.8570   -6.6920    4.6120 c3        1 D55      0.101400
     20 C23         3.2710   -7.2420    4.8230 c3        1 D55      0.095800
     21 N24         3.4370   -7.9270    6.1360 n4        1 D55     -0.834600
     22 C28         0.7950   -3.7310    4.7280 ca        1 D55     -0.067800
     23 C29         2.0860   -3.4800    4.0460 c3        1 D55     -0.063800
     24 O3         -5.1890    0.0880    1.0250 os        1 D55     -0.304900
     25 C30        -0.2300   -2.7840    4.6270 ca        1 D55     -0.067000
     26 O8         -0.1790    0.2940    3.3870 os        1 D55     -0.390900
     27 C11        -1.4150    0.2840    2.7770 ca        1 D55      0.126100
     28 H2C1        2.3460    0.1630    3.9760 hc        1 D55      0.060033
     29 H2C2        2.7910    1.8070    3.3360 hc        1 D55      0.060033
     30 H2C3        1.6470    1.6530    4.7390 hc        1 D55      0.060033
     31 H3C1        0.3810    2.1730    2.6250 h1        1 D55      0.063700
     32 H3C2        1.1310    0.7040    1.8120 h1        1 D55      0.063700
     33 H5C1       -6.1910   -1.3910    2.1160 h1        1 D55      0.043700
     34 H5C2       -6.4570    0.3400    2.6750 h1        1 D55      0.043700
     35 H6C1       -7.6300    0.8510    0.4960 hc        1 D55      0.066367
     36 H6C2       -8.4410   -0.5230    1.3730 hc        1 D55      0.066367
     37 H6C3       -7.3650   -0.8530   -0.0580 hc        1 D55      0.066367
     38 H8         -3.1100    0.9590   -0.1270 ha        1 D55      0.191000
     39 H31        -4.6190   -0.6980    3.5950 ha        1 D55      0.173000
     40 H9         -0.8130    1.1000    0.8500 ha        1 D55      0.174000
     41 H13        -2.9140   -0.0370    5.5240 hn        1 D55      0.472800
     42 H17        -2.6530   -4.3540    6.4810 ha        1 D55      0.176000
     43 H30        -0.0460   -1.8790    4.0200 ha        1 D55      0.176000
     44 H191       -1.9530   -6.7310    6.7740 hc        1 D55      0.063700
     45 H192       -0.1970   -7.1720    6.6390 hc        1 D55      0.063700
     46 H193       -0.7700   -6.1320    8.0110 hc        1 D55      0.063700
     47 H221        1.0810   -7.5030    4.6220 h1        1 D55      0.091200
     48 H222        1.8310   -6.1470    3.6300 h1        1 D55      0.091200
     49 H231        3.5060   -7.9770    3.9990 hx        1 D55      0.127200
     50 H232        4.0130   -6.3910    4.7880 hx        1 D55      0.127200
     51 H241        2.8330   -8.7540    6.1880 hn        1 D55      0.470800
     52 H242        3.1750   -7.2820    6.8930 hn        1 D55      0.470800
     53 H291        2.9050   -4.0890    4.5030 hc        1 D55      0.063700
     54 H292        2.3690   -2.4000    4.1200 hc        1 D55      0.063700
     55 H293        2.0060   -3.7440    2.9600 hc        1 D55      0.063700
     56 H132       -1.3050   -0.4010    5.2040 hn        1 D55      0.472800
     57 H243        4.4140   -8.2180    6.2610 hn        1 D55      0.470800
@<TRIPOS>BOND
     1    1    2 1   
     2    1   26 1   
     3    1   31 1   
     4    1   32 1   
     5    2   28 1   
     6    2   29 1   
     7    2   30 1   
     8    3    4 1   
     9    3   24 1   
    10    3   33 1   
    11    3   34 1   
    12    4   35 1   
    13    4   36 1   
    14    4   37 1   
    15    5    6 ar  
    16    5   27 ar  
    17    5   40 1   
    18    6    7 ar  
    19    6   38 1   
    20    7    8 ar  
    21    7   24 1   
    22    8    9 ar  
    23    8   39 1   
    24    9   10 1   
    25    9   27 ar  
    26   10   11 1   
    27   10   41 1   
    28   10   56 1   
    29   11   12 2   
    30   11   13 1   
    31   13   14 ar  
    32   13   25 ar  
    33   14   15 ar  
    34   14   42 1   
    35   15   16 1   
    36   15   17 ar  
    37   16   44 1   
    38   16   45 1   
    39   16   46 1   
    40   17   18 1   
    41   17   22 ar  
    42   18   19 1   
    43   19   20 1   
    44   19   47 1   
    45   19   48 1   
    46   20   21 1   
    47   20   49 1   
    48   20   50 1   
    49   21   51 1   
    50   21   52 1   
    51   21   57 1   
    52   22   23 1   
    53   22   25 ar  
    54   23   53 1   
    55   23   54 1   
    56   23   55 1   
    57   25   43 1   
    58   26   27 1   
@<TRIPOS>SUBSTRUCTURE
     1 D55         1 TEMP              0 ****  ****    0 ROOT
