@<TRIPOS>MOLECULE
D55
   55    50     1     0     0
SMALL
bcc


@<TRIPOS>ATOM
      1 C3         -0.0740    3.4340   -3.6320 c3        1 D55     -0.022000
      2 C2          0.7850    4.7140   -3.4820 c3        1 D55     -0.236000
      3 C5         -6.3700    1.9000   -0.5980 c3        1 D55     -0.022000
      4 C6         -7.8260    1.6050   -0.8010 c3        1 D55     -0.218000
      5 C9         -2.8320    3.0690   -2.7630 c1        1 D55     -0.165000
      6 C8         -4.1010    2.6130   -2.4850 c1        1 D55     -0.165000
      7 C7         -4.2750    1.4950   -1.6900 c1        1 D55      0.097000
      8 C31        -3.1740    0.8360   -1.1740 c1        1 D55     -0.178000
      9 C12        -1.9100    1.2900   -1.4510 c1        1 D55      0.104000
     10 N13        -0.7830    0.6450   -0.8820 n2        1 D55     -0.316000
     11 C14        -0.9350   -0.6740   -0.2410 c2        1 D55      0.355000
     12 O15        -2.0410   -1.2140   -0.2000 o         1 D55     -0.342000
     13 C16         0.2760   -1.3260    0.4890 c2        1 D55     -0.124000
     14 C17         0.5040   -1.0560    1.8530 c2        1 D55     -0.091500
     15 C18         1.5830   -1.6450    2.5110 c1        1 D55     -0.080000
     16 C19         1.8110   -1.3740    4.0150 c2        1 D55     -0.179000
     17 C20         2.4450   -2.5090    1.8140 c2        1 D55      0.066000
     18 O21         3.4940   -3.2240    2.5320 os        1 D55     -0.234000
     19 C22         4.7800   -2.5380    2.5450 c3        1 D55     -0.022000
     20 C23         5.6630   -3.1480    3.6080 c3        1 D55     -0.085000
     21 N24         7.0590   -3.1650    3.1410 n3        1 D55     -0.348000
     22 C28         2.2190   -2.7790    0.4520 c1        1 D55     -0.080000
     23 C29         3.1440   -3.7510   -0.3020 c2        1 D55     -0.179000
     24 O3         -5.5850    1.0160   -1.4140 os        1 D55     -0.209000
     25 C30         1.1350   -2.1870   -0.2080 c2        1 D55     -0.091500
     26 O8         -0.4010    2.9310   -2.3480 os        1 D55     -0.238000
     27 C11        -1.7370    2.4140   -2.2500 c1        1 D55     -0.029000
     28 H2C1        0.6300    5.2980   -4.2410 hc        1 D55      0.084333
     29 H2C2        1.7200    4.4730   -3.4480 hc        1 D55      0.084333
     30 H2C3        0.5420    5.1690   -2.6740 hc        1 D55      0.084333
     31 H3C1       -0.8840    3.6450   -4.1100 h1        1 D55      0.088500
     32 H3C2        0.4290    2.7620   -4.1260 h1        1 D55      0.088500
     33 H5C1       -6.1360    1.7660    0.3560 h1        1 D55      0.076000
     34 H5C2       -6.1900    2.8140   -0.8490 h1        1 D55      0.076000
     35 H6C1       -8.0460    1.6900   -1.7460 hc        1 D55      0.089000
     36 H6C2       -8.0210    0.6850   -0.5000 hc        1 D55      0.089000
     37 H6C3       -8.3700    2.2470   -0.2760 hc        1 D55      0.089000
     38 H8         -4.8770    3.0780   -2.8480 ha        1 D55      0.139000
     39 H31        -3.2960    0.0590   -0.6210 ha        1 D55      0.192000
     40 H9         -2.7120    3.8430   -3.3130 ha        1 D55      0.139000
     41 H13         0.0480    1.0080   -0.9860 hn        1 D55      0.248000
     42 H17        -0.0460   -0.4090    2.3150 ha        1 D55      0.149500
     43 H30         0.9840   -2.3670   -1.1260 ha        1 D55      0.149500
     44 H191        2.7510   -1.4100    4.2070 ha        1 D55      0.090333
     45 H192        1.3430   -2.0510    4.5450 ha        1 D55      0.090333
     46 H193        1.4630   -0.4810    4.2430 ha        1 D55      0.090333
     47 H221        4.6430   -1.5920    2.7390 h1        1 D55      0.083000
     48 H222        5.1980   -2.6310    1.6930 h1        1 D55      0.083000
     49 H231        5.6000   -2.6210    4.4230 h1        1 D55      0.080500
     50 H232        5.3780   -4.0380    3.7830 h1        1 D55      0.080500
     51 H241        7.5200   -2.4700    3.5270 hn        1 D55      0.148000
     52 H242        7.4600   -3.9780    3.3840 hn        1 D55      0.148000
     53 H291        3.0260   -3.6340   -1.2650 ha        1 D55      0.090333
     54 H292        2.9250   -4.6580   -0.0590 ha        1 D55      0.090333
     55 H293        4.0630   -3.5680   -0.0670 ha        1 D55      0.090333
@<TRIPOS>BOND
     1    1    2 1   
     2    1   26 1   
     3    1   31 1   
     4    1   32 1   
     5    2   28 1   
     6    2   29 1   
     7    2   30 1   
     8    3    4 1   
     9    3   24 1   
    10    3   33 1   
    11    3   34 1   
    12    4   35 1   
    13    4   36 1   
    14    4   37 1   
    15    5    6 1   
    16    5   40 1   
    17    6   38 1   
    18    7    8 1   
    19    7   24 1   
    20    8   39 1   
    21    9   27 1   
    22   10   11 1   
    23   10   41 1   
    24   11   12 1   
    25   11   13 1   
    26   13   14 1   
    27   13   25 1   
    28   14   15 1   
    29   14   42 1   
    30   15   17 1   
    31   16   44 1   
    32   16   45 1   
    33   16   46 1   
    34   17   18 1   
    35   17   22 1   
    36   18   19 1   
    37   19   20 1   
    38   19   47 1   
    39   19   48 1   
    40   20   21 1   
    41   20   49 1   
    42   20   50 1   
    43   21   51 1   
    44   21   52 1   
    45   22   25 1   
    46   23   53 1   
    47   23   54 1   
    48   23   55 1   
    49   25   43 1   
    50   26   27 1   
@<TRIPOS>SUBSTRUCTURE
     1 D55         1 TEMP              0 ****  ****    0 ROOT
