@<TRIPOS>MOLECULE
D56
   63    65     1     0     0
SMALL
bcc


@<TRIPOS>ATOM
      1 N1         22.4670   13.0170   28.9360 nh        1 D56     -0.639000
      2 C2         21.6510   14.1180   29.4190 c3        1 D56      0.188800
      3 C3         20.6190   14.5860   28.3920 c3        1 D56     -0.080900
      4 C4         19.7790   13.4320   27.8910 c3        1 D56     -0.080400
      5 C5         20.6680   12.3260   27.3650 c3        1 D56     -0.080900
      6 C6         21.6950   11.8980   28.4120 c3        1 D56      0.188800
      7 C7         23.5930   12.6730   29.7210 ca        1 D56      0.179600
      8 C8         23.8210   13.2410   30.9920 ca        1 D56     -0.209000
      9 C9         24.9940   12.9550   31.6900 ca        1 D56      0.058400
     10 CL         25.2150   13.6850   33.2130 cl        1 D56     -0.085400
     11 C11        25.9530   12.0870   31.1630 ca        1 D56      0.006100
     12 C12        25.7330   11.4790   29.8880 ca        1 D56      0.096600
     13 N13        26.7120   10.6030   29.3960 n         1 D56     -0.462100
     14 C14        26.6300    9.7730   28.2850 c         1 D56      0.683700
     15 O15        25.6810    9.8010   27.4800 o         1 D56     -0.584100
     16 C16        27.7910    8.8550   28.0780 ca        1 D56     -0.145600
     17 C17        28.3550    8.1360   29.1340 ca        1 D56     -0.091000
     18 C18        29.4270    7.2690   28.9060 ca        1 D56     -0.087800
     19 C10        29.2650   12.1390   32.6650 c3        1 D56     -0.099100
     20 C19        30.0150    6.5060   30.0320 c3        1 D56     -0.054300
     21 C20        29.9220    7.1350   27.5960 ca        1 D56      0.110100
     22 O21        30.9220    6.2070   27.3240 os        1 D56     -0.352900
     23 C22        32.2430    6.7040   27.5940 c3        1 D56      0.081400
     24 C23        33.2140    5.6030   27.1440 c3        1 D56      0.154800
     25 N24        33.1850    5.2480   25.7520 n3        1 D56     -0.899800
     26 C28        29.3540    7.8440   26.5220 ca        1 D56     -0.087800
     27 C29        29.8520    7.6760   25.1380 c3        1 D56     -0.054300
     28 C30        28.2790    8.7010   26.7780 ca        1 D56     -0.091000
     29 C31        24.5620   11.7930   29.1830 ca        1 D56     -0.190000
     30 O12        27.0740   11.7170   31.8960 os        1 D56     -0.342900
     31 C13        28.1610   12.6550   31.7730 c3        1 D56      0.121400
     32 H2C1       21.1040   13.8350   30.3680 h1        1 D56      0.040950
     33 H2C2       22.3360   14.9820   29.6550 h1        1 D56      0.040950
     34 H6C1       22.4010   11.1590   27.9400 h1        1 D56      0.040950
     35 H6C2       21.1510   11.3680   29.2500 h1        1 D56      0.040950
     36 H3C1       19.9680   15.3560   28.8790 hc        1 D56      0.050450
     37 H3C2       21.1410   15.0750   27.5280 hc        1 D56      0.050450
     38 H4C1       19.1420   13.0380   28.7260 hc        1 D56      0.042200
     39 H4C2       19.0910   13.7860   27.0810 hc        1 D56      0.042200
     40 H5C1       20.0520   11.4300   27.0950 hc        1 D56      0.050450
     41 H5C2       21.1940   12.6730   26.4380 hc        1 D56      0.050450
     42 H8         23.0820   13.9120   31.4560 ha        1 D56      0.151000
     43 H31        24.4010   11.3580   28.1810 ha        1 D56      0.183000
     44 H13        27.4990   10.4780   30.0010 hn        1 D56      0.332500
     45 H17        27.9500    8.2250   30.1550 ha        1 D56      0.150000
     46 H30        27.8030    9.2520   25.9500 ha        1 D56      0.150000
     47 H191       30.5060    5.5720   29.6610 hc        1 D56      0.051033
     48 H192       30.7850    7.1270   30.5550 hc        1 D56      0.051033
     49 H193       29.2280    6.2240   30.7740 hc        1 D56      0.051033
     50 H101       30.1330   12.8380   32.6160 hc        1 D56      0.046700
     51 H102       28.9100   12.0690   33.7210 hc        1 D56      0.046700
     52 H103       29.5930   11.1240   32.3380 hc        1 D56      0.046700
     53 H131       27.8150   13.6700   32.0970 h1        1 D56      0.039200
     54 H132       28.4850   12.6970   30.7000 h1        1 D56      0.039200
     55 H221       32.4070    7.6570   27.0280 h1        1 D56      0.039700
     56 H222       32.3470    6.8950   28.6930 h1        1 D56      0.039700
     57 H231       34.2520    5.9570   27.4000 h1        1 D56      0.062700
     58 H232       32.9980    4.6740   27.7440 h1        1 D56      0.062700
     59 H241       32.3020    4.8410   25.5100 hn        1 D56      0.350800
     60 H242       33.3350    6.0520   25.1740 hn        1 D56      0.350800
     61 H291       29.1780    6.9830   24.5740 hc        1 D56      0.051033
     62 H292       29.8750    8.6580   24.6030 hc        1 D56      0.051033
     63 H293       30.8820    7.2390   25.1350 hc        1 D56      0.051033
@<TRIPOS>BOND
     1    1    2 1   
     2    1    6 1   
     3    1    7 1   
     4    2    3 1   
     5    2   32 1   
     6    2   33 1   
     7    3    4 1   
     8    3   36 1   
     9    3   37 1   
    10    4    5 1   
    11    4   38 1   
    12    4   39 1   
    13    5    6 1   
    14    5   40 1   
    15    5   41 1   
    16    6   34 1   
    17    6   35 1   
    18    7    8 ar  
    19    7   29 ar  
    20    8    9 ar  
    21    8   42 1   
    22    9   10 1   
    23    9   11 ar  
    24   11   12 ar  
    25   11   30 1   
    26   12   13 1   
    27   12   29 ar  
    28   13   14 1   
    29   13   44 1   
    30   14   15 2   
    31   14   16 1   
    32   16   17 ar  
    33   16   28 ar  
    34   17   18 ar  
    35   17   45 1   
    36   18   20 1   
    37   18   21 ar  
    38   19   31 1   
    39   19   50 1   
    40   19   51 1   
    41   19   52 1   
    42   20   47 1   
    43   20   48 1   
    44   20   49 1   
    45   21   22 1   
    46   21   26 ar  
    47   22   23 1   
    48   23   24 1   
    49   23   55 1   
    50   23   56 1   
    51   24   25 1   
    52   24   57 1   
    53   24   58 1   
    54   25   59 1   
    55   25   60 1   
    56   26   27 1   
    57   26   28 ar  
    58   27   61 1   
    59   27   62 1   
    60   27   63 1   
    61   28   46 1   
    62   29   43 1   
    63   30   31 1   
    64   31   53 1   
    65   31   54 1   
@<TRIPOS>SUBSTRUCTURE
     1 D56         1 TEMP              0 ****  ****    0 ROOT
