@<TRIPOS>MOLECULE
D56
   64    66     1     0     0
SMALL
bcc


@<TRIPOS>ATOM
      1 N1          0.3560    0.4020    0.0300 nh        1 D56     -0.641000
      2 C2          1.6990   -0.0900   -0.2350 c3        1 D56      0.189800
      3 C3          2.6510    0.1200    0.9430 c3        1 D56     -0.080900
      4 C4          2.0760   -0.4450    2.2230 c3        1 D56     -0.081400
      5 C5          0.7000    0.1290    2.4780 c3        1 D56     -0.080900
      6 C6         -0.2190   -0.0860    1.2760 c3        1 D56      0.189800
      7 C7         -0.5210    0.4760   -1.0730 ca        1 D56      0.185600
      8 C8         -0.1850   -0.0580   -2.3360 ca        1 D56     -0.200000
      9 C9         -1.0260    0.1320   -3.4320 ca        1 D56      0.057400
     10 Cl         -0.5550   -0.5340   -4.9250 cl        1 D56     -0.073400
     11 C11        -2.2280    0.8340   -3.3030 ca        1 D56      0.009100
     12 C12        -2.6050    1.3540   -2.0280 ca        1 D56      0.079600
     13 N13        -3.8310    2.0390   -1.9320 ns        1 D56     -0.451100
     14 C14        -4.5210    2.3510   -0.7750 c         1 D56      0.672700
     15 O15        -4.0570    2.2320    0.3730 o         1 D56     -0.570100
     16 C16        -5.9000    2.9120   -0.9710 ca        1 D56     -0.114600
     17 C17        -6.8080    2.3250   -1.8520 ca        1 D56     -0.085500
     18 C18        -8.1050    2.8370   -1.9780 ca        1 D56     -0.076800
     19 C10        -3.7370    1.9110   -6.4300 c3        1 D56     -0.098100
     20 C19        -9.0530    2.1960   -2.9170 c3        1 D56     -0.053800
     21 C20        -8.4610    3.9490   -1.1960 ca        1 D56      0.070100
     22 O21        -9.7820    4.4100   -1.2060 os        1 D56     -0.385900
     23 C22       -10.1000    5.2390   -2.3260 c3        1 D56      0.102400
     24 C23       -11.6180    5.1370   -2.5160 c3        1 D56      0.093800
     25 N24       -12.3640    5.3840   -1.2480 nz        1 D56     -0.833600
     26 C28        -7.5580    4.5560   -0.3060 ca        1 D56     -0.076800
     27 C29        -7.9420    5.7150    0.5310 c3        1 D56     -0.053800
     28 C30        -6.2720    4.0160   -0.1980 ca        1 D56     -0.085500
     29 C31        -1.7430    1.1800   -0.9380 ca        1 D56     -0.184000
     30 O12        -3.1200    0.9530   -4.3610 os        1 D56     -0.347900
     31 C13        -2.7770    2.0190   -5.2700 c3        1 D56      0.121400
     32 H2C1        2.1060    0.4700   -1.1250 h1        1 D56      0.041450
     33 H2C2        1.6830   -1.1910   -0.4890 h1        1 D56      0.041450
     34 H6C1       -1.1880    0.4520    1.4670 h1        1 D56      0.041450
     35 H6C2       -0.4480   -1.1900    1.1950 h1        1 D56      0.041450
     36 H3C1        2.8560    1.2150    1.0720 hc        1 D56      0.052450
     37 H3C2        3.6210   -0.3840    0.6980 hc        1 D56      0.052450
     38 H4C1        2.0120   -1.5620    2.1480 hc        1 D56      0.046200
     39 H4C2        2.7550   -0.2040    3.0820 hc        1 D56      0.046200
     40 H5C1        0.7830    1.2250    2.7010 hc        1 D56      0.052450
     41 H5C2        0.2320   -0.3670    3.3670 hc        1 D56      0.052450
     42 H8          0.7420   -0.6360   -2.4780 ha        1 D56      0.157000
     43 H31        -2.0130    1.6140    0.0410 ha        1 D56      0.180000
     44 H13        -4.3190    2.1340   -2.8000 hn        1 D56      0.329500
     45 H17        -6.5260    1.4380   -2.4440 ha        1 D56      0.166500
     46 H30        -5.5470    4.4510    0.5110 ha        1 D56      0.166500
     47 H191      -10.1050    2.5130   -2.7100 hc        1 D56      0.050533
     48 H192       -8.9980    1.0810   -2.8270 hc        1 D56      0.050533
     49 H193       -8.7980    2.4710   -3.9720 hc        1 D56      0.050533
     50 H101       -3.6420    0.9120   -6.9210 hc        1 D56      0.046700
     51 H102       -4.7900    2.0310   -6.0820 hc        1 D56      0.046700
     52 H103       -3.5040    2.7090   -7.1750 hc        1 D56      0.046700
     53 H131       -2.8870    2.9970   -4.7320 h1        1 D56      0.040700
     54 H132       -1.7150    1.8990   -5.6080 h1        1 D56      0.040700
     55 H221       -9.7800    6.2910   -2.1010 h1        1 D56      0.086700
     56 H222       -9.5980    4.8770   -3.2620 h1        1 D56      0.086700
     57 H231      -11.8830    4.0960   -2.8650 hx        1 D56      0.117700
     58 H232      -11.9520    5.8890   -3.2860 hx        1 D56      0.117700
     59 H241      -12.2040    6.3430   -0.9240 hn        1 D56      0.467467
     60 H242      -13.3660    5.2330   -1.3860 hn        1 D56      0.467467
     61 H291       -8.8000    6.2690    0.0780 hc        1 D56      0.050533
     62 H292       -8.2470    5.3630    1.5500 hc        1 D56      0.050533
     63 H293       -7.0830    6.4210    0.6480 hc        1 D56      0.050533
     64 H243      -12.0130    4.7370   -0.5260 hn        1 D56      0.467467
@<TRIPOS>BOND
     1    1    2 1   
     2    1    6 1   
     3    1    7 1   
     4    2    3 1   
     5    2   32 1   
     6    2   33 1   
     7    3    4 1   
     8    3   36 1   
     9    3   37 1   
    10    4    5 1   
    11    4   38 1   
    12    4   39 1   
    13    5    6 1   
    14    5   40 1   
    15    5   41 1   
    16    6   34 1   
    17    6   35 1   
    18    7    8 ar  
    19    7   29 ar  
    20    8    9 ar  
    21    8   42 1   
    22    9   10 1   
    23    9   11 ar  
    24   11   12 ar  
    25   11   30 1   
    26   12   13 1   
    27   12   29 ar  
    28   13   14 1   
    29   13   44 1   
    30   14   15 2   
    31   14   16 1   
    32   16   17 ar  
    33   16   28 ar  
    34   17   18 ar  
    35   17   45 1   
    36   18   20 1   
    37   18   21 ar  
    38   19   31 1   
    39   19   50 1   
    40   19   51 1   
    41   19   52 1   
    42   20   47 1   
    43   20   48 1   
    44   20   49 1   
    45   21   22 1   
    46   21   26 ar  
    47   22   23 1   
    48   23   24 1   
    49   23   55 1   
    50   23   56 1   
    51   24   25 1   
    52   24   57 1   
    53   24   58 1   
    54   25   59 1   
    55   25   60 1   
    56   25   64 1   
    57   26   27 1   
    58   26   28 ar  
    59   27   61 1   
    60   27   62 1   
    61   27   63 1   
    62   28   46 1   
    63   29   43 1   
    64   30   31 1   
    65   31   53 1   
    66   31   54 1   
@<TRIPOS>SUBSTRUCTURE
     1 D56         1 TEMP              0 ****  ****    0 ROOT
