@<TRIPOS>MOLECULE
D56
   63    61     1     0     0
SMALL
bcc


@<TRIPOS>ATOM
      1 N1          3.2180   -3.5190    1.0320 n3        1 D56     -0.227000
      2 C2          4.6310   -3.5060    0.8260 c3        1 D56     -0.058000
      3 C3          5.4170   -3.4740    2.1390 c3        1 D56     -0.189500
      4 C4          4.9980   -4.5220    3.0680 c3        1 D56     -0.155000
      5 C5          3.5680   -4.5330    3.2720 c3        1 D56     -0.189500
      6 C6          2.7910   -4.5630    1.9520 c3        1 D56     -0.058000
      7 C7          2.7760   -2.2070    1.5320 c2        1 D56      0.084000
      8 C8          3.2100   -1.7570    2.7620 c1        1 D56     -0.202000
      9 C9          2.7300   -0.5380    3.2760 c1        1 D56     -0.024000
     10 CL          3.2840    0.0280    4.8530 cl        1 D56     -0.007000
     11 C11         1.8120    0.2190    2.5400 c1        1 D56     -0.032000
     12 C12         1.3760   -0.2350    1.3010 c1        1 D56      0.099000
     13 N13         0.3530    0.4720    0.6020 n         1 D56     -0.320000
     14 C14        -0.0010    0.0860   -0.7890 c2        1 D56      0.356000
     15 O15         0.5880   -0.8440   -1.3390 o         1 D56     -0.349000
     16 C16        -1.1370    0.8080   -1.5160 c2        1 D56     -0.126000
     17 C17        -2.4400    0.3080   -1.4430 c2        1 D56     -0.091000
     18 C18        -3.4720    0.9590   -2.0980 c1        1 D56     -0.080500
     19 C10        -0.2250    2.4720    4.5790 c3        1 D56     -0.217000
     20 C19        -4.7800    0.4450   -1.5120 c2        1 D56     -0.179500
     21 C20        -3.2240    2.0910   -2.8180 c2        1 D56      0.064000
     22 O21        -4.2960    2.8290   -3.3420 os        1 D56     -0.225000
     23 C22        -4.6080    2.4960   -4.6980 c3        1 D56     -0.067000
     24 C23        -5.7110    3.4650   -5.2400 c3        1 D56     -0.087000
     25 N24        -5.4420    3.7750   -6.5820 n3        1 D56     -0.336000
     26 C28        -1.9150    2.6030   -2.8980 c1        1 D56     -0.080500
     27 C29        -1.6680    3.9510   -3.5880 c2        1 D56     -0.179500
     28 C30        -0.8770    1.9510   -2.2410 c2        1 D56     -0.091000
     29 C31         1.8560   -1.4510    0.7920 c2        1 D56     -0.179000
     30 O12         1.3060    1.4990    3.0820 os        1 D56     -0.226000
     31 C13         0.7690    1.3910    4.3600 c3        1 D56     -0.027000
     32 H2C1        4.8820   -4.2980    0.3320 h1        1 D56      0.098500
     33 H2C2        4.8540   -2.7480    0.3210 h1        1 D56      0.098500
     34 H6C1        2.9280   -5.4730    1.5050 h1        1 D56      0.098500
     35 H6C2        1.8150   -4.4410    2.1500 h1        1 D56      0.098500
     36 H3C1        5.2830   -2.6070    2.5620 hc        1 D56      0.087750
     37 H3C2        6.3320   -3.5810    1.9490 hc        1 D56      0.087750
     38 H4C1        5.2610   -5.3390    2.7390 hc        1 D56      0.081000
     39 H4C2        5.4600   -4.3620    3.9760 hc        1 D56      0.081000
     40 H5C1        3.3090   -3.7250    3.7820 hc        1 D56      0.087750
     41 H5C2        3.3310   -5.3300    3.7980 hc        1 D56      0.087750
     42 H8          3.8120   -2.2240    3.2180 ha        1 D56      0.151000
     43 H31         1.5470   -1.7750   -0.1010 ha        1 D56      0.180000
     44 H13        -0.0840    1.1420    1.0050 hn        1 D56      0.250000
     45 H17        -2.6070   -0.4860   -0.9930 ha        1 D56      0.150000
     46 H30         0.0590    2.3110   -2.2940 ha        1 D56      0.150000
     47 H191       -5.1230   -0.3230   -2.0770 ha        1 D56      0.090833
     48 H192       -5.4450    1.1750   -1.5050 ha        1 D56      0.090833
     49 H193       -4.6270    0.1330   -0.5960 ha        1 D56      0.090833
     50 H101       -0.8450    2.5150    3.8030 hc        1 D56      0.086333
     51 H102       -0.7280    2.2860    5.3800 hc        1 D56      0.086333
     52 H103        0.2690    3.3840    4.6820 hc        1 D56      0.086333
     53 H131        1.4720    1.4670    5.0110 h1        1 D56      0.078000
     54 H132        0.3400    0.5450    4.4510 h1        1 D56      0.078000
     55 H221       -4.9360    1.5770   -4.7390 h1        1 D56      0.074500
     56 H222       -3.7880    2.5820   -5.2540 h1        1 D56      0.074500
     57 H231       -6.5720    3.0370   -5.1750 h1        1 D56      0.106500
     58 H232       -5.7120    4.2930   -4.7070 h1        1 D56      0.106500
     59 H241       -4.5540    3.6320   -6.7550 hn        1 D56      0.145000
     60 H242       -5.9660    3.2290   -7.1460 hn        1 D56      0.145000
     61 H291       -2.2460    4.6270   -3.1930 ha        1 D56      0.090833
     62 H292       -1.8620    3.8730   -4.5180 ha        1 D56      0.090833
     63 H293       -0.7470    4.2070   -3.4730 ha        1 D56      0.090833
@<TRIPOS>BOND
     1    1    2 1   
     2    1    6 1   
     3    1    7 1   
     4    2    3 1   
     5    2   32 1   
     6    2   33 1   
     7    3    4 1   
     8    3   36 1   
     9    3   37 1   
    10    4    5 1   
    11    4   38 1   
    12    4   39 1   
    13    5    6 1   
    14    5   40 1   
    15    5   41 1   
    16    6   34 1   
    17    6   35 1   
    18    7    8 1   
    19    7   29 1   
    20    8   42 1   
    21    9   10 1   
    22    9   11 1   
    23   11   30 1   
    24   12   13 1   
    25   12   29 1   
    26   13   14 1   
    27   13   44 1   
    28   14   15 1   
    29   14   16 1   
    30   16   17 1   
    31   16   28 1   
    32   17   18 1   
    33   17   45 1   
    34   18   21 1   
    35   19   31 1   
    36   19   50 1   
    37   19   51 1   
    38   19   52 1   
    39   20   47 1   
    40   20   48 1   
    41   20   49 1   
    42   21   22 1   
    43   21   26 1   
    44   22   23 1   
    45   23   24 1   
    46   23   55 1   
    47   23   56 1   
    48   24   25 1   
    49   24   57 1   
    50   24   58 1   
    51   25   59 1   
    52   25   60 1   
    53   26   28 1   
    54   27   61 1   
    55   27   62 1   
    56   27   63 1   
    57   28   46 1   
    58   29   43 1   
    59   30   31 1   
    60   31   53 1   
    61   31   54 1   
@<TRIPOS>SUBSTRUCTURE
     1 D56         1 TEMP              0 ****  ****    0 ROOT
