@<TRIPOS>MOLECULE
D56
   65    67     1     0     0
SMALL
bcc


@<TRIPOS>ATOM
      1 N1          0.1340    0.7700   -0.0500 nh        1 D56     -0.634000
      2 C2          1.5300    0.9090   -0.4390 c3        1 D56      0.199300
      3 C3          2.5230    1.0890    0.7050 c3        1 D56     -0.085400
      4 C4          2.2490    0.1350    1.8410 c3        1 D56     -0.086400
      5 C5          0.8410    0.3560    2.3390 c3        1 D56     -0.085400
      6 C6         -0.1900    0.1640    1.2310 c3        1 D56      0.199300
      7 C7         -0.8100    0.6920   -1.0610 ca        1 D56      0.225600
      8 C8         -0.4840    1.0140   -2.4130 ca        1 D56     -0.150000
      9 C9         -1.4480    1.0580   -3.4110 ca        1 D56      0.046400
     10 CL         -0.9520    1.4070   -4.9910 cl        1 D56     -0.018400
     11 C11        -2.7990    0.7880   -3.1180 ca        1 D56      0.061100
     12 C12        -3.1240    0.3980   -1.8020 ca        1 D56     -0.016400
     13 N13        -4.4980   -0.0410   -1.5140 n4        1 D56     -0.535200
     14 C14        -5.1430    0.7530   -0.4010 c         1 D56      0.571700
     15 O15        -4.7870    0.4720    0.7350 o         1 D56     -0.406100
     16 C16        -6.1380    1.7700   -0.7830 ca        1 D56     -0.160600
     17 C17        -7.0970    1.5420   -1.7760 ca        1 D56     -0.072000
     18 C18        -8.0910    2.4950   -2.0280 ca        1 D56     -0.060800
     19 C10        -4.4790    1.6660   -6.1390 c3        1 D56     -0.111100
     20 C19        -9.1110    2.2240   -3.0670 c3        1 D56     -0.065800
     21 C20        -8.0970    3.6800   -1.2670 ca        1 D56      0.116100
     22 O21        -9.1610    4.5750   -1.3770 os        1 D56     -0.375900
     23 C22        -9.1050    5.4360   -2.5210 c3        1 D56      0.102400
     24 C23       -10.5450    5.8850   -2.7910 c3        1 D56      0.093800
     25 N24       -11.1810    6.5390   -1.6120 n4        1 D56     -0.834600
     26 C28        -7.1250    3.9330   -0.2810 ca        1 D56     -0.060800
     27 C29        -7.1330    5.1720    0.5280 c3        1 D56     -0.065800
     28 C30        -6.1490    2.9580   -0.0420 ca        1 D56     -0.072000
     29 C31        -2.1580    0.3320   -0.7910 ca        1 D56     -0.202000
     30 O12        -3.8040    0.7360   -4.0650 os        1 D56     -0.364900
     31 C13        -4.1130    1.9910   -4.7120 c3        1 D56      0.133400
     32 H2C1        1.8360    0.0050   -1.0440 h1        1 D56      0.047450
     33 H2C2        1.6130    1.8230   -1.0980 h1        1 D56      0.047450
     34 H6C1       -0.3600   -0.9440    1.0840 h1        1 D56      0.047450
     35 H6C2       -1.1550    0.6240    1.5950 h1        1 D56      0.047450
     36 H3C1        3.5520    0.9200    0.2910 hc        1 D56      0.065450
     37 H3C2        2.4780    2.1450    1.0810 hc        1 D56      0.065450
     38 H4C1        2.9800    0.3110    2.6740 hc        1 D56      0.063200
     39 H4C2        2.3780   -0.9250    1.4990 hc        1 D56      0.063200
     40 H5C1        0.7510    1.3910    2.7620 hc        1 D56      0.065450
     41 H5C2        0.5980   -0.3690    3.1590 hc        1 D56      0.065450
     42 H8          0.5630    1.2190   -2.7000 ha        1 D56      0.182000
     43 H31        -2.4560   -0.0130    0.2140 ha        1 D56      0.169000
     44 H13        -5.0470    0.0460   -2.3840 hn        1 D56      0.474300
     45 H17        -7.1220    0.6020   -2.3500 ha        1 D56      0.164500
     46 H30        -5.3950    3.1260    0.7480 ha        1 D56      0.164500
     47 H191       -8.6920    2.4320   -4.0850 hc        1 D56      0.064867
     48 H192      -10.0160    2.8630   -2.9150 hc        1 D56      0.064867
     49 H193       -9.4330    1.1530   -3.0360 hc        1 D56      0.064867
     50 H101       -3.6000    1.2320   -6.6770 hc        1 D56      0.062033
     51 H102       -5.3120    0.9250   -6.1770 hc        1 D56      0.062033
     52 H103       -4.7960    2.6020   -6.6590 hc        1 D56      0.062033
     53 H131       -3.2470    2.6990   -4.6600 h1        1 D56      0.042200
     54 H132       -4.9820    2.4260   -4.1490 h1        1 D56      0.042200
     55 H221       -8.7290    4.8890   -3.4270 h1        1 D56      0.089700
     56 H222       -8.4310    6.3020   -2.2860 h1        1 D56      0.089700
     57 H231      -10.5470    6.6140   -3.6530 hx        1 D56      0.126700
     58 H232      -11.1750    4.9870   -3.0600 hx        1 D56      0.126700
     59 H241      -11.1400    5.9010   -0.8050 hn        1 D56      0.471133
     60 H242      -10.6850    7.4030   -1.3690 hn        1 D56      0.471133
     61 H291       -7.7000    5.9840    0.0100 hc        1 D56      0.064867
     62 H292       -7.6220    4.9770    1.5180 hc        1 D56      0.064867
     63 H293       -6.0900    5.5310    0.7190 hc        1 D56      0.064867
     64 H133       -4.4540   -1.0320   -1.2380 hn        1 D56      0.474300
     65 H243      -12.1620    6.7610   -1.8190 hn        1 D56      0.471133
@<TRIPOS>BOND
     1    1    2 1   
     2    1    6 1   
     3    1    7 1   
     4    2    3 1   
     5    2   32 1   
     6    2   33 1   
     7    3    4 1   
     8    3   36 1   
     9    3   37 1   
    10    4    5 1   
    11    4   38 1   
    12    4   39 1   
    13    5    6 1   
    14    5   40 1   
    15    5   41 1   
    16    6   34 1   
    17    6   35 1   
    18    7    8 ar  
    19    7   29 ar  
    20    8    9 ar  
    21    8   42 1   
    22    9   10 1   
    23    9   11 ar  
    24   11   12 ar  
    25   11   30 1   
    26   12   13 1   
    27   12   29 ar  
    28   13   14 1   
    29   13   44 1   
    30   13   64 1   
    31   14   15 2   
    32   14   16 1   
    33   16   17 ar  
    34   16   28 ar  
    35   17   18 ar  
    36   17   45 1   
    37   18   20 1   
    38   18   21 ar  
    39   19   31 1   
    40   19   50 1   
    41   19   51 1   
    42   19   52 1   
    43   20   47 1   
    44   20   48 1   
    45   20   49 1   
    46   21   22 1   
    47   21   26 ar  
    48   22   23 1   
    49   23   24 1   
    50   23   55 1   
    51   23   56 1   
    52   24   25 1   
    53   24   57 1   
    54   24   58 1   
    55   25   59 1   
    56   25   60 1   
    57   25   65 1   
    58   26   27 1   
    59   26   28 ar  
    60   27   61 1   
    61   27   62 1   
    62   27   63 1   
    63   28   46 1   
    64   29   43 1   
    65   30   31 1   
    66   31   53 1   
    67   31   54 1   
@<TRIPOS>SUBSTRUCTURE
     1 D56         1 TEMP              0 ****  ****    0 ROOT
