@<TRIPOS>MOLECULE
D56
   64    66     1     0     0
SMALL
bcc


@<TRIPOS>ATOM
      1 N1          0.3690    0.4290    0.0220 nh        1 D56     -0.641000
      2 C2          1.7120   -0.0630   -0.2460 c3        1 D56      0.189800
      3 C3          2.6710    0.1620    0.9240 c3        1 D56     -0.080900
      4 C4          2.1050   -0.3900    2.2140 c3        1 D56     -0.081400
      5 C5          0.7290    0.1840    2.4710 c3        1 D56     -0.080900
      6 C6         -0.1970   -0.0460    1.2770 c3        1 D56      0.189800
      7 C7         -0.5140    0.4900   -1.0770 ca        1 D56      0.186600
      8 C8         -0.1850   -0.0570   -2.3350 ca        1 D56     -0.200000
      9 C9         -1.0330    0.1180   -3.4280 ca        1 D56      0.057400
     10 CL         -0.5690   -0.5620   -4.9170 cl        1 D56     -0.073400
     11 C11        -2.2360    0.8190   -3.3000 ca        1 D56      0.009100
     12 C12        -2.6060    1.3520   -2.0290 ca        1 D56      0.079600
     13 N13        -3.8340    2.0350   -1.9330 n         1 D56     -0.452100
     14 C14        -4.5160    2.3620   -0.7750 c         1 D56      0.672700
     15 O15        -4.0440    2.2600    0.3710 o         1 D56     -0.570100
     16 C16        -5.8980    2.9160   -0.9690 ca        1 D56     -0.114600
     17 C17        -6.8110    2.3120   -1.8340 ca        1 D56     -0.085500
     18 C18        -8.1100    2.8190   -1.9580 ca        1 D56     -0.076800
     19 C10        -3.7660    1.8590   -6.4290 c3        1 D56     -0.098100
     20 C19        -9.0640    2.1600   -2.8790 c3        1 D56     -0.053800
     21 C20        -8.4630    3.9420   -1.1920 ca        1 D56      0.070100
     22 O21        -9.7850    4.3990   -1.1980 os        1 D56     -0.385900
     23 C22       -10.1150    5.2090   -2.3290 c3        1 D56      0.102400
     24 C23       -11.6350    5.1000   -2.5040 c3        1 D56      0.093800
     25 N24       -12.3700    5.3670   -1.2340 n4        1 D56     -0.833600
     26 C28        -7.5550    4.5660   -0.3180 ca        1 D56     -0.076800
     27 C29        -7.9360    5.7370    0.5030 c3        1 D56     -0.053800
     28 C30        -6.2670    4.0310   -0.2120 ca        1 D56     -0.085500
     29 C31        -1.7370    1.1930   -0.9410 ca        1 D56     -0.184000
     30 O12        -3.1340    0.9250   -4.3540 os        1 D56     -0.347900
     31 C13        -2.7990    1.9810   -5.2760 c3        1 D56      0.121400
     32 H2C1        1.6970   -1.1670   -0.4880 h1        1 D56      0.041450
     33 H2C2        2.1120    0.4880   -1.1440 h1        1 D56      0.041450
     34 H6C1       -1.1660    0.4940    1.4680 h1        1 D56      0.041450
     35 H6C2       -0.4250   -1.1510    1.2090 h1        1 D56      0.041450
     36 H3C1        2.8740    1.2580    1.0400 hc        1 D56      0.052450
     37 H3C2        3.6400   -0.3430    0.6790 hc        1 D56      0.052450
     38 H4C1        2.7880   -0.1390    3.0660 hc        1 D56      0.046200
     39 H4C2        2.0410   -1.5080    2.1510 hc        1 D56      0.046200
     40 H5C1        0.2670   -0.3030    3.3680 hc        1 D56      0.052450
     41 H5C2        0.8110    1.2820    2.6820 hc        1 D56      0.052450
     42 H8          0.7430   -0.6350   -2.4770 ha        1 D56      0.157000
     43 H31        -2.0030    1.6370    0.0340 ha        1 D56      0.180000
     44 H13        -4.3280    2.1170   -2.7980 hn        1 D56      0.329500
     45 H17        -6.5310    1.4170   -2.4140 ha        1 D56      0.166500
     46 H30        -5.5380    4.4800    0.4850 ha        1 D56      0.166500
     47 H191      -10.1150    2.4780   -2.6690 hc        1 D56      0.050533
     48 H192       -8.8180    2.4190   -3.9400 hc        1 D56      0.050533
     49 H193       -9.0060    1.0470   -2.7710 hc        1 D56      0.050533
     50 H101       -3.6710    0.8550   -6.9100 hc        1 D56      0.046700
     51 H102       -3.5400    2.6490   -7.1830 hc        1 D56      0.046700
     52 H103       -4.8180    1.9800   -6.0760 hc        1 D56      0.046700
     53 H131       -2.9090    2.9650   -4.7480 h1        1 D56      0.040700
     54 H132       -1.7390    1.8610   -5.6190 h1        1 D56      0.040700
     55 H221       -9.7960    6.2650   -2.1230 h1        1 D56      0.086700
     56 H222       -9.6200    4.8320   -3.2630 h1        1 D56      0.086700
     57 H231      -11.9000    4.0530   -2.8330 hx        1 D56      0.117700
     58 H232      -11.9770    5.8380   -3.2830 hx        1 D56      0.117700
     59 H241      -13.3730    5.2110   -1.3610 hn        1 D56      0.467467
     60 H242      -12.2100    6.3310   -0.9270 hn        1 D56      0.467467
     61 H291       -8.7990    6.2820    0.0480 hc        1 D56      0.050533
     62 H292       -7.0780    6.4480    0.6020 hc        1 D56      0.050533
     63 H293       -8.2320    5.4020    1.5290 hc        1 D56      0.050533
     64 H243      -12.0120    4.7330   -0.5040 hn        1 D56      0.467467
@<TRIPOS>BOND
     1    1    2 1   
     2    1    6 1   
     3    1    7 1   
     4    2    3 1   
     5    2   32 1   
     6    2   33 1   
     7    3    4 1   
     8    3   36 1   
     9    3   37 1   
    10    4    5 1   
    11    4   38 1   
    12    4   39 1   
    13    5    6 1   
    14    5   40 1   
    15    5   41 1   
    16    6   34 1   
    17    6   35 1   
    18    7    8 ar  
    19    7   29 ar  
    20    8    9 ar  
    21    8   42 1   
    22    9   10 1   
    23    9   11 ar  
    24   11   12 ar  
    25   11   30 1   
    26   12   13 1   
    27   12   29 ar  
    28   13   14 1   
    29   13   44 1   
    30   14   15 2   
    31   14   16 1   
    32   16   17 ar  
    33   16   28 ar  
    34   17   18 ar  
    35   17   45 1   
    36   18   20 1   
    37   18   21 ar  
    38   19   31 1   
    39   19   50 1   
    40   19   51 1   
    41   19   52 1   
    42   20   47 1   
    43   20   48 1   
    44   20   49 1   
    45   21   22 1   
    46   21   26 ar  
    47   22   23 1   
    48   23   24 1   
    49   23   55 1   
    50   23   56 1   
    51   24   25 1   
    52   24   57 1   
    53   24   58 1   
    54   25   59 1   
    55   25   60 1   
    56   25   64 1   
    57   26   27 1   
    58   26   28 ar  
    59   27   61 1   
    60   27   62 1   
    61   27   63 1   
    62   28   46 1   
    63   29   43 1   
    64   30   31 1   
    65   31   53 1   
    66   31   54 1   
@<TRIPOS>SUBSTRUCTURE
     1 D56         1 TEMP              0 ****  ****    0 ROOT
