@<TRIPOS>MOLECULE
D59
   31    32     1     0     0
SMALL
bcc


@<TRIPOS>ATOM
      1 CL1         0.2510    0.7420   -0.5730 cl        1 D59     -0.078400
      2 C1          1.8520    0.2480   -0.2910 ca        1 D59      0.051400
      3 C2          2.3210    0.1910    1.0230 ca        1 D59     -0.169500
      4 C6          2.6620   -0.0870   -1.3770 ca        1 D59     -0.147000
      5 C5          3.9750   -0.4900   -1.1250 ca        1 D59      0.051400
      6 CL2         4.9850   -0.9040   -2.4280 cl        1 D59     -0.078400
      7 C4          4.4780   -0.5610    0.1730 ca        1 D59     -0.169500
      8 C3          3.6490   -0.2180    1.2690 ca        1 D59      0.085600
      9 N1          4.2010   -0.2900    2.5580 n         1 D59     -0.469100
     10 C7          3.5390   -0.1280    3.7700 c         1 D59      0.683700
     11 O1          2.3310    0.1380    3.8670 o         1 D59     -0.558100
     12 C8          4.4170   -0.2690    4.9780 ca        1 D59     -0.168600
     13 C9          4.3350   -1.4140    5.7890 ca        1 D59      0.046700
     14 C14         3.4050   -2.5140    5.4490 c3        1 D59     -0.081800
     15 C13         5.2770    0.7870    5.2870 ca        1 D59     -0.057000
     16 C12         6.0800    0.7230    6.4250 ca        1 D59     -0.150000
     17 C11         6.0300   -0.3960    7.2480 ca        1 D59     -0.048000
     18 C10         5.1690   -1.4620    6.9290 ca        1 D59     -0.188200
     19 N2          5.1720   -2.6370    7.8430 no        1 D59      0.314200
     20 O2          5.7790   -2.5500    8.8780 o         1 D59     -0.205500
     21 O3          4.5880   -3.6410    7.5380 o         1 D59     -0.205500
     22 H1          1.6480    0.4640    1.8540 ha        1 D59      0.169000
     23 H2          2.2760   -0.0360   -2.4070 ha        1 D59      0.165000
     24 H3          5.5180   -0.8850    0.3340 ha        1 D59      0.169000
     25 H4          5.1640   -0.5450    2.5990 hn        1 D59      0.324500
     26 H5          2.7630   -2.2600    4.5710 hc        1 D59      0.075700
     27 H6          2.7330   -2.7380    6.3190 hc        1 D59      0.075700
     28 H7          3.9810   -3.4490    5.2200 hc        1 D59      0.075700
     29 H8          5.3120    1.6760    4.6360 ha        1 D59      0.154000
     30 H9          6.7520    1.5590    6.6750 ha        1 D59      0.156000
     31 H10         6.6640   -0.4480    8.1520 ha        1 D59      0.177000
@<TRIPOS>BOND
     1    1    2 1   
     2    2    3 ar  
     3    2    4 ar  
     4    3    8 ar  
     5    3   22 1   
     6    4    5 ar  
     7    4   23 1   
     8    5    6 1   
     9    5    7 ar  
    10    7    8 ar  
    11    7   24 1   
    12    8    9 1   
    13    9   10 1   
    14    9   25 1   
    15   10   11 2   
    16   10   12 1   
    17   12   13 ar  
    18   12   15 ar  
    19   13   14 1   
    20   13   18 ar  
    21   14   26 1   
    22   14   27 1   
    23   14   28 1   
    24   15   16 ar  
    25   15   29 1   
    26   16   17 ar  
    27   16   30 1   
    28   17   18 ar  
    29   17   31 1   
    30   18   19 1   
    31   19   20 1   
    32   19   21 1   
@<TRIPOS>SUBSTRUCTURE
     1 D59         1 TEMP              0 ****  ****    0 ROOT
