@<TRIPOS>MOLECULE
D59
   31    32     1     0     0
SMALL
bcc


@<TRIPOS>ATOM
      1 Cl1         0.2230    0.6850   -0.5680 cl        1 D59     -0.078400
      2 C1          1.8300    0.2080   -0.2880 ca        1 D59      0.051400
      3 C2          2.3040    0.1620    1.0240 ca        1 D59     -0.169500
      4 C6          2.6400   -0.1260   -1.3750 ca        1 D59     -0.147000
      5 C5          3.9580   -0.5150   -1.1250 ca        1 D59      0.051400
      6 Cl2         4.9680   -0.9260   -2.4290 cl        1 D59     -0.078400
      7 C4          4.4650   -0.5740    0.1720 ca        1 D59     -0.169500
      8 C3          3.6360   -0.2330    1.2690 ca        1 D59      0.085600
      9 N1          4.1930   -0.2920    2.5570 ns        1 D59     -0.469100
     10 C7          3.5330   -0.1310    3.7690 c         1 D59      0.683700
     11 O1          2.3220    0.1220    3.8680 o         1 D59     -0.558100
     12 C8          4.4160   -0.2570    4.9750 ca        1 D59     -0.168600
     13 C9          4.3500   -1.3990    5.7920 ca        1 D59      0.046700
     14 C14         3.4320   -2.5120    5.4590 c3        1 D59     -0.081800
     15 C13         5.2640    0.8100    5.2780 ca        1 D59     -0.057000
     16 C12         6.0710    0.7610    6.4130 ca        1 D59     -0.150000
     17 C11         6.0370   -0.3550    7.2410 ca        1 D59     -0.048000
     18 C10         5.1870   -1.4330    6.9290 ca        1 D59     -0.188200
     19 N2          5.2060   -2.6040    7.8480 no        1 D59      0.314200
     20 O2          5.8160   -2.5060    8.8810 o         1 D59     -0.205500
     21 O3          4.6330   -3.6160    7.5490 o         1 D59     -0.205500
     22 H1          1.6310    0.4330    1.8560 ha        1 D59      0.169000
     23 H2          2.2510   -0.0840   -2.4040 ha        1 D59      0.165000
     24 H3          5.5080   -0.8870    0.3310 ha        1 D59      0.169000
     25 H4          5.1590   -0.5370    2.5960 hn        1 D59      0.324500
     26 H5          2.7830   -2.2690    4.5810 hc        1 D59      0.075700
     27 H6          4.0170   -3.4410    5.2320 hc        1 D59      0.075700
     28 H7          2.7650   -2.7400    6.3310 hc        1 D59      0.075700
     29 H8          5.2870    1.6960    4.6230 ha        1 D59      0.154000
     30 H9          6.7340    1.6050    6.6580 ha        1 D59      0.156000
     31 H10         6.6740   -0.3970    8.1430 ha        1 D59      0.177000
@<TRIPOS>BOND
     1    1    2 1   
     2    2    3 ar  
     3    2    4 ar  
     4    3    8 ar  
     5    3   22 1   
     6    4    5 ar  
     7    4   23 1   
     8    5    6 1   
     9    5    7 ar  
    10    7    8 ar  
    11    7   24 1   
    12    8    9 1   
    13    9   10 1   
    14    9   25 1   
    15   10   11 2   
    16   10   12 1   
    17   12   13 ar  
    18   12   15 ar  
    19   13   14 1   
    20   13   18 ar  
    21   14   26 1   
    22   14   27 1   
    23   14   28 1   
    24   15   16 ar  
    25   15   29 1   
    26   16   17 ar  
    27   16   30 1   
    28   17   18 ar  
    29   17   31 1   
    30   18   19 1   
    31   19   20 1   
    32   19   21 1   
@<TRIPOS>SUBSTRUCTURE
     1 D59         1 TEMP              0 ****  ****    0 ROOT
