@<TRIPOS>MOLECULE
D5C
   55    57     1     0     0
SMALL
bcc


@<TRIPOS>ATOM
      1 FBE         0.4360   -0.9650   -2.0900 f         1 D5C     -0.223633
      2 CBD         1.6780   -0.6950   -1.5760 c3        1 D5C      0.689200
      3 FBF         1.7190   -1.3670   -0.3800 f         1 D5C     -0.223633
      4 FBG         2.5500   -1.3820   -2.3850 f         1 D5C     -0.223633
      5 CBB         1.9980    0.7950   -1.4520 ca        1 D5C     -0.166300
      6 CBC         3.3310    1.2030   -1.4430 ca        1 D5C     -0.047000
      7 CBA         0.9650    1.7280   -1.3330 ca        1 D5C     -0.032000
      8 CAZ         1.2770    3.0840   -1.2090 ca        1 D5C     -0.127000
      9 CAY         2.6040    3.5030   -1.2100 ca        1 D5C     -0.069000
     10 CAX         3.6450    2.5660   -1.3250 cp        1 D5C     -0.117000
     11 CAU         5.0360    2.9930   -1.3210 cp        1 D5C      0.107000
     12 CAV         5.4170    4.2100   -1.9300 ca        1 D5C     -0.132500
     13 CAW         6.7410    4.6130   -1.9470 ca        1 D5C     -0.045500
     14 CAT         6.0290    2.2030   -0.7150 ca        1 D5C     -0.132500
     15 CAS         7.3570    2.6030   -0.7210 ca        1 D5C     -0.045500
     16 CAR         7.7340    3.8120   -1.3480 ca        1 D5C     -0.244600
     17 CAP         9.1400    4.1390   -1.3060 c         1 D5C      0.596700
     18 OAQ        10.0600    3.6240   -0.6870 o         1 D5C     -0.445100
     19 NAO         9.5840    5.3300   -2.2000 n4        1 D5C     -0.689800
     20 CAN        11.0610    5.4120   -2.3400 c3        1 D5C      0.093800
     21 CAL        11.5390    6.6430   -3.1040 c3        1 D5C     -0.138400
     22 CAK        13.0190    6.5290   -3.4790 c3        1 D5C      0.121500
     23 NAM        13.9410    6.8460   -2.3340 n4        1 D5C     -0.843600
     24 CAJ        13.3250    7.4470   -4.6790 c3        1 D5C     -0.042100
     25 CAD        14.7610    7.4200   -5.0580 ca        1 D5C     -0.223300
     26 CAE        15.3360    6.2580   -5.6220 ca        1 D5C      0.142900
     27 FAG        14.6010    5.1230   -5.7080 f         1 D5C     -0.134900
     28 CAF        16.6590    6.2580   -6.0900 ca        1 D5C     -0.169000
     29 CAA        17.4260    7.4290   -6.0010 ca        1 D5C      0.178900
     30 FAH        18.6920    7.4480   -6.4490 f         1 D5C     -0.070900
     31 CAB        16.8530    8.6080   -5.4310 ca        1 D5C      0.107900
     32 FAI        17.5830    9.7360   -5.3380 f         1 D5C     -0.082900
     33 CAC        15.5280    8.5850   -4.9770 ca        1 D5C     -0.127000
     34 H1          4.1280    0.4480   -1.5500 ha        1 D5C      0.156000
     35 H2         -0.0870    1.3920   -1.3410 ha        1 D5C      0.178000
     36 H3          0.4650    3.8230   -1.1100 ha        1 D5C      0.166000
     37 H4          2.8350    4.5750   -1.1000 ha        1 D5C      0.141000
     38 H5          4.6460    4.8390   -2.4070 ha        1 D5C      0.179000
     39 H6          6.9810    5.5740   -2.4270 ha        1 D5C      0.145500
     40 H7          5.7490    1.2590   -0.2150 ha        1 D5C      0.179000
     41 H8          8.1260    1.9770   -0.2330 ha        1 D5C      0.145500
     42 H9          9.1500    5.2130   -3.1220 hn        1 D5C      0.459300
     43 H10        11.3980    4.4680   -2.8630 hx        1 D5C      0.115700
     44 H11        11.4990    5.4010   -1.2980 hx        1 D5C      0.115700
     45 H12        10.9700    6.7440   -4.0720 hc        1 D5C      0.101700
     46 H13        11.3410    7.5780   -2.5130 hc        1 D5C      0.101700
     47 H14        13.2590    5.4610   -3.7880 hx        1 D5C      0.132700
     48 H15        14.9090    6.8710   -2.6960 hn        1 D5C      0.469133
     49 H16        13.8720    6.1360   -1.6010 hn        1 D5C      0.469133
     50 H18        12.9890    8.4950   -4.4580 hc        1 D5C      0.102200
     51 H19        12.7120    7.0680   -5.5460 hc        1 D5C      0.102200
     52 H20        17.0910    5.3490   -6.5430 ha        1 D5C      0.204000
     53 H21        15.0910    9.5200   -4.5870 ha        1 D5C      0.167000
     54 HAO2        9.2200    6.1920   -1.7820 hn        1 D5C      0.459300
     55 HAM3       13.7220    7.7660   -1.9380 hn        1 D5C      0.469133
@<TRIPOS>BOND
     1    1    2 1   
     2    2    3 1   
     3    2    4 1   
     4    2    5 1   
     5    5    6 ar  
     6    5    7 ar  
     7    6   10 ar  
     8    6   34 1   
     9    7    8 ar  
    10    7   35 1   
    11    8    9 ar  
    12    8   36 1   
    13    9   10 ar  
    14    9   37 1   
    15   10   11 1   
    16   11   12 ar  
    17   11   14 ar  
    18   12   13 ar  
    19   12   38 1   
    20   13   16 ar  
    21   13   39 1   
    22   14   15 ar  
    23   14   40 1   
    24   15   16 ar  
    25   15   41 1   
    26   16   17 1   
    27   17   18 2   
    28   17   19 1   
    29   19   20 1   
    30   19   42 1   
    31   19   54 1   
    32   20   21 1   
    33   20   43 1   
    34   20   44 1   
    35   21   22 1   
    36   21   45 1   
    37   21   46 1   
    38   22   23 1   
    39   22   24 1   
    40   22   47 1   
    41   23   48 1   
    42   23   49 1   
    43   23   55 1   
    44   24   25 1   
    45   24   50 1   
    46   24   51 1   
    47   25   26 ar  
    48   25   33 ar  
    49   26   27 1   
    50   26   28 ar  
    51   28   29 ar  
    52   28   52 1   
    53   29   30 1   
    54   29   31 ar  
    55   31   32 1   
    56   31   33 ar  
    57   33   53 1   
@<TRIPOS>SUBSTRUCTURE
     1 D5C         1 TEMP              0 ****  ****    0 ROOT
