@<TRIPOS>MOLECULE
D5C
   53    55     1     0     0
SMALL
bcc


@<TRIPOS>ATOM
      1 FBE       -10.0420    0.8830    1.7240 f         1 D5C     -0.235967
      2 CBD        -9.0020    0.0440    1.4050 c3        1 D5C      0.687200
      3 FBF        -8.5380   -0.3930    2.6220 f         1 D5C     -0.235967
      4 FBG        -9.6180   -1.0610    0.8660 f         1 D5C     -0.235967
      5 CBB        -7.9400    0.6640    0.5060 ca        1 D5C     -0.167300
      6 CBC        -6.6210    0.2180    0.5900 ca        1 D5C     -0.070000
      7 CBA        -8.3010    1.6620   -0.4030 ca        1 D5C     -0.078000
      8 CAZ        -7.3270    2.2150   -1.2330 ca        1 D5C     -0.134000
      9 CAY        -6.0070    1.7770   -1.1560 ca        1 D5C     -0.090000
     10 CAX        -5.6420    0.7750   -0.2450 cp        1 D5C     -0.044000
     11 CAU        -4.2570    0.3140   -0.1640 cp        1 D5C     -0.024000
     12 CAV        -3.2000    1.2330   -0.2330 ca        1 D5C     -0.125000
     13 CAW        -1.8790    0.7960   -0.1610 ca        1 D5C     -0.091500
     14 CAT        -3.9700   -1.0500   -0.0120 ca        1 D5C     -0.125000
     15 CAS        -2.6500   -1.4870    0.0620 ca        1 D5C     -0.091500
     16 CAR        -1.5990   -0.5660   -0.0200 ca        1 D5C     -0.133600
     17 CAP        -0.2020   -1.0830    0.0790 c         1 D5C      0.666700
     18 OAQ         0.0870   -2.0220    0.8490 o         1 D5C     -0.600100
     19 NAO         0.7430   -0.5180   -0.7550 n         1 D5C     -0.566900
     20 CAN         2.1320   -0.8820   -0.7040 c3        1 D5C      0.095000
     21 CAL         2.9940    0.0350    0.1670 c3        1 D5C     -0.104400
     22 CAK         4.4890   -0.2330   -0.0590 c3        1 D5C      0.175500
     23 NAM         4.8520   -1.6170    0.1570 n3        1 D5C     -0.906800
     24 CAJ         5.2740    0.7890    0.7970 c3        1 D5C     -0.082100
     25 CAD         6.7340    0.7270    0.5310 ca        1 D5C     -0.100300
     26 CAE         7.3110    1.4720   -0.5230 ca        1 D5C      0.139900
     27 FAG         6.5330    2.2540   -1.3100 f         1 D5C     -0.130900
     28 CAF         8.6920    1.4210   -0.7730 ca        1 D5C     -0.180000
     29 CAA         9.5140    0.6210    0.0310 ca        1 D5C      0.119900
     30 FAH        10.8430    0.5650   -0.2010 f         1 D5C     -0.116900
     31 CAB         8.9430   -0.1310    1.0930 ca        1 D5C      0.085900
     32 FAI         9.7300   -0.9050    1.8740 f         1 D5C     -0.119900
     33 CAC         7.5610   -0.0660    1.3260 ca        1 D5C     -0.131000
     34 H1         -6.3500   -0.5620    1.3200 ha        1 D5C      0.157000
     35 H2         -9.3460    2.0070   -0.4560 ha        1 D5C      0.153000
     36 H3         -7.6050    2.9990   -1.9530 ha        1 D5C      0.144000
     37 H4         -5.2440    2.2140   -1.8190 ha        1 D5C      0.143000
     38 H5         -3.4150    2.3070   -0.3340 ha        1 D5C      0.141500
     39 H6         -1.0660    1.5370   -0.1970 ha        1 D5C      0.147000
     40 H7         -4.7920   -1.7800    0.0450 ha        1 D5C      0.141500
     41 H8         -2.4210   -2.5570    0.1970 ha        1 D5C      0.147000
     42 H9          0.4990    0.2860   -1.2800 hn        1 D5C      0.306500
     43 H10         2.2090   -1.9390   -0.3160 h1        1 D5C      0.072700
     44 H11         2.5330   -0.8640   -1.7590 h1        1 D5C      0.072700
     45 H12         2.7970    1.1100   -0.0830 hc        1 D5C      0.047700
     46 H13         2.7350   -0.1160    1.2470 hc        1 D5C      0.047700
     47 H14         4.7270   -0.0090   -1.1440 h1        1 D5C      0.065700
     48 H15         5.8480   -1.7210    0.1540 hn        1 D5C      0.354300
     49 H16         4.4840   -1.9570    1.0240 hn        1 D5C      0.354300
     50 H18         4.8960    1.8180    0.5530 hc        1 D5C      0.063700
     51 H19         5.0720    0.6020    1.8840 hc        1 D5C      0.063700
     52 H20         9.1280    2.0070   -1.5960 ha        1 D5C      0.172000
     53 H21         7.1340   -0.6480    2.1580 ha        1 D5C      0.159000
@<TRIPOS>BOND
     1    1    2 1   
     2    2    3 1   
     3    2    4 1   
     4    2    5 1   
     5    5    6 ar  
     6    5    7 ar  
     7    6   10 ar  
     8    6   34 1   
     9    7    8 ar  
    10    7   35 1   
    11    8    9 ar  
    12    8   36 1   
    13    9   10 ar  
    14    9   37 1   
    15   10   11 1   
    16   11   12 ar  
    17   11   14 ar  
    18   12   13 ar  
    19   12   38 1   
    20   13   16 ar  
    21   13   39 1   
    22   14   15 ar  
    23   14   40 1   
    24   15   16 ar  
    25   15   41 1   
    26   16   17 1   
    27   17   18 2   
    28   17   19 1   
    29   19   20 1   
    30   19   42 1   
    31   20   21 1   
    32   20   43 1   
    33   20   44 1   
    34   21   22 1   
    35   21   45 1   
    36   21   46 1   
    37   22   23 1   
    38   22   24 1   
    39   22   47 1   
    40   23   48 1   
    41   23   49 1   
    42   24   25 1   
    43   24   50 1   
    44   24   51 1   
    45   25   26 ar  
    46   25   33 ar  
    47   26   27 1   
    48   26   28 ar  
    49   28   29 ar  
    50   28   52 1   
    51   29   30 1   
    52   29   31 ar  
    53   31   32 1   
    54   31   33 ar  
    55   33   53 1   
@<TRIPOS>SUBSTRUCTURE
     1 D5C         1 TEMP              0 ****  ****    0 ROOT
