@<TRIPOS>MOLECULE
D5C
   55    57     1     0     0
SMALL
bcc


@<TRIPOS>ATOM
      1 FBE         0.0500    0.4150    0.8780 f         1 D5C     -0.223633
      2 CBD         1.3490    0.2490    0.4740 c3        1 D5C      0.689200
      3 FBF         2.0880    0.3150    1.6300 f         1 D5C     -0.223633
      4 FBG         1.4330   -1.0660    0.0880 f         1 D5C     -0.223633
      5 CBB         1.8040    1.2330   -0.6050 ca        1 D5C     -0.166300
      6 CBC         3.1630    1.5180   -0.7320 ca        1 D5C     -0.046000
      7 CBA         0.8680    1.8230   -1.4570 ca        1 D5C     -0.032000
      8 CAZ         1.3030    2.7110   -2.4430 ca        1 D5C     -0.127000
      9 CAY         2.6560    3.0100   -2.5730 ca        1 D5C     -0.069000
     10 CAX         3.6010    2.4140   -1.7190 cp        1 D5C     -0.117000
     11 CAU         5.0180    2.7160   -1.8490 cp        1 D5C      0.108000
     12 CAV         5.4480    4.0130   -2.2120 ca        1 D5C     -0.133000
     13 CAW         6.7940    4.3120   -2.3220 ca        1 D5C     -0.044500
     14 CAT         5.9890    1.7280   -1.6110 ca        1 D5C     -0.133000
     15 CAS         7.3410    2.0180   -1.7220 ca        1 D5C     -0.044500
     16 CAR         7.7640    3.3200   -2.0770 ca        1 D5C     -0.244600
     17 CAP         9.1920    3.5210   -2.1540 c         1 D5C      0.595700
     18 OAQ        10.1170    2.7490   -1.9480 o         1 D5C     -0.446100
     19 NAO         9.6560    4.9470   -2.5580 n4        1 D5C     -0.689800
     20 CAN        11.1300    5.0390   -2.7200 c3        1 D5C      0.094800
     21 CAL        11.6300    6.4520   -3.0040 c3        1 D5C     -0.138400
     22 CAK        13.0890    6.4460   -3.4700 c3        1 D5C      0.121500
     23 NAM        14.0670    6.2850   -2.3380 n4        1 D5C     -0.843600
     24 CAJ        13.3900    7.7390   -4.2540 c3        1 D5C     -0.042100
     25 CAD        14.8090    7.8170   -4.6890 ca        1 D5C     -0.223300
     26 CAE        15.3100    6.9370   -5.6750 ca        1 D5C      0.142900
     27 FAG        14.5220    5.9380   -6.1420 f         1 D5C     -0.134900
     28 CAF        16.6140    7.0760   -6.1750 ca        1 D5C     -0.169000
     29 CAA        17.4350    8.1060   -5.6940 ca        1 D5C      0.178900
     30 FAH        18.6830    8.2570   -6.1670 f         1 D5C     -0.070900
     31 CAB        16.9370    8.9990   -4.6960 ca        1 D5C      0.107900
     32 FAI        17.7200    9.9890   -4.2250 f         1 D5C     -0.082900
     33 CAC        15.6300    8.8440   -4.2160 ca        1 D5C     -0.127000
     34 H1          3.8810    1.0490   -0.0370 ha        1 D5C      0.156000
     35 H2         -0.2050    1.5890   -1.3460 ha        1 D5C      0.178000
     36 H3          0.5690    3.1750   -3.1220 ha        1 D5C      0.166000
     37 H4          2.9860    3.7030   -3.3630 ha        1 D5C      0.141000
     38 H5          4.6940    4.7990   -2.3940 ha        1 D5C      0.179000
     39 H6          7.0710    5.3410   -2.5970 ha        1 D5C      0.146000
     40 H7          5.6750    0.7030   -1.3420 ha        1 D5C      0.179000
     41 H8          8.0930    1.2300   -1.5350 ha        1 D5C      0.146000
     42 H9          9.1920    5.1940   -3.4390 hn        1 D5C      0.459300
     43 H10        11.5970    4.6390   -1.7720 hx        1 D5C      0.115200
     44 H11        11.4160    4.3410   -3.5630 hx        1 D5C      0.115200
     45 H12        11.4950    7.1090   -2.1030 hc        1 D5C      0.101700
     46 H13        11.0310    6.9160   -3.8380 hc        1 D5C      0.101700
     47 H14        13.2690    5.5660   -4.1670 hx        1 D5C      0.133700
     48 H15        13.9030    6.9940   -1.6160 hn        1 D5C      0.469133
     49 H16        15.0200    6.4180   -2.7130 hn        1 D5C      0.469133
     50 H18        12.7300    7.7300   -5.1670 hc        1 D5C      0.101700
     51 H19        13.1100    8.6360   -3.6400 hc        1 D5C      0.101700
     52 H20        16.9870    6.3920   -6.9570 ha        1 D5C      0.204000
     53 H21        15.2500    9.5760   -3.4830 ha        1 D5C      0.167000
     54 HAO2        9.3360    5.6000   -1.8350 hn        1 D5C      0.459300
     55 HAM3       13.9940    5.3540   -1.9210 hn        1 D5C      0.469133
@<TRIPOS>BOND
     1    1    2 1   
     2    2    3 1   
     3    2    4 1   
     4    2    5 1   
     5    5    6 ar  
     6    5    7 ar  
     7    6   10 ar  
     8    6   34 1   
     9    7    8 ar  
    10    7   35 1   
    11    8    9 ar  
    12    8   36 1   
    13    9   10 ar  
    14    9   37 1   
    15   10   11 1   
    16   11   12 ar  
    17   11   14 ar  
    18   12   13 ar  
    19   12   38 1   
    20   13   16 ar  
    21   13   39 1   
    22   14   15 ar  
    23   14   40 1   
    24   15   16 ar  
    25   15   41 1   
    26   16   17 1   
    27   17   18 2   
    28   17   19 1   
    29   19   20 1   
    30   19   42 1   
    31   19   54 1   
    32   20   21 1   
    33   20   43 1   
    34   20   44 1   
    35   21   22 1   
    36   21   45 1   
    37   21   46 1   
    38   22   23 1   
    39   22   24 1   
    40   22   47 1   
    41   23   48 1   
    42   23   49 1   
    43   23   55 1   
    44   24   25 1   
    45   24   50 1   
    46   24   51 1   
    47   25   26 ar  
    48   25   33 ar  
    49   26   27 1   
    50   26   28 ar  
    51   28   29 ar  
    52   28   52 1   
    53   29   30 1   
    54   29   31 ar  
    55   31   32 1   
    56   31   33 ar  
    57   33   53 1   
@<TRIPOS>SUBSTRUCTURE
     1 D5C         1 TEMP              0 ****  ****    0 ROOT
