@<TRIPOS>MOLECULE
D5C
   55    57     1     0     0
SMALL
bcc


@<TRIPOS>ATOM
      1 FBE         0.4120   -0.9310   -2.1100 f         1 D5C     -0.223633
      2 CBD         1.6570   -0.6700   -1.5990 c3        1 D5C      0.689200
      3 FBF         1.7000   -1.3520   -0.4090 f         1 D5C     -0.223633
      4 FBG         2.5220   -1.3550   -2.4170 f         1 D5C     -0.223633
      5 CBB         1.9840    0.8180   -1.4650 ca        1 D5C     -0.166300
      6 CBC         3.3190    1.2190   -1.4560 ca        1 D5C     -0.047000
      7 CBA         0.9550    1.7540   -1.3370 ca        1 D5C     -0.032000
      8 CAZ         1.2730    3.1070   -1.2040 ca        1 D5C     -0.127000
      9 CAY         2.6020    3.5210   -1.2040 ca        1 D5C     -0.069000
     10 CAX         3.6390    2.5800   -1.3280 cp        1 D5C     -0.117000
     11 CAU         5.0320    3.0010   -1.3240 cp        1 D5C      0.107000
     12 CAV         5.4170    4.2210   -1.9250 ca        1 D5C     -0.132500
     13 CAW         6.7420    4.6180   -1.9420 ca        1 D5C     -0.045500
     14 CAT         6.0220    2.2020   -0.7260 ca        1 D5C     -0.132500
     15 CAS         7.3520    2.5960   -0.7320 ca        1 D5C     -0.045500
     16 CAR         7.7330    3.8080   -1.3510 ca        1 D5C     -0.244600
     17 CAP         9.1410    4.1290   -1.3090 c         1 D5C      0.596700
     18 OAQ        10.0590    3.6040   -0.6970 o         1 D5C     -0.445100
     19 NAO         9.5880    5.3250   -2.1930 ny        1 D5C     -0.689800
     20 CAN        11.0650    5.4020   -2.3360 c3        1 D5C      0.093800
     21 CAL        11.5470    6.6370   -3.0900 c3        1 D5C     -0.138400
     22 CAK        13.0260    6.5200   -3.4690 c3        1 D5C      0.121500
     23 NAM        13.9510    6.8230   -2.3230 nz        1 D5C     -0.843600
     24 CAJ        13.3330    7.4480   -4.6610 c3        1 D5C     -0.042100
     25 CAD        14.7680    7.4180   -5.0440 ca        1 D5C     -0.223300
     26 CAE        15.3370    6.2590   -5.6200 ca        1 D5C      0.142900
     27 FAG        14.5970    5.1280   -5.7150 f         1 D5C     -0.134900
     28 CAF        16.6590    6.2580   -6.0900 ca        1 D5C     -0.169000
     29 CAA        17.4310    7.4250   -5.9920 ca        1 D5C      0.178900
     30 FAH        18.6970    7.4410   -6.4420 f         1 D5C     -0.070900
     31 CAB        16.8650    8.6000   -5.4100 ca        1 D5C      0.107900
     32 FAI        17.6010    9.7240   -5.3070 f         1 D5C     -0.082900
     33 CAC        15.5400    8.5790   -4.9530 ca        1 D5C     -0.127000
     34 H1          4.1120    0.4620   -1.5710 ha        1 D5C      0.156000
     35 H2         -0.0990    1.4230   -1.3450 ha        1 D5C      0.178000
     36 H3          0.4650    3.8490   -1.0970 ha        1 D5C      0.166000
     37 H4          2.8380    4.5900   -1.0870 ha        1 D5C      0.141000
     38 H5          4.6470    4.8570   -2.3950 ha        1 D5C      0.179000
     39 H6          6.9860    5.5810   -2.4140 ha        1 D5C      0.145500
     40 H7          5.7390    1.2550   -0.2320 ha        1 D5C      0.179000
     41 H8          8.1190    1.9630   -0.2500 ha        1 D5C      0.145500
     42 H9          9.1520    5.2180   -3.1160 hn        1 D5C      0.459300
     43 H10        11.3970    4.4610   -2.8680 hx        1 D5C      0.115700
     44 H11        11.5050    5.3800   -1.2950 hx        1 D5C      0.115700
     45 H12        11.3540    7.5680   -2.4910 hc        1 D5C      0.101700
     46 H13        10.9760    6.7490   -4.0560 hc        1 D5C      0.101700
     47 H14        13.2600    5.4540   -3.7880 hx        1 D5C      0.132700
     48 H15        14.9180    6.8470   -2.6870 hn        1 D5C      0.469133
     49 H16        13.8810    6.1070   -1.5960 hn        1 D5C      0.469133
     50 H18        12.7170    7.0800   -5.5310 hc        1 D5C      0.102200
     51 H19        13.0020    8.4960   -4.4300 hc        1 D5C      0.102200
     52 H20        17.0860    5.3500   -6.5520 ha        1 D5C      0.204000
     53 H21        15.1090    9.5120   -4.5530 ha        1 D5C      0.167000
     54 HAO2        9.2290    6.1850   -1.7670 hn        1 D5C      0.459300
     55 HAM3       13.7370    7.7400   -1.9180 hn        1 D5C      0.469133
@<TRIPOS>BOND
     1    1    2 1   
     2    2    3 1   
     3    2    4 1   
     4    2    5 1   
     5    5    6 ar  
     6    5    7 ar  
     7    6   10 ar  
     8    6   34 1   
     9    7    8 ar  
    10    7   35 1   
    11    8    9 ar  
    12    8   36 1   
    13    9   10 ar  
    14    9   37 1   
    15   10   11 1   
    16   11   12 ar  
    17   11   14 ar  
    18   12   13 ar  
    19   12   38 1   
    20   13   16 ar  
    21   13   39 1   
    22   14   15 ar  
    23   14   40 1   
    24   15   16 ar  
    25   15   41 1   
    26   16   17 1   
    27   17   18 2   
    28   17   19 1   
    29   19   20 1   
    30   19   42 1   
    31   19   54 1   
    32   20   21 1   
    33   20   43 1   
    34   20   44 1   
    35   21   22 1   
    36   21   45 1   
    37   21   46 1   
    38   22   23 1   
    39   22   24 1   
    40   22   47 1   
    41   23   48 1   
    42   23   49 1   
    43   23   55 1   
    44   24   25 1   
    45   24   50 1   
    46   24   51 1   
    47   25   26 ar  
    48   25   33 ar  
    49   26   27 1   
    50   26   28 ar  
    51   28   29 ar  
    52   28   52 1   
    53   29   30 1   
    54   29   31 ar  
    55   31   32 1   
    56   31   33 ar  
    57   33   53 1   
@<TRIPOS>SUBSTRUCTURE
     1 D5C         1 TEMP              0 ****  ****    0 ROOT
