@<TRIPOS>MOLECULE
D5G
   52    53     1     0     0
SMALL
bcc


@<TRIPOS>ATOM
      1 CAK         0.2350    0.7150    0.7880 ca        1 D5G     -0.090000
      2 CAI         1.6190    0.5850    0.8470 ca        1 D5G     -0.087500
      3 CAH         2.2040   -0.6080    1.2870 ca        1 D5G     -0.014000
      4 CAJ         1.3980   -1.6850    1.6720 ca        1 D5G     -0.087500
      5 CAL         0.0110   -1.5850    1.6240 ca        1 D5G     -0.090000
      6 CAV        -0.5690   -0.3740    1.1890 ca        1 D5G     -0.123400
      7 NAP        -2.0270   -0.2090    1.2520 n4        1 D5G     -0.460200
      8 CAU        -2.7080   -0.5780   -0.0500 c         1 D5G     -0.064600
      9 SAG        -2.0180   -1.1810   -1.2360 s         1 D5G      0.386600
     10 N          -4.1890   -0.2220   -0.0060 n4        1 D5G     -0.641800
     11 CA         -5.0700   -1.0420   -0.9450 c3        1 D5G      0.052500
     12 CB         -5.6790   -2.2400   -0.1960 c3        1 D5G     -0.122400
     13 CG         -6.1300   -3.4040   -1.0790 c3        1 D5G     -0.085700
     14 CD2        -5.1230   -3.7690   -2.1460 c3        1 D5G     -0.110600
     15 CD1        -6.3850   -4.6000   -0.1730 c3        1 D5G     -0.110600
     16 C          -6.1730   -0.1280   -1.5230 c         1 D5G      0.516100
     17 O          -6.4060    0.9880   -1.0700 o         1 D5G     -0.395100
     18 NAQ        -6.9490   -0.6190   -2.6790 n4        1 D5G     -0.666800
     19 CAZ        -8.4440   -0.3030   -2.5910 c3        1 D5G      0.099500
     20 CAX        -9.1270   -1.1660   -1.5020 c3        1 D5G      0.107400
     21 OAF        -9.3900   -2.4320   -2.1050 os        1 D5G     -0.422600
     22 CAN        -9.1310   -0.8280   -3.8680 c3        1 D5G     -0.138400
     23 CAM        -9.3360   -2.3180   -3.5370 c3        1 D5G      0.323900
     24 OAE        -8.1250   -2.9760   -3.8320 oh        1 D5G     -0.678800
     25 HAK        -0.2010    1.6720    0.4570 ha        1 D5G      0.159000
     26 HAI         2.2590    1.4390    0.5520 ha        1 D5G      0.203000
     27 HAH         3.3080   -0.6970    1.3350 ha        1 D5G      0.207000
     28 HAJ         1.8640   -2.6240    2.0290 ha        1 D5G      0.203000
     29 HAL        -0.6010   -2.4420    1.9510 ha        1 D5G      0.159000
     30 HAP        -2.2150    0.7780    1.4940 hn        1 D5G      0.478800
     31 HN         -4.2840    0.7830   -0.2450 hn        1 D5G      0.477800
     32 HA         -4.4070   -1.4130   -1.7950 hx        1 D5G      0.160700
     33 HB1        -4.9080   -2.6540    0.5150 hc        1 D5G      0.093200
     34 HB2        -6.5540   -1.8950    0.4210 hc        1 D5G      0.093200
     35 HG         -7.1200   -3.1530   -1.5660 hc        1 D5G      0.080700
     36 HD21       -5.4050   -4.7540   -2.6050 hc        1 D5G      0.063700
     37 HD22       -5.0980   -3.0140   -2.9700 hc        1 D5G      0.063700
     38 HD23       -4.0980   -3.8820   -1.7180 hc        1 D5G      0.063700
     39 HD11       -6.8460   -5.4290   -0.7680 hc        1 D5G      0.063700
     40 HD12       -7.0900   -4.3320    0.6510 hc        1 D5G      0.063700
     41 HD13       -5.4320   -4.9780    0.2700 hc        1 D5G      0.063700
     42 HAQ        -6.8570   -1.6540   -2.7900 hn        1 D5G      0.500300
     43 HAZ        -8.5600    0.8030   -2.4260 hx        1 D5G      0.154700
     44 HAX1      -10.1020   -0.6880   -1.2100 h1        1 D5G      0.097700
     45 HAX2       -8.5050   -1.3570   -0.5920 h1        1 D5G      0.097700
     46 HAN1      -10.1220   -0.3110   -3.9820 hc        1 D5G      0.134700
     47 HAN2       -8.5550   -0.6860   -4.8140 hc        1 D5G      0.134700
     48 HAM       -10.2480   -2.8010   -3.9750 h2        1 D5G      0.154700
     49 HAE        -8.3000   -3.9240   -3.9280 ho        1 D5G      0.473000
     50 HAP2       -2.3800   -0.8120    2.0140 hn        1 D5G      0.478800
     51 H2         -4.5770   -0.3440    0.9430 hn        1 D5G      0.477800
     52 HAQ2       -6.5910   -0.1700   -3.5380 hn        1 D5G      0.500300
@<TRIPOS>BOND
     1    1    2 ar  
     2    1    6 ar  
     3    1   25 1   
     4    2    3 ar  
     5    2   26 1   
     6    3    4 ar  
     7    3   27 1   
     8    4    5 ar  
     9    4   28 1   
    10    5    6 ar  
    11    5   29 1   
    12    6    7 1   
    13    7    8 1   
    14    7   30 1   
    15    7   50 1   
    16    8    9 2   
    17    8   10 1   
    18   10   11 1   
    19   10   31 1   
    20   10   51 1   
    21   11   12 1   
    22   11   16 1   
    23   11   32 1   
    24   12   13 1   
    25   12   33 1   
    26   12   34 1   
    27   13   14 1   
    28   13   15 1   
    29   13   35 1   
    30   14   36 1   
    31   14   37 1   
    32   14   38 1   
    33   15   39 1   
    34   15   40 1   
    35   15   41 1   
    36   16   17 2   
    37   16   18 1   
    38   18   19 1   
    39   18   42 1   
    40   18   52 1   
    41   19   20 1   
    42   19   22 1   
    43   19   43 1   
    44   20   21 1   
    45   20   44 1   
    46   20   45 1   
    47   21   23 1   
    48   22   23 1   
    49   22   46 1   
    50   22   47 1   
    51   23   24 1   
    52   23   48 1   
    53   24   49 1   
@<TRIPOS>SUBSTRUCTURE
     1 D5G         1 TEMP              0 ****  ****    0 ROOT
