@<TRIPOS>MOLECULE
D5G
   49    47     1     0     0
SMALL
bcc


@<TRIPOS>ATOM
      1 CAK         2.3150    3.5500    2.7590 c1        1 D5G     -0.108500
      2 CAI         3.1970    4.6140    2.6630 c1        1 D5G     -0.065250
      3 CAH         4.2170    4.5860    1.7250 c1        1 D5G     -0.065250
      4 CAJ         4.3550    3.4940    0.8830 c1        1 D5G     -0.065250
      5 CAL         3.4730    2.4290    0.9800 c1        1 D5G     -0.065250
      6 CAV         2.4530    2.4570    1.9170 c1        1 D5G      0.065200
      7 NAP         1.5970    1.3340    2.0670 n         1 D5G     -0.440700
      8 CAU         1.7590    0.1990    1.2260 c         1 D5G      0.588400
      9 SAG         2.9700    0.1790    0.0710 s         1 D5G     -0.582400
     10 N           0.9290   -0.9390    1.4040 n         1 D5G     -0.515900
     11 CA          0.1210   -1.4020    0.3310 c3        1 D5G      0.022700
     12 CB          0.0570   -2.9120    0.3640 c3        1 D5G     -0.083400
     13 CG          0.5010   -3.4660   -0.9730 c3        1 D5G     -0.067700
     14 CD2         2.0130   -3.4370   -1.0540 c3        1 D5G     -0.094600
     15 CD1         0.0160   -4.8910   -1.1160 c3        1 D5G     -0.094600
     16 C          -1.2750   -0.8360    0.4710 c         1 D5G      0.638100
     17 O          -1.9220   -1.0590    1.4740 o         1 D5G     -0.628100
     18 NAQ        -1.7930    0.0290   -0.5300 n         1 D5G     -0.552900
     19 CAZ        -3.1200    0.6570   -0.3500 c3        1 D5G      0.078700
     20 CAX        -4.0920   -0.2180   -0.6440 c3        1 D5G      0.112400
     21 OAF        -4.4270   -0.0110   -2.1990 os        1 D5G     -0.457600
     22 CAN        -3.3060    1.8120   -1.3550 c3        1 D5G     -0.120400
     23 CAM        -4.3310    1.2780   -2.4260 c3        1 D5G      0.326900
     24 OAE        -3.8430    1.5090   -3.7240 oh        1 D5G     -0.624800
     25 HAK         1.5970    3.5690    3.4200 ha        1 D5G      0.072500
     26 HAI         3.1000    5.3830    3.2550 ha        1 D5G      0.089250
     27 HAH         4.8380    5.3360    1.6570 ha        1 D5G      0.089250
     28 HAJ         5.0730    3.4740    0.2230 ha        1 D5G      0.089250
     29 HAL         3.5700    1.6620    0.3890 ha        1 D5G      0.089250
     30 HAP         0.9470    1.3390    2.7070 hn        1 D5G      0.314500
     31 HN          0.8960   -1.3570    2.2130 hn        1 D5G      0.316500
     32 HA          0.5070   -1.1110   -0.5180 h1        1 D5G      0.130700
     33 HB1        -0.8610   -3.1960    0.5460 hc        1 D5G      0.062700
     34 HB2         0.6480   -3.2480    1.0680 hc        1 D5G      0.062700
     35 HG          0.1270   -2.9210   -1.6910 hc        1 D5G      0.047700
     36 HD21        2.2890   -2.8520   -1.7910 hc        1 D5G      0.038700
     37 HD22        2.3490   -4.3440   -1.2130 hc        1 D5G      0.038700
     38 HD23        2.3790   -3.0960   -0.2120 hc        1 D5G      0.038700
     39 HD11        0.5400   -5.4750   -0.5270 hc        1 D5G      0.038700
     40 HD12        0.1250   -5.1810   -2.0450 hc        1 D5G      0.038700
     41 HD13       -0.9310   -4.9400   -0.8660 hc        1 D5G      0.038700
     42 HAQ        -1.3210    0.1720   -1.2970 hn        1 D5G      0.333500
     43 HAZ        -3.2220    0.9830    0.5660 h1        1 D5G      0.100700
     44 HAX1       -4.8860   -0.0330   -0.1010 h1        1 D5G      0.058700
     45 HAX2       -3.7800   -1.1330   -0.4860 h1        1 D5G      0.058700
     46 HAN1       -2.4530    2.0300   -1.7810 hc        1 D5G      0.080200
     47 HAN2       -3.6690    2.5990   -0.9020 hc        1 D5G      0.080200
     48 HAM        -5.2010    1.7100   -2.3070 h2        1 D5G      0.070700
     49 HAE        -4.5250    1.6750   -4.2710 ho        1 D5G      0.423000
@<TRIPOS>BOND
     1    1    6 3   
     2    1   25 1   
     3    2    3 3   
     4    2   26 1   
     5    3   27 1   
     6    4    5 3   
     7    4   28 1   
     8    5   29 1   
     9    6    7 1   
    10    7    8 1   
    11    7   30 1   
    12    8    9 2   
    13    8   10 1   
    14   10   11 1   
    15   10   31 1   
    16   11   12 1   
    17   11   16 1   
    18   11   32 1   
    19   12   13 1   
    20   12   33 1   
    21   12   34 1   
    22   13   14 1   
    23   13   15 1   
    24   13   35 1   
    25   14   36 1   
    26   14   37 1   
    27   14   38 1   
    28   15   39 1   
    29   15   40 1   
    30   15   41 1   
    31   16   17 2   
    32   16   18 1   
    33   18   19 1   
    34   18   42 1   
    35   19   20 1   
    36   19   22 1   
    37   19   43 1   
    38   20   21 1   
    39   20   44 1   
    40   20   45 1   
    41   21   23 1   
    42   22   23 1   
    43   22   46 1   
    44   22   47 1   
    45   23   24 1   
    46   23   48 1   
    47   24   49 1   
@<TRIPOS>SUBSTRUCTURE
     1 D5G         1 TEMP              0 ****  ****    0 ROOT
