@<TRIPOS>MOLECULE
D5G
   49    50     1     0     0
SMALL
bcc


@<TRIPOS>ATOM
      1 CAK         4.1540    1.4490   -1.3500 ca        1 D5G     -0.139500
      2 CAI         5.3530    1.8250   -1.9520 ca        1 D5G     -0.117000
      3 CAH         6.5650    1.6880   -1.2810 ca        1 D5G     -0.136000
      4 CAJ         6.5800    1.1650    0.0130 ca        1 D5G     -0.117000
      5 CAL         5.3970    0.7760    0.6300 ca        1 D5G     -0.139500
      6 CAV         4.1610    0.9140   -0.0470 ca        1 D5G      0.039600
      7 NAP         2.9780    0.5680    0.6460 n         1 D5G     -0.416100
      8 CAU         1.8920   -0.1030    0.0890 c         1 D5G      0.575400
      9 SAG         1.6300   -0.2260   -1.5090 s         1 D5G     -0.571400
     10 N           1.0180   -0.6910    1.0050 n         1 D5G     -0.507900
     11 CA         -0.3110   -1.1060    0.6050 c3        1 D5G      0.017700
     12 CB         -0.6730   -2.4840    1.1860 c3        1 D5G     -0.081400
     13 CG         -1.8200   -3.1370    0.4270 c3        1 D5G     -0.067700
     14 CD2        -1.3460   -3.7440   -0.8770 c3        1 D5G     -0.094600
     15 CD1        -2.4630   -4.2020    1.2930 c3        1 D5G     -0.094600
     16 C          -1.3570   -0.0840    1.1300 c         1 D5G      0.636100
     17 O          -1.3210    0.2960    2.3200 o         1 D5G     -0.627100
     18 NAQ        -2.3040    0.3680    0.2460 n         1 D5G     -0.553900
     19 CAZ        -3.3320    1.3060    0.6160 c3        1 D5G      0.078700
     20 CAX        -4.7540    0.6770    0.6160 c3        1 D5G      0.111400
     21 OAF        -5.4640    1.1670   -0.5260 os        1 D5G     -0.457600
     22 CAN        -3.4610    2.4780   -0.3860 c3        1 D5G     -0.120400
     23 CAM        -4.6720    2.1080   -1.2430 c3        1 D5G      0.325900
     24 OAE        -4.2230    1.4090   -2.3810 oh        1 D5G     -0.625800
     25 HAK         3.2040    1.5510   -1.9060 ha        1 D5G      0.155000
     26 HAI         5.3320    2.2350   -2.9740 ha        1 D5G      0.136000
     27 HAH         7.5050    1.9880   -1.7650 ha        1 D5G      0.135000
     28 HAJ         7.5330    1.0540    0.5500 ha        1 D5G      0.136000
     29 HAL         5.4360    0.3630    1.6500 ha        1 D5G      0.155000
     30 HAP         3.0950    0.5400    1.6390 hn        1 D5G      0.307500
     31 HN          1.0970   -0.4830    1.9800 hn        1 D5G      0.314500
     32 HA         -0.3330   -1.1640   -0.5310 h1        1 D5G      0.130700
     33 HB1        -0.9530   -2.3610    2.2660 hc        1 D5G      0.063200
     34 HB2         0.2210   -3.1600    1.1410 hc        1 D5G      0.063200
     35 HG         -2.5990   -2.3560    0.1960 hc        1 D5G      0.046700
     36 HD21       -0.8670   -2.9710   -1.5260 hc        1 D5G      0.038700
     37 HD22       -0.6000   -4.5530   -0.6850 hc        1 D5G      0.038700
     38 HD23       -2.2090   -4.1850   -1.4310 hc        1 D5G      0.038700
     39 HD11       -1.7130   -4.9770    1.5820 hc        1 D5G      0.038700
     40 HD12       -2.8840   -3.7500    2.2240 hc        1 D5G      0.038700
     41 HD13       -3.2910   -4.7020    0.7360 hc        1 D5G      0.038700
     42 HAQ        -2.2810    0.0760   -0.7050 hn        1 D5G      0.332500
     43 HAZ        -3.0970    1.6960    1.6480 h1        1 D5G      0.101700
     44 HAX1       -4.7530   -0.4390    0.5460 h1        1 D5G      0.059200
     45 HAX2       -5.3250    1.0050    1.5220 h1        1 D5G      0.059200
     46 HAN1       -3.6630    3.4250    0.1690 hc        1 D5G      0.079700
     47 HAN2       -2.5530    2.6170   -1.0200 hc        1 D5G      0.079700
     48 HAM        -5.3360    2.9680   -1.5220 h2        1 D5G      0.070700
     49 HAE        -4.9840    0.9450   -2.7550 ho        1 D5G      0.423000
@<TRIPOS>BOND
     1    1    2 ar  
     2    1    6 ar  
     3    1   25 1   
     4    2    3 ar  
     5    2   26 1   
     6    3    4 ar  
     7    3   27 1   
     8    4    5 ar  
     9    4   28 1   
    10    5    6 ar  
    11    5   29 1   
    12    6    7 1   
    13    7    8 1   
    14    7   30 1   
    15    8    9 2   
    16    8   10 1   
    17   10   11 1   
    18   10   31 1   
    19   11   12 1   
    20   11   16 1   
    21   11   32 1   
    22   12   13 1   
    23   12   33 1   
    24   12   34 1   
    25   13   14 1   
    26   13   15 1   
    27   13   35 1   
    28   14   36 1   
    29   14   37 1   
    30   14   38 1   
    31   15   39 1   
    32   15   40 1   
    33   15   41 1   
    34   16   17 2   
    35   16   18 1   
    36   18   19 1   
    37   18   42 1   
    38   19   20 1   
    39   19   22 1   
    40   19   43 1   
    41   20   21 1   
    42   20   44 1   
    43   20   45 1   
    44   21   23 1   
    45   22   23 1   
    46   22   46 1   
    47   22   47 1   
    48   23   24 1   
    49   23   48 1   
    50   24   49 1   
@<TRIPOS>SUBSTRUCTURE
     1 D5G         1 TEMP              0 ****  ****    0 ROOT
