@<TRIPOS>MOLECULE
D5G
   51    52     1     0     0
SMALL
bcc


@<TRIPOS>ATOM
      1 CAK        -0.7410    0.9760   -0.0570 ca        1 D5G     -0.103500
      2 CAI         0.4560    1.6570   -0.2770 ca        1 D5G     -0.102500
      3 CAH         1.6300    1.2620    0.3600 ca        1 D5G     -0.055000
      4 CAJ         1.6130    0.1720    1.2370 ca        1 D5G     -0.102500
      5 CAL         0.4370   -0.5220    1.4790 ca        1 D5G     -0.103500
      6 CAV        -0.7600   -0.1230    0.8240 ca        1 D5G     -0.056400
      7 NAP        -1.9330   -0.8640    1.1380 ns        1 D5G     -0.262100
      8 CAU        -3.0760   -0.8900    0.4310 c         1 D5G      0.328400
      9 SAG        -3.5210   -0.1110   -0.8900 s         1 D5G     -0.371400
     10 N          -4.1810   -1.8000    1.0000 ny        1 D5G     -0.642800
     11 CA         -5.1170   -2.2770   -0.0840 c3        1 D5G      0.064500
     12 CB         -6.1170   -3.2990    0.4860 c3        1 D5G     -0.117400
     13 CG         -6.9550   -3.9640   -0.6000 c3        1 D5G     -0.068700
     14 CD2        -6.1080   -4.7060   -1.6110 c3        1 D5G     -0.108600
     15 CD1        -7.9290   -4.9210    0.0670 c3        1 D5G     -0.108600
     16 C          -5.8940   -1.0730   -0.6510 c         1 D5G      0.547100
     17 O          -6.5130   -0.2910    0.0650 o         1 D5G     -0.428100
     18 NAQ        -6.0720   -1.0300   -2.1310 ny        1 D5G     -0.659800
     19 CAZ        -7.1570   -0.0810   -2.5990 c3        1 D5G      0.097500
     20 CAX        -8.5670   -0.6430   -2.2860 c3        1 D5G      0.111400
     21 OAF        -8.8950   -1.5280   -3.3590 os        1 D5G     -0.426600
     22 CAN        -7.1720   -0.0590   -4.1420 c3        1 D5G     -0.133400
     23 CAM        -8.0190   -1.3020   -4.4710 c3        1 D5G      0.320900
     24 OAE        -7.1540   -2.4150   -4.4110 oh        1 D5G     -0.667800
     25 HAK        -1.6520    1.3230   -0.5740 ha        1 D5G      0.160500
     26 HAI         0.4630    2.5200   -0.9650 ha        1 D5G      0.177000
     27 HAH         2.5730    1.8080    0.1770 ha        1 D5G      0.180000
     28 HAJ         2.5420   -0.1410    1.7450 ha        1 D5G      0.177000
     29 HAL         0.4520   -1.3750    2.1770 ha        1 D5G      0.160500
     30 HAP        -1.8280   -1.4330    1.9640 hn        1 D5G      0.352500
     31 HN         -4.7230   -1.2560    1.6920 hn        1 D5G      0.473800
     32 HA         -4.4810   -2.7750   -0.8800 hx        1 D5G      0.145700
     33 HB1        -6.8020   -2.7900    1.2180 hc        1 D5G      0.095700
     34 HB2        -5.5550   -4.1060    1.0330 hc        1 D5G      0.095700
     35 HG         -7.5610   -3.1740   -1.1300 hc        1 D5G      0.040700
     36 HD21       -5.5330   -4.0030   -2.2620 hc        1 D5G      0.060367
     37 HD22       -6.7660   -5.3240   -2.2750 hc        1 D5G      0.060367
     38 HD23       -5.3920   -5.3970   -1.1050 hc        1 D5G      0.060367
     39 HD11       -8.6090   -5.3640   -0.7020 hc        1 D5G      0.060367
     40 HD12       -8.5530   -4.3880    0.8240 hc        1 D5G      0.060367
     41 HD13       -7.3820   -5.7540    0.5720 hc        1 D5G      0.060367
     42 HAQ        -5.1780   -0.7470   -2.5640 hn        1 D5G      0.487800
     43 HAZ        -6.9790    0.9230   -2.1280 hx        1 D5G      0.144700
     44 HAX1       -9.3070    0.2020   -2.2740 h1        1 D5G      0.098700
     45 HAX2       -8.6410   -1.2280   -1.3360 h1        1 D5G      0.098700
     46 HAN1       -6.1670   -0.1020   -4.6250 hc        1 D5G      0.119200
     47 HAN2       -7.6940    0.8710   -4.4870 hc        1 D5G      0.119200
     48 HAM        -8.6300   -1.2490   -5.4070 h2        1 D5G      0.136700
     49 HAE        -7.6260   -3.1870   -4.7540 ho        1 D5G      0.462000
     50 H2         -3.8030   -2.6330    1.4710 hn        1 D5G      0.473800
     51 HAQ2       -6.3200   -1.9780   -2.4860 hn        1 D5G      0.487800
@<TRIPOS>BOND
     1    1    2 ar  
     2    1    6 ar  
     3    1   25 1   
     4    2    3 ar  
     5    2   26 1   
     6    3    4 ar  
     7    3   27 1   
     8    4    5 ar  
     9    4   28 1   
    10    5    6 ar  
    11    5   29 1   
    12    6    7 1   
    13    7    8 1   
    14    7   30 1   
    15    8    9 2   
    16    8   10 1   
    17   10   11 1   
    18   10   31 1   
    19   10   50 1   
    20   11   12 1   
    21   11   16 1   
    22   11   32 1   
    23   12   13 1   
    24   12   33 1   
    25   12   34 1   
    26   13   14 1   
    27   13   15 1   
    28   13   35 1   
    29   14   36 1   
    30   14   37 1   
    31   14   38 1   
    32   15   39 1   
    33   15   40 1   
    34   15   41 1   
    35   16   17 2   
    36   16   18 1   
    37   18   19 1   
    38   18   42 1   
    39   18   51 1   
    40   19   20 1   
    41   19   22 1   
    42   19   43 1   
    43   20   21 1   
    44   20   44 1   
    45   20   45 1   
    46   21   23 1   
    47   22   23 1   
    48   22   46 1   
    49   22   47 1   
    50   23   24 1   
    51   23   48 1   
    52   24   49 1   
@<TRIPOS>SUBSTRUCTURE
     1 D5G         1 TEMP              0 ****  ****    0 ROOT
