@<TRIPOS>MOLECULE
D5G
   51    52     1     0     0
SMALL
bcc


@<TRIPOS>ATOM
      1 CAK        -0.7510    0.9900   -0.0540 ca        1 D5G     -0.103500
      2 CAI         0.4400    1.6810   -0.2740 ca        1 D5G     -0.102500
      3 CAH         1.6200    1.2870    0.3520 ca        1 D5G     -0.055000
      4 CAJ         1.6150    0.1870    1.2180 ca        1 D5G     -0.102500
      5 CAL         0.4440   -0.5170    1.4590 ca        1 D5G     -0.103500
      6 CAV        -0.7590   -0.1180    0.8160 ca        1 D5G     -0.056400
      7 NAP        -1.9250   -0.8700    1.1280 n         1 D5G     -0.262100
      8 CAU        -3.0730   -0.8950    0.4280 c         1 D5G      0.328400
      9 SAG        -3.5300   -0.1050   -0.8810 s         1 D5G     -0.371400
     10 N          -4.1680   -1.8170    0.9940 n4        1 D5G     -0.642800
     11 CA         -5.1080   -2.2880   -0.0890 c3        1 D5G      0.064500
     12 CB         -6.0990   -3.3220    0.4760 c3        1 D5G     -0.117400
     13 CG         -6.9410   -3.9800   -0.6120 c3        1 D5G     -0.068700
     14 CD2        -6.0960   -4.7060   -1.6370 c3        1 D5G     -0.108600
     15 CD1        -7.9050   -4.9500    0.0510 c3        1 D5G     -0.108600
     16 C          -5.8960   -1.0830   -0.6380 c         1 D5G      0.547100
     17 O          -6.5140   -0.3120    0.0900 o         1 D5G     -0.428100
     18 NAQ        -6.0840   -1.0240   -2.1170 n4        1 D5G     -0.659800
     19 CAZ        -7.1760   -0.0760   -2.5670 c3        1 D5G      0.097500
     20 CAX        -8.5820   -0.6490   -2.2520 c3        1 D5G      0.111400
     21 OAF        -8.9110   -1.5240   -3.3330 os        1 D5G     -0.426600
     22 CAN        -7.2000   -0.0370   -4.1100 c3        1 D5G     -0.133400
     23 CAM        -8.0430   -1.2810   -4.4480 c3        1 D5G      0.320900
     24 OAE        -7.1720   -2.3900   -4.4060 oh        1 D5G     -0.667800
     25 HAK        -1.6670    1.3370   -0.5620 ha        1 D5G      0.160500
     26 HAI         0.4380    2.5510   -0.9520 ha        1 D5G      0.177000
     27 HAH         2.5580    1.8400    0.1700 ha        1 D5G      0.180000
     28 HAJ         2.5490   -0.1260    1.7170 ha        1 D5G      0.177000
     29 HAL         0.4690   -1.3770    2.1480 ha        1 D5G      0.160500
     30 HAP        -1.8120   -1.4470    1.9480 hn        1 D5G      0.352500
     31 HN         -4.7090   -1.2840    1.6950 hn        1 D5G      0.473800
     32 HA         -4.4740   -2.7740   -0.8940 hx        1 D5G      0.145700
     33 HB1        -6.7820   -2.8250    1.2180 hc        1 D5G      0.095700
     34 HB2        -5.5290   -4.1320    1.0100 hc        1 D5G      0.095700
     35 HG         -7.5550   -3.1880   -1.1290 hc        1 D5G      0.040700
     36 HD21       -5.5290   -3.9930   -2.2830 hc        1 D5G      0.060367
     37 HD22       -5.3730   -5.3990   -1.1420 hc        1 D5G      0.060367
     38 HD23       -6.7550   -5.3200   -2.3030 hc        1 D5G      0.060367
     39 HD11       -8.5270   -4.4280    0.8180 hc        1 D5G      0.060367
     40 HD12       -7.3500   -5.7850    0.5430 hc        1 D5G      0.060367
     41 HD13       -8.5880   -5.3880   -0.7190 hc        1 D5G      0.060367
     42 HAQ        -6.3290   -1.9700   -2.4810 hn        1 D5G      0.487800
     43 HAZ        -7.0000    0.9230   -2.0860 hx        1 D5G      0.144700
     44 HAX1       -9.3250    0.1920   -2.2260 h1        1 D5G      0.098700
     45 HAX2       -8.6460   -1.2460   -1.3090 h1        1 D5G      0.098700
     46 HAN1       -7.7290    0.8940   -4.4420 hc        1 D5G      0.119200
     47 HAN2       -6.1980   -0.0690   -4.5990 hc        1 D5G      0.119200
     48 HAM        -8.6590   -1.2200   -5.3800 h2        1 D5G      0.136700
     49 HAE        -7.6420   -3.1600   -4.7540 ho        1 D5G      0.462000
     50 H2         -3.7830   -2.6540    1.4530 hn        1 D5G      0.473800
     51 HAQ2       -5.1940   -0.7330   -2.5520 hn        1 D5G      0.487800
@<TRIPOS>BOND
     1    1    2 ar  
     2    1    6 ar  
     3    1   25 1   
     4    2    3 ar  
     5    2   26 1   
     6    3    4 ar  
     7    3   27 1   
     8    4    5 ar  
     9    4   28 1   
    10    5    6 ar  
    11    5   29 1   
    12    6    7 1   
    13    7    8 1   
    14    7   30 1   
    15    8    9 2   
    16    8   10 1   
    17   10   11 1   
    18   10   31 1   
    19   10   50 1   
    20   11   12 1   
    21   11   16 1   
    22   11   32 1   
    23   12   13 1   
    24   12   33 1   
    25   12   34 1   
    26   13   14 1   
    27   13   15 1   
    28   13   35 1   
    29   14   36 1   
    30   14   37 1   
    31   14   38 1   
    32   15   39 1   
    33   15   40 1   
    34   15   41 1   
    35   16   17 2   
    36   16   18 1   
    37   18   19 1   
    38   18   42 1   
    39   18   51 1   
    40   19   20 1   
    41   19   22 1   
    42   19   43 1   
    43   20   21 1   
    44   20   44 1   
    45   20   45 1   
    46   21   23 1   
    47   22   23 1   
    48   22   46 1   
    49   22   47 1   
    50   23   24 1   
    51   23   48 1   
    52   24   49 1   
@<TRIPOS>SUBSTRUCTURE
     1 D5G         1 TEMP              0 ****  ****    0 ROOT
