@<TRIPOS>MOLECULE
D5I
   43    46     1     0     0
SMALL
bcc


@<TRIPOS>ATOM
      1 O1          0.1490   -1.6820   -0.3220 o         1 D5I     -0.581100
      2 C2          0.5980   -0.5300   -0.4480 c         1 D5I      0.619100
      3 C3          2.0720   -0.1950   -0.2340 c3        1 D5I     -0.111000
      4 C4          2.8260   -1.4950    0.0780 c3        1 D5I     -0.063733
      5 C5          4.3000   -1.1950    0.3150 c3        1 D5I     -0.062033
      6 C12         4.8960   -0.5570   -0.9350 c3        1 D5I     -0.072733
      7 C10         4.1570    0.7400   -1.2440 c3        1 D5I     -0.062033
      8 C11         2.6790    0.4450   -1.4870 c3        1 D5I     -0.063733
      9 C6          4.4410   -0.2380    1.4940 c3        1 D5I     -0.072733
     10 C7          3.7010    1.0590    1.1850 c3        1 D5I     -0.062033
     11 C9          4.2970    1.6980   -0.0660 c3        1 D5I     -0.072733
     12 C8          2.2230    0.7650    0.9520 c3        1 D5I     -0.063733
     13 N13        -0.2440    0.5230   -0.9160 n         1 D5I     -0.390500
     14 N14        -1.5990    0.4120   -0.9070 n         1 D5I     -0.373500
     15 C15        -2.3580    0.6210    0.2820 c         1 D5I      0.618700
     16 O16        -1.9060    1.2820    1.2320 o         1 D5I     -0.563100
     17 C17        -3.7640    0.1340    0.2490 ca        1 D5I     -0.104600
     18 C18        -4.7990    0.9950    0.6310 ca        1 D5I     -0.207300
     19 C19        -6.1160    0.5010    0.6070 ca        1 D5I      0.391200
     20 N20        -6.4340   -0.7560    0.2420 nb        1 D5I     -0.647000
     21 C21        -5.4230   -1.5730   -0.1120 ca        1 D5I      0.391200
     22 C22        -4.0710   -1.1780   -0.1280 ca        1 D5I     -0.207300
     23 H1          2.3770   -1.9760    0.9850 hc        1 D5I      0.053367
     24 H2          2.7080   -2.2070   -0.7790 hc        1 D5I      0.053367
     25 H3          4.8390   -2.1530    0.5420 hc        1 D5I      0.055033
     26 H4          5.9840   -0.3440   -0.7720 hc        1 D5I      0.044367
     27 H5          4.8070   -1.2620   -1.8010 hc        1 D5I      0.044367
     28 H6          4.5920    1.2100   -2.1650 hc        1 D5I      0.055033
     29 H7          2.5660   -0.2520   -2.3560 hc        1 D5I      0.053367
     30 H8          2.1510    1.4010   -1.7360 hc        1 D5I      0.053367
     31 H9          4.0160   -0.7070    2.4180 hc        1 D5I      0.044367
     32 H10         5.5230   -0.0220    1.6820 hc        1 D5I      0.044367
     33 H11         3.8020    1.7650    2.0520 hc        1 D5I      0.055033
     34 H12         5.3780    1.9310    0.1060 hc        1 D5I      0.044367
     35 H13         3.7680    2.6590   -0.2910 hc        1 D5I      0.044367
     36 H14         1.6850    1.7270    0.7500 hc        1 D5I      0.053367
     37 H15         1.7770    0.3030    1.8700 hc        1 D5I      0.053367
     38 H16         0.0400    1.4410   -0.6080 hn        1 D5I      0.316500
     39 H17        -1.8900   -0.4000   -1.4330 hn        1 D5I      0.314500
     40 H18        -4.5840    2.0240    0.9500 ha        1 D5I      0.159000
     41 H19        -6.9650    1.1470    0.8970 h4        1 D5I      0.030100
     42 H20        -5.7110   -2.6000   -0.3980 h4        1 D5I      0.030100
     43 H21        -3.2900   -1.8980   -0.4100 ha        1 D5I      0.159000
@<TRIPOS>BOND
     1    1    2 2   
     2    2    3 1   
     3    2   13 1   
     4    3    4 1   
     5    3    8 1   
     6    3   12 1   
     7    4    5 1   
     8    4   23 1   
     9    4   24 1   
    10    5    6 1   
    11    5    9 1   
    12    5   25 1   
    13    6    7 1   
    14    6   26 1   
    15    6   27 1   
    16    7    8 1   
    17    7   11 1   
    18    7   28 1   
    19    8   29 1   
    20    8   30 1   
    21    9   10 1   
    22    9   31 1   
    23    9   32 1   
    24   10   11 1   
    25   10   12 1   
    26   10   33 1   
    27   11   34 1   
    28   11   35 1   
    29   12   36 1   
    30   12   37 1   
    31   13   14 1   
    32   13   38 1   
    33   14   15 1   
    34   14   39 1   
    35   15   16 2   
    36   15   17 1   
    37   17   18 ar  
    38   17   22 ar  
    39   18   19 ar  
    40   18   40 1   
    41   19   20 ar  
    42   19   41 1   
    43   20   21 ar  
    44   21   22 ar  
    45   21   42 1   
    46   22   43 1   
@<TRIPOS>SUBSTRUCTURE
     1 D5I         1 TEMP              0 ****  ****    0 ROOT
