@<TRIPOS>MOLECULE
D5I
   45    47     1     0     0
SMALL
bcc


@<TRIPOS>ATOM
      1 O1        -49.6520    1.4620  509.0650 o         1 D5I      0.095000
      2 C2        -48.5380    1.4580  509.3750 c1        1 D5I      0.440000
      3 C3        -47.1370    1.4520  509.7650 c3        1 D5I     -0.042000
      4 C4        -47.0450    1.4680  511.3060 c3        1 D5I     -0.150000
      5 C5        -45.5680    1.4620  511.6940 c3        1 D5I     -0.099000
      6 C12       -44.9000    0.2050  511.1500 c3        1 D5I     -0.165000
      7 C10       -44.9980    0.1910  509.6290 c3        1 D5I     -0.099000
      8 C11       -46.4660    0.1770  509.2090 c3        1 D5I     -0.150000
      9 C6        -44.8830    2.6990  511.1240 c3        1 D5I     -0.165000
     10 C7        -44.9810    2.6820  509.6030 c3        1 D5I     -0.099000
     11 C9        -44.3120    1.4260  509.0560 c3        1 D5I     -0.165000
     12 C8        -46.4490    2.7060  509.1830 c3        1 D5I     -0.150000
     13 N13        70.8530   -2.2370 -763.9930 n3        1 D5I     -0.234000
     14 N14        71.7930   -2.1810 -765.0210 n4        1 D5I     -0.058000
     15 C15        73.2890   -1.9780 -764.6800 c2        1 D5I      0.287000
     16 O16        73.5290   -1.7400 -763.5070 o         1 D5I     -0.165000
     17 C17        74.2150   -2.1200 -765.8030 c2        1 D5I     -0.143000
     18 C18        75.5730   -2.2920 -765.4890 c2        1 D5I     -0.126500
     19 C19        76.4900   -2.4220 -766.5550 c2        1 D5I     -0.043000
     20 N20        76.1300   -2.3860 -767.8480 n2        1 D5I     -0.060000
     21 C21        74.8230   -2.2130 -768.1330 c2        1 D5I     -0.043000
     22 C22        73.8250   -2.0750 -767.1520 c2        1 D5I     -0.126500
     23 H1        -47.5400    2.3880  511.7100 hc        1 D5I      0.114000
     24 H2        -47.5520    0.5630  511.7290 hc        1 D5I      0.114000
     25 H3        -45.4990    1.4740  512.8160 hc        1 D5I      0.134000
     26 H4        -45.3890   -0.7080  511.5770 hc        1 D5I      0.111000
     27 H5        -43.8220    0.1890  511.4570 hc        1 D5I      0.111000
     28 H6        -44.5070   -0.7370  509.2250 hc        1 D5I      0.134000
     29 H7        -46.9710   -0.7330  509.6240 hc        1 D5I      0.114000
     30 H8        -46.5410    0.1620  508.0910 hc        1 D5I      0.114000
     31 H9        -43.8050    2.7070  511.4310 hc        1 D5I      0.111000
     32 H10       -45.3600    3.6270  511.5310 hc        1 D5I      0.111000
     33 H11       -44.4790    3.5950  509.1800 hc        1 D5I      0.134000
     34 H12       -43.2290    1.4220  509.3440 hc        1 D5I      0.111000
     35 H13       -44.3680    1.4150  507.9370 hc        1 D5I      0.111000
     36 H14       -46.9420    3.6310  509.5780 hc        1 D5I      0.114000
     37 H15       -46.5240    2.7000  508.0650 hc        1 D5I      0.114000
     38 H16        70.8910   -1.3830 -763.4410 hn        1 D5I      0.213000
     39 H17        71.5070   -1.4040 -765.6460 hn        1 D5I      0.276500
     40 H18        75.9210   -2.3200 -764.4440 ha        1 D5I      0.163000
     41 H19        77.5720   -2.5600 -766.3520 h4        1 D5I      0.202500
     42 H20        74.5660   -2.1820 -769.2110 h4        1 D5I      0.202500
     43 H21        72.7880   -1.9190 -767.4770 ha        1 D5I      0.163000
     44 H132       71.0590   -3.0190 -763.3760 hn        1 D5I      0.213000
     45 H142       71.7090   -3.0600 -765.5640 hn        1 D5I      0.276500
@<TRIPOS>BOND
     1    1    2 1   
     2    2    3 1   
     3    3    4 1   
     4    3    8 1   
     5    3   12 1   
     6    4    5 1   
     7    4   23 1   
     8    4   24 1   
     9    5    6 1   
    10    5    9 1   
    11    5   25 1   
    12    6    7 1   
    13    6   26 1   
    14    6   27 1   
    15    7    8 1   
    16    7   11 1   
    17    7   28 1   
    18    8   29 1   
    19    8   30 1   
    20    9   10 1   
    21    9   31 1   
    22    9   32 1   
    23   10   11 1   
    24   10   12 1   
    25   10   33 1   
    26   11   34 1   
    27   11   35 1   
    28   12   36 1   
    29   12   37 1   
    30   13   14 1   
    31   13   38 1   
    32   13   44 1   
    33   14   15 1   
    34   14   39 1   
    35   14   45 1   
    36   15   16 1   
    37   15   17 1   
    38   17   18 1   
    39   17   22 1   
    40   18   19 1   
    41   18   40 1   
    42   19   20 1   
    43   19   41 1   
    44   20   21 1   
    45   21   22 1   
    46   21   42 1   
    47   22   43 1   
@<TRIPOS>SUBSTRUCTURE
     1 D5I         1 TEMP              0 ****  ****    0 ROOT
