@<TRIPOS>MOLECULE
D5I
   45    47     1     0     0
SMALL
bcc


@<TRIPOS>ATOM
      1 O1        -49.0830   -3.0530  511.9060 o         1 D5I      0.095000
      2 C2        -48.7730   -2.5850  510.8960 c1        1 D5I      0.440000
      3 C3        -48.3830   -1.9960  509.6240 c3        1 D5I     -0.042000
      4 C4        -46.8450   -2.0480  509.4980 c3        1 D5I     -0.150000
      5 C5        -46.4560   -1.4250  508.1590 c3        1 D5I     -0.099000
      6 C12       -47.0940   -2.2160  507.0220 c3        1 D5I     -0.165000
      7 C10       -48.6120   -2.1670  507.1540 c3        1 D5I     -0.099000
      8 C11       -49.0330   -2.8010  508.4780 c3        1 D5I     -0.150000
      9 C6        -46.9300    0.0220  508.1100 c3        1 D5I     -0.165000
     10 C7        -48.4480    0.0690  508.2400 c3        1 D5I     -0.099000
     11 C9        -49.0880   -0.7200  507.1040 c3        1 D5I     -0.165000
     12 C8        -48.8670   -0.5310  509.5810 c3        1 D5I     -0.150000
     13 N13        79.3250    3.2760 -765.3400 n3        1 D5I     -0.234000
     14 N14        78.6140    2.8930 -764.2030 n4        1 D5I     -0.058000
     15 C15        77.1110    2.5450 -764.3240 c2        1 D5I      0.287000
     16 O16        76.6180    2.7380 -765.4230 o         1 D5I     -0.165000
     17 C17        76.4850    2.0160 -763.1120 c2        1 D5I     -0.143000
     18 C18        75.2020    1.4620 -763.2540 c2        1 D5I     -0.126500
     19 C19        74.5680    0.9490 -762.1010 c2        1 D5I     -0.043000
     20 N20        75.1270    0.9680 -760.8800 n2        1 D5I     -0.060000
     21 C21        76.3580    1.5080 -760.7600 c2        1 D5I     -0.043000
     22 C22        77.0800    2.0450 -761.8410 c2        1 D5I     -0.126500
     23 H1        -46.3730   -1.4720  510.3350 hc        1 D5I      0.114000
     24 H2        -46.4930   -3.1100  509.5390 hc        1 D5I      0.114000
     25 H3        -45.3370   -1.4620  508.0650 hc        1 D5I      0.134000
     26 H4        -46.7390   -3.2790  507.0440 hc        1 D5I      0.111000
     27 H5        -46.7880   -1.7740  506.0390 hc        1 D5I      0.111000
     28 H6        -49.0850   -2.7520  506.3180 hc        1 D5I      0.134000
     29 H7        -50.1490   -2.7710  508.5750 hc        1 D5I      0.114000
     30 H8        -48.6890   -3.8660  508.5150 hc        1 D5I      0.114000
     31 H9        -46.6220    0.4860  507.1360 hc        1 D5I      0.111000
     32 H10       -46.4530    0.6130  508.9340 hc        1 D5I      0.111000
     33 H11       -48.8000    1.1360  508.2060 hc        1 D5I      0.134000
     34 H12       -48.8000   -0.2640  506.1210 hc        1 D5I      0.111000
     35 H13       -50.2050   -0.6780  507.1850 hc        1 D5I      0.111000
     36 H14       -49.9820   -0.4930  509.6820 hc        1 D5I      0.114000
     37 H15       -48.4020    0.0510  510.4180 hc        1 D5I      0.114000
     38 H16        79.3100    2.5290 -766.0280 hn        1 D5I      0.213000
     39 H17        79.0980    2.0690 -763.8020 hn        1 D5I      0.276500
     40 H18        74.6980    1.4270 -764.2330 ha        1 D5I      0.163000
     41 H19        73.5550    0.5020 -762.1680 h4        1 D5I      0.202500
     42 H20        76.7840    1.5110 -759.7360 h4        1 D5I      0.202500
     43 H21        78.0700    2.4770 -761.6430 ha        1 D5I      0.163000
     44 H132       78.8940    4.0970 -765.7590 hn        1 D5I      0.213000
     45 H142       78.7020    3.6670 -763.5190 hn        1 D5I      0.276500
@<TRIPOS>BOND
     1    1    2 1   
     2    2    3 1   
     3    3    4 1   
     4    3    8 1   
     5    3   12 1   
     6    4    5 1   
     7    4   23 1   
     8    4   24 1   
     9    5    6 1   
    10    5    9 1   
    11    5   25 1   
    12    6    7 1   
    13    6   26 1   
    14    6   27 1   
    15    7    8 1   
    16    7   11 1   
    17    7   28 1   
    18    8   29 1   
    19    8   30 1   
    20    9   10 1   
    21    9   31 1   
    22    9   32 1   
    23   10   11 1   
    24   10   12 1   
    25   10   33 1   
    26   11   34 1   
    27   11   35 1   
    28   12   36 1   
    29   12   37 1   
    30   13   14 1   
    31   13   38 1   
    32   13   44 1   
    33   14   15 1   
    34   14   39 1   
    35   14   45 1   
    36   15   16 1   
    37   15   17 1   
    38   17   18 1   
    39   17   22 1   
    40   18   19 1   
    41   18   40 1   
    42   19   20 1   
    43   19   41 1   
    44   20   21 1   
    45   21   22 1   
    46   21   42 1   
    47   22   43 1   
@<TRIPOS>SUBSTRUCTURE
     1 D5I         1 TEMP              0 ****  ****    0 ROOT
