@<TRIPOS>MOLECULE
D5I
   45    47     1     0     0
SMALL
bcc


@<TRIPOS>ATOM
      1 O1        -38.3730    8.5210  575.8270 o         1 D5I      0.095000
      2 C2        -38.7340    8.4790  576.9240 c1        1 D5I      0.440000
      3 C3        -39.1880    8.4260  578.3060 c3        1 D5I     -0.042000
      4 C4        -40.7320    8.4400  578.3280 c3        1 D5I     -0.150000
      5 C5        -41.1870    8.3840  579.7840 c3        1 D5I     -0.099000
      6 C12       -40.6730    7.1040  580.4330 c3        1 D5I     -0.165000
      7 C10       -39.1490    7.0930  580.4040 c3        1 D5I     -0.099000
      8 C11       -38.6630    7.1280  578.9570 c3        1 D5I     -0.150000
      9 C6        -40.6500    9.5960  580.5360 c3        1 D5I     -0.165000
     10 C7        -39.1260    9.5810  580.5070 c3        1 D5I     -0.099000
     11 C9        -38.6090    8.3030  581.1570 c3        1 D5I     -0.165000
     12 C8        -38.6390    9.6550  579.0620 c3        1 D5I     -0.150000
     13 N13        66.0210  -13.1160 -872.8120 n8        1 D5I     -0.234000
     14 N14        65.5630  -13.1700 -871.4960 ny        1 D5I     -0.058000
     15 C15        64.2320  -12.4750 -871.1210 c2        1 D5I      0.287000
     16 O16        63.5850  -12.0420 -872.0610 o         1 D5I     -0.165000
     17 C17        63.9420  -12.4100 -869.6890 c2        1 D5I     -0.143000
     18 C18        62.9860  -11.4680 -869.2750 c2        1 D5I     -0.126500
     19 C19        62.6800  -11.3930 -867.8980 c2        1 D5I     -0.043000
     20 N20        63.2520  -12.1770 -866.9700 n2        1 D5I     -0.060000
     21 C21        64.1620  -13.0830 -867.3860 c2        1 D5I     -0.043000
     22 C22        64.5440  -13.2410 -868.7300 c2        1 D5I     -0.126500
     23 H1        -41.1300    7.5530  577.7710 hc        1 D5I      0.114000
     24 H2        -41.1130    9.3770  577.8460 hc        1 D5I      0.114000
     25 H3        -42.3110    8.3940  579.8020 hc        1 D5I      0.134000
     26 H4        -41.0770    6.2090  579.8940 hc        1 D5I      0.111000
     27 H5        -41.0290    7.0520  581.4950 hc        1 D5I      0.111000
     28 H6        -38.7680    6.1480  580.8810 hc        1 D5I      0.134000
     29 H7        -37.5430    7.1140  578.9330 hc        1 D5I      0.114000
     30 H8        -39.0530    6.2370  578.4030 hc        1 D5I      0.114000
     31 H9        -41.0050    9.5670  581.5980 hc        1 D5I      0.111000
     32 H10       -41.0360   10.5400  580.0720 hc        1 D5I      0.111000
     33 H11       -38.7270   10.4760  581.0590 hc        1 D5I      0.134000
     34 H12       -38.9460    8.2620  582.2250 hc        1 D5I      0.111000
     35 H13       -37.4890    8.2930  581.1520 hc        1 D5I      0.111000
     36 H14       -39.0120   10.5970  578.5830 hc        1 D5I      0.114000
     37 H15       -37.5190    9.6510  579.0380 hc        1 D5I      0.114000
     38 H16        66.1800  -12.1500 -873.0860 hn        1 D5I      0.213000
     39 H17        66.3080  -12.7720 -870.8940 hn        1 D5I      0.276500
     40 H18        62.4810  -10.8070 -869.9980 ha        1 D5I      0.163000
     41 H19        61.9320  -10.6630 -867.5280 h4        1 D5I      0.202500
     42 H20        64.6060  -13.7180 -866.5920 h4        1 D5I      0.202500
     43 H21        65.2770  -14.0190 -868.9790 ha        1 D5I      0.163000
     44 H132       65.3240  -13.5100 -873.4380 hn        1 D5I      0.213000
     45 H142       65.4730  -14.1740 -871.2510 hn        1 D5I      0.276500
@<TRIPOS>BOND
     1    1    2 1   
     2    2    3 1   
     3    3    4 1   
     4    3    8 1   
     5    3   12 1   
     6    4    5 1   
     7    4   23 1   
     8    4   24 1   
     9    5    6 1   
    10    5    9 1   
    11    5   25 1   
    12    6    7 1   
    13    6   26 1   
    14    6   27 1   
    15    7    8 1   
    16    7   11 1   
    17    7   28 1   
    18    8   29 1   
    19    8   30 1   
    20    9   10 1   
    21    9   31 1   
    22    9   32 1   
    23   10   11 1   
    24   10   12 1   
    25   10   33 1   
    26   11   34 1   
    27   11   35 1   
    28   12   36 1   
    29   12   37 1   
    30   13   14 1   
    31   13   38 1   
    32   13   44 1   
    33   14   15 1   
    34   14   39 1   
    35   14   45 1   
    36   15   16 1   
    37   15   17 1   
    38   17   18 1   
    39   17   22 1   
    40   18   19 1   
    41   18   40 1   
    42   19   20 1   
    43   19   41 1   
    44   20   21 1   
    45   21   22 1   
    46   21   42 1   
    47   22   43 1   
@<TRIPOS>SUBSTRUCTURE
     1 D5I         1 TEMP              0 ****  ****    0 ROOT
