@<TRIPOS>MOLECULE
D5M
   34    36     1     0     0
SMALL
bcc


@<TRIPOS>ATOM
      1 O5'        -0.6250    0.2350    0.8100 os        1 D5M     -0.580200
      2 C5'         0.2330   -0.8600    0.6930 c3        1 D5M      0.197400
      3 C4'         1.4850   -0.6970    1.5700 c3        1 D5M      0.086100
      4 O4'         1.6840   -1.9130    2.2990 os        1 D5M     -0.435600
      5 C3'         2.7710   -0.4010    0.7710 c3        1 D5M      0.140100
      6 O3'         3.2060    0.9330    0.9600 oh        1 D5M     -0.645800
      7 C2'         3.8310   -1.3450    1.3360 c3        1 D5M     -0.109400
      8 C1'         3.0920   -2.2690    2.3310 c3        1 D5M      0.277800
      9 N9          3.2820   -3.6690    2.0840 nh        1 D5M     -0.261200
     10 C8          3.6050   -4.2960    0.8400 c1        1 D5M      0.079400
     11 N7          3.6750   -5.6390    0.9760 ne        1 D5M     -0.684800
     12 C5          3.3920   -5.9330    2.3090 ca        1 D5M     -0.121200
     13 C6          3.3120   -7.1380    3.0530 ca        1 D5M      0.568200
     14 N6          3.6400   -8.3750    2.4330 nv        1 D5M     -0.897500
     15 N1          2.9750   -7.1070    4.3840 nb        1 D5M     -0.780000
     16 C2          2.7720   -5.8860    4.9370 ca        1 D5M      0.573900
     17 N3          2.8270   -4.6500    4.3740 nb        1 D5M     -0.718000
     18 C4          3.1270   -4.6770    3.0520 ca        1 D5M      0.382800
     19 P          -0.6100    1.3600   -0.3910 p5        1 D5M      1.441800
     20 O1P        -1.6840    2.3370   -0.1370 o         1 D5M     -0.850000
     21 O3P        -0.9890    0.4240   -1.6780 oh        1 D5M     -0.788400
     22 O2P         0.8200    1.6670   -0.6480 o         1 D5M     -0.850000
     23 H5'1       -0.3320   -1.7690    1.0440 h1        1 D5M      0.030700
     24 H5'2        0.5240   -1.0000   -0.3840 h1        1 D5M      0.030700
     25 H4'         1.3100    0.1160    2.3280 h1        1 D5M      0.059700
     26 H1          2.6080   -0.5880   -0.3260 h1        1 D5M      0.053700
     27 H3'         2.5900    1.4940    0.4590 ho        1 D5M      0.457000
     28 H2'1        4.3100   -1.9300    0.5110 hc        1 D5M      0.068700
     29 H2'2        4.6220   -0.7700    1.8770 hc        1 D5M      0.068700
     30 H1'         3.4180   -2.0500    3.3930 h2        1 D5M      0.044700
     31 H8         -0.2200    0.1970   -2.1890 ho        1 D5M      0.425000
     32 HN61        3.0650   -9.1260    2.7550 hn        1 D5M      0.364800
     33 HN62        3.5840   -8.2870    1.4370 hn        1 D5M      0.364800
     34 H2          2.5130   -5.8990    6.0130 h5        1 D5M      0.005100
@<TRIPOS>BOND
     1    1    2 1   
     2    1   19 1   
     3    2    3 1   
     4    2   23 1   
     5    2   24 1   
     6    3    4 1   
     7    3    5 1   
     8    3   25 1   
     9    4    8 1   
    10    5    6 1   
    11    5    7 1   
    12    5   26 1   
    13    6   27 1   
    14    7    8 1   
    15    7   28 1   
    16    7   29 1   
    17    8    9 1   
    18    8   30 1   
    19    9   10 2   
    20    9   18 1   
    21   10   11 2   
    22   11   12 1   
    23   12   13 ar  
    24   12   18 ar  
    25   13   14 1   
    26   13   15 ar  
    27   14   32 1   
    28   14   33 1   
    29   15   16 ar  
    30   16   17 ar  
    31   16   34 1   
    32   17   18 ar  
    33   19   20 1   
    34   19   21 1   
    35   19   22 1   
    36   21   31 1   
@<TRIPOS>SUBSTRUCTURE
     1 D5M         1 TEMP              0 ****  ****    0 ROOT
