@<TRIPOS>MOLECULE
D5M
   34    36     1     0     0
SMALL
bcc


@<TRIPOS>ATOM
      1 O5'        -0.4900    0.3240    0.6720 os        1 D5M     -0.580200
      2 C5'         0.3220   -0.8100    0.6050 c3        1 D5M      0.197400
      3 C4'         1.5660   -0.6710    1.4970 c3        1 D5M      0.086100
      4 O4'         1.7010   -1.8690    2.2690 os        1 D5M     -0.435600
      5 C3'         2.8760   -0.4550    0.7110 c3        1 D5M      0.140100
      6 O3'         3.3650    0.8640    0.8650 oh        1 D5M     -0.645800
      7 C2'         3.8860   -1.4250    1.3250 c3        1 D5M     -0.109400
      8 C1'         3.0920   -2.2830    2.3360 c3        1 D5M      0.277800
      9 N9          3.2250   -3.6970    2.1380 nh        1 D5M     -0.261200
     10 C8          3.5410   -4.3790    0.9200 c1        1 D5M      0.079400
     11 N7          3.5500   -5.7180    1.1020 ne        1 D5M     -0.684800
     12 C5          3.2340   -5.9550    2.4390 ca        1 D5M     -0.121200
     13 C6          3.0910   -7.1310    3.2190 ca        1 D5M      0.568200
     14 N6          3.3760   -8.4000    2.6450 nh        1 D5M     -0.897500
     15 N1          2.7350   -7.0410    4.5430 nb        1 D5M     -0.780000
     16 C2          2.5760   -5.7950    5.0530 ca        1 D5M      0.573900
     17 N3          2.6930   -4.5820    4.4510 nb        1 D5M     -0.718000
     18 C4          3.0120   -4.6650    3.1350 ca        1 D5M      0.382800
     19 P          -0.4080    1.4070   -0.5640 p5        1 D5M      1.441800
     20 O1P        -1.4420    2.4370   -0.3620 o         1 D5M     -0.850000
     21 O3P        -0.8050    0.4460   -1.8270 oh        1 D5M     -0.788400
     22 O2P         1.0380    1.6450   -0.8060 o         1 D5M     -0.850000
     23 H5'1        0.6240   -0.9970   -0.4620 h1        1 D5M      0.030700
     24 H5'2       -0.2870   -1.6820    0.9750 h1        1 D5M      0.030700
     25 H4'         1.4140    0.1730    2.2260 h1        1 D5M      0.059700
     26 H1          2.7220   -0.6710   -0.3810 h1        1 D5M      0.053700
     27 H3'         2.7810    1.4340    0.3350 ho        1 D5M      0.457000
     28 H2'1        4.6920   -0.8660    1.8600 hc        1 D5M      0.068700
     29 H2'2        4.3510   -2.0570    0.5270 hc        1 D5M      0.068700
     30 H1'         3.4110   -2.0430    3.3960 h2        1 D5M      0.044700
     31 H8         -0.0390    0.1700   -2.3170 ho        1 D5M      0.425000
     32 HN61        2.7650   -9.1150    2.9820 hn        1 D5M      0.364800
     33 HN62        3.3400   -8.3440    1.6470 hn        1 D5M      0.364800
     34 H2          2.3010   -5.7620    6.1240 h5        1 D5M      0.005100
@<TRIPOS>BOND
     1    1    2 1   
     2    1   19 1   
     3    2    3 1   
     4    2   23 1   
     5    2   24 1   
     6    3    4 1   
     7    3    5 1   
     8    3   25 1   
     9    4    8 1   
    10    5    6 1   
    11    5    7 1   
    12    5   26 1   
    13    6   27 1   
    14    7    8 1   
    15    7   28 1   
    16    7   29 1   
    17    8    9 1   
    18    8   30 1   
    19    9   10 2   
    20    9   18 1   
    21   10   11 2   
    22   11   12 1   
    23   12   13 ar  
    24   12   18 ar  
    25   13   14 1   
    26   13   15 ar  
    27   14   32 1   
    28   14   33 1   
    29   15   16 ar  
    30   16   17 ar  
    31   16   34 1   
    32   17   18 ar  
    33   19   20 1   
    34   19   21 1   
    35   19   22 1   
    36   21   31 1   
@<TRIPOS>SUBSTRUCTURE
     1 D5M         1 TEMP              0 ****  ****    0 ROOT
