@<TRIPOS>MOLECULE
D5M
   34    32     1     0     0
SMALL
bcc


@<TRIPOS>ATOM
      1 O5'        -0.6300    2.8150   -0.3480 os        1 D5M     -0.553200
      2 C5'         0.5130    1.9750   -0.2710 c3        1 D5M      0.226400
      3 C4'         0.9980    1.9050    1.1880 c3        1 D5M      0.052100
      4 O4'        -0.0170    1.0130    2.0660 os        1 D5M     -0.435600
      5 C3'         2.1400    1.3180    1.2480 c3        1 D5M      0.156100
      6 O3'         2.9400    1.8580    2.3900 oh        1 D5M     -0.671800
      7 C2'         1.8080   -0.1940    1.4900 c3        1 D5M     -0.129400
      8 C1'         0.3150   -0.2350    1.8510 c3        1 D5M      0.254800
      9 N9         -0.4470   -0.7740    0.7600 n3        1 D5M     -0.101400
     10 C8         -1.7440   -0.4280    0.9050 c1        1 D5M      0.228400
     11 N7         -2.4970   -1.3070    0.1900 ne        1 D5M     -0.437400
     12 C5         -1.6560   -2.1980   -0.3980 cg        1 D5M     -0.159000
     13 C6         -1.8810   -3.2470   -1.2810 c1        1 D5M      0.557600
     14 N6         -2.9610   -3.6700   -2.1440 n3        1 D5M     -0.793400
     15 N1         -0.8410   -3.9360   -1.7860 n1        1 D5M     -0.603800
     16 C2          0.4410   -3.6030   -1.4300 c1        1 D5M      0.361300
     17 N3          0.6650   -2.5740   -0.5640 n1        1 D5M     -0.513800
     18 C4         -0.3910   -1.8710   -0.0480 c1        1 D5M     -0.017300
     19 P          -0.6730    3.9460   -1.4760 p5        1 D5M      1.330900
     20 O1P        -1.9890    4.6750   -1.4040 o         1 D5M     -0.929833
     21 O3P        -0.5250    3.3120   -2.8290 o         1 D5M     -0.929833
     22 O2P         0.4480    4.9160   -1.2550 o         1 D5M     -0.929833
     23 H5'1        1.2300    2.3420   -0.8380 h1        1 D5M     -0.004800
     24 H5'2        0.2790    1.0740   -0.5810 h1        1 D5M     -0.004800
     25 H4'         1.0640    2.8120    1.5660 h1        1 D5M      0.080700
     26 H1          2.6220    1.4280    0.4130 h1        1 D5M      0.104700
     27 H3'         3.7470    2.0750    2.1080 ho        1 D5M      0.501000
     28 H2'1        1.9740   -0.7120    0.6730 hc        1 D5M      0.054200
     29 H2'2        2.3540   -0.5510    2.2420 hc        1 D5M      0.054200
     30 H1'         0.1740   -0.7750    2.6710 h2        1 D5M      0.070700
     31 H8         -2.0870    0.3240    1.4500 DU        1 D5M      0.257000
     32 HN61       -2.9110   -4.4790   -2.5820 hn        1 D5M      0.408300
     33 HN62       -3.7030   -3.1340   -2.2490 hn        1 D5M      0.408300
     34 H2          1.2390   -4.0960   -1.7280 ha        1 D5M      0.107500
@<TRIPOS>BOND
     1    1    2 1   
     2    1   19 1   
     3    2    3 1   
     4    2   23 1   
     5    2   24 1   
     6    3    4 1   
     7    3    5 1   
     8    3   25 1   
     9    4    8 1   
    10    5    6 1   
    11    5    7 1   
    12    5   26 1   
    13    6   27 1   
    14    7    8 1   
    15    7   28 1   
    16    7   29 1   
    17    8    9 1   
    18    8   30 1   
    19    9   10 2   
    20    9   18 1   
    21   10   11 2   
    22   11   12 1   
    23   12   18 3   
    24   13   14 1   
    25   13   15 3   
    26   14   32 1   
    27   14   33 1   
    28   16   17 3   
    29   16   34 1   
    30   19   20 1   
    31   19   21 1   
    32   19   22 1   
@<TRIPOS>SUBSTRUCTURE
     1 D5M         1 TEMP              0 ****  ****    0 ROOT
