@<TRIPOS>MOLECULE
D5M
   34    36     1     0     0
SMALL
bcc


@<TRIPOS>ATOM
      1 O5'        -0.5600    0.2390    0.6120 os        1 D5M     -0.580200
      2 C5'         0.2890   -0.8690    0.5630 c3        1 D5M      0.197400
      3 C4'         1.5080   -0.6910    1.4830 c3        1 D5M      0.086100
      4 O4'         1.6640   -1.8850    2.2580 os        1 D5M     -0.435600
      5 C3'         2.8280   -0.4340    0.7260 c3        1 D5M      0.140100
      6 O3'         3.2710    0.9000    0.8900 oh        1 D5M     -0.645800
      7 C2'         3.8530   -1.3710    1.3620 c3        1 D5M     -0.109400
      8 C1'         3.0650   -2.2550    2.3560 c3        1 D5M      0.277800
      9 N9          3.2470   -3.6630    2.1620 nh        1 D5M     -0.261200
     10 C8          3.6110   -4.3340    0.9520 c1        1 D5M      0.079400
     11 N7          3.6590   -5.6730    1.1330 ne        1 D5M     -0.684800
     12 C5          3.3210   -5.9200    2.4630 ca        1 D5M     -0.121200
     13 C6          3.1980   -7.1000    3.2410 ca        1 D5M      0.568200
     14 N6          3.5360   -8.3600    2.6740 nh        1 D5M     -0.897500
     15 N1          2.8110   -7.0220    4.5560 nb        1 D5M     -0.780000
     16 C2          2.6010   -5.7820    5.0620 ca        1 D5M      0.573900
     17 N3          2.6930   -4.5650    4.4620 nb        1 D5M     -0.718000
     18 C4          3.0430   -4.6380    3.1540 ca        1 D5M      0.382800
     19 P          -0.4840    1.3250   -0.6230 p5        1 D5M      1.441800
     20 O1P        -1.5550    2.3210   -0.4430 o         1 D5M     -0.850000
     21 O3P        -0.8230    0.3520   -1.8940 oh        1 D5M     -0.788400
     22 O2P         0.9580    1.6080   -0.8330 o         1 D5M     -0.850000
     23 H5'1       -0.3000   -1.7600    0.9200 h1        1 D5M      0.030700
     24 H5'2        0.6210   -1.0460   -0.4970 h1        1 D5M      0.030700
     25 H4'         1.3130    0.1480    2.2080 h1        1 D5M      0.059700
     26 H1          2.7050   -0.6540   -0.3690 h1        1 D5M      0.053700
     27 H3'         2.6810    1.4520    0.3480 ho        1 D5M      0.457000
     28 H2'1        4.6290   -0.7880    1.9150 hc        1 D5M      0.068700
     29 H2'2        4.3560   -1.9880    0.5760 hc        1 D5M      0.068700
     30 H1'         3.3520   -2.0050    3.4230 h2        1 D5M      0.044700
     31 H8         -0.0380    0.1000   -2.3670 ho        1 D5M      0.425000
     32 HN61        3.5190   -8.3040    1.6740 hn        1 D5M      0.364800
     33 HN62        2.9400   -9.0940    2.9980 hn        1 D5M      0.364800
     34 H2          2.3010   -5.7580    6.1270 h5        1 D5M      0.005100
@<TRIPOS>BOND
     1    1    2 1   
     2    1   19 1   
     3    2    3 1   
     4    2   23 1   
     5    2   24 1   
     6    3    4 1   
     7    3    5 1   
     8    3   25 1   
     9    4    8 1   
    10    5    6 1   
    11    5    7 1   
    12    5   26 1   
    13    6   27 1   
    14    7    8 1   
    15    7   28 1   
    16    7   29 1   
    17    8    9 1   
    18    8   30 1   
    19    9   10 2   
    20    9   18 1   
    21   10   11 2   
    22   11   12 1   
    23   12   13 ar  
    24   12   18 ar  
    25   13   14 1   
    26   13   15 ar  
    27   14   32 1   
    28   14   33 1   
    29   15   16 ar  
    30   16   17 ar  
    31   16   34 1   
    32   17   18 ar  
    33   19   20 1   
    34   19   21 1   
    35   19   22 1   
    36   21   31 1   
@<TRIPOS>SUBSTRUCTURE
     1 D5M         1 TEMP              0 ****  ****    0 ROOT
