@<TRIPOS>MOLECULE
D5M
   34    36     1     0     0
SMALL
bcc


@<TRIPOS>ATOM
      1 O5'         2.7440   -1.2340   -3.6220 os        1 D5M     -0.585200
      2 C5'         2.0470   -0.3860   -2.7590 c3        1 D5M      0.183400
      3 C4'         2.4230   -0.6980   -1.3020 c3        1 D5M      0.087100
      4 O4'         2.6200    0.5270   -0.5800 os        1 D5M     -0.442600
      5 C3'         1.3450   -1.5150   -0.5600 c3        1 D5M      0.101100
      6 O3'         1.9250   -2.5290    0.2480 oh        1 D5M     -0.608800
      7 C2'         0.6190   -0.4800    0.3010 c3        1 D5M     -0.142400
      8 C1'         1.6580    0.6450    0.5060 c3        1 D5M      0.273800
      9 N9          1.1070    1.9610    0.5990 nh        1 D5M     -0.259200
     10 C8         -0.1540    2.4160    0.0980 c1        1 D5M      0.089400
     11 N7         -0.3340    3.7290    0.3600 ne        1 D5M     -0.683800
     12 C5          0.8030    4.1760    1.0310 ca        1 D5M     -0.118200
     13 C6          1.2020    5.4320    1.5570 ca        1 D5M      0.569200
     14 N6          0.3040    6.5330    1.5170 nh        1 D5M     -0.897500
     15 N1          2.4300    5.5690    2.1580 nb        1 D5M     -0.779000
     16 C2          3.1960    4.4550    2.2520 ca        1 D5M      0.572900
     17 N3          2.9550    3.1880    1.8210 nb        1 D5M     -0.720000
     18 C4          1.7580    3.0550    1.1970 ca        1 D5M      0.380800
     19 P           1.8610   -2.2970   -4.5200 p5        1 D5M      1.426800
     20 O1P         2.8150   -3.1890   -5.2150 o         1 D5M     -0.842500
     21 O3P         1.4040   -1.2620   -5.7030 oh        1 D5M     -0.781400
     22 O2P         0.6830   -2.7020   -3.7270 o         1 D5M     -0.842500
     23 H5'1        2.3590    0.6740   -2.9800 h1        1 D5M      0.045200
     24 H5'2        0.9390   -0.4940   -2.9150 h1        1 D5M      0.045200
     25 H4'         3.4140   -1.2290   -1.2800 h1        1 D5M      0.063700
     26 H1          0.6700   -2.0690   -1.2700 h1        1 D5M      0.140700
     27 H3'         2.5870   -2.0970    0.8020 ho        1 D5M      0.381000
     28 H2'1       -0.2850   -0.0910   -0.2340 hc        1 D5M      0.077200
     29 H2'2        0.3070   -0.9070    1.2820 hc        1 D5M      0.077200
     30 H1'         2.2680    0.4490    1.4420 h2        1 D5M      0.033700
     31 H8          2.0410   -1.2390   -6.4070 ho        1 D5M      0.418000
     32 HN61       -0.4030    6.3770    0.8260 hn        1 D5M      0.365300
     33 HN62        0.7730    7.4010    1.3550 hn        1 D5M      0.365300
     34 H2          4.1720    4.6020    2.7520 h5        1 D5M      0.005100
@<TRIPOS>BOND
     1    1    2 1   
     2    1   19 1   
     3    2    3 1   
     4    2   23 1   
     5    2   24 1   
     6    3    4 1   
     7    3    5 1   
     8    3   25 1   
     9    4    8 1   
    10    5    6 1   
    11    5    7 1   
    12    5   26 1   
    13    6   27 1   
    14    7    8 1   
    15    7   28 1   
    16    7   29 1   
    17    8    9 1   
    18    8   30 1   
    19    9   10 2   
    20    9   18 1   
    21   10   11 2   
    22   11   12 1   
    23   12   13 ar  
    24   12   18 ar  
    25   13   14 1   
    26   13   15 ar  
    27   14   32 1   
    28   14   33 1   
    29   15   16 ar  
    30   16   17 ar  
    31   16   34 1   
    32   17   18 ar  
    33   19   20 1   
    34   19   21 1   
    35   19   22 1   
    36   21   31 1   
@<TRIPOS>SUBSTRUCTURE
     1 D5M         1 TEMP              0 ****  ****    0 ROOT
