@<TRIPOS>MOLECULE
D5X
   23    21     1     0     0
SMALL
bcc


@<TRIPOS>ATOM
      1 O3P        -2.6440    3.0560    2.0000 o         1 D5X     -1.067667
      2 P          -1.8360    3.4530    0.7870 p3        1 D5X      2.545000
      3 O2P        -0.5530    4.1140    1.2310 o         1 D5X     -1.067667
      4 O1P        -2.6350    4.4190   -0.0550 o         1 D5X     -1.067667
      5 O5         -1.4990    2.1660   -0.0660 o         1 D5X     -0.755000
      6 C5         -0.5750    1.2390    0.4550 c3        1 D5X      0.027000
      7 C4         -0.4290    0.0790   -0.5040 c3        1 D5X     -0.045000
      8 O4         -1.6920   -0.4950   -0.7430 oh        1 D5X     -0.368000
      9 C3          0.4910   -0.9590    0.0960 c3        1 D5X      0.270000
     10 O3         -0.1210   -1.5300    1.2270 oh        1 D5X     -0.579500
     11 O3'         1.7020   -0.3500    0.4750 oh        1 D5X     -0.579500
     12 C2          0.7680   -2.0390   -0.9270 c2        1 D5X      0.200000
     13 O2         -0.1250   -2.4380   -1.6460 o         1 D5X     -0.383000
     14 C1          2.1590   -2.6210   -1.0540 c3        1 D5X     -0.276000
     15 H3          0.2940    1.6750    0.5750 h1        1 D5X      0.066500
     16 H4         -0.8970    0.9080    1.3190 h1        1 D5X      0.066500
     17 H5         -0.0530    0.4000   -1.3480 h1        1 D5X      0.098000
     18 H6         -2.0440   -0.1410   -1.4790 ho        1 D5X      0.201000
     19 H7          0.4230   -2.1360    1.5840 ho        1 D5X      0.233000
     20 H8          1.8880   -0.5600    1.3190 ho        1 D5X      0.233000
     21 H9          2.8160   -1.9740   -0.7210 hc        1 D5X      0.083667
     22 H10         2.3450   -2.8190   -1.9960 hc        1 D5X      0.083667
     23 H11         2.2170   -3.4460   -0.5280 hc        1 D5X      0.083667
@<TRIPOS>BOND
     1    1    2 1   
     2    2    3 1   
     3    2    4 1   
     4    5    6 1   
     5    6    7 1   
     6    6   15 1   
     7    6   16 1   
     8    7    8 1   
     9    7    9 1   
    10    7   17 1   
    11    8   18 1   
    12    9   10 1   
    13    9   11 1   
    14    9   12 1   
    15   10   19 1   
    16   11   20 1   
    17   12   13 1   
    18   12   14 1   
    19   14   21 1   
    20   14   22 1   
    21   14   23 1   
@<TRIPOS>SUBSTRUCTURE
     1 D5X         1 TEMP              0 ****  ****    0 ROOT
