@<TRIPOS>MOLECULE
D5X
   23    22     1     0     0
SMALL
bcc


@<TRIPOS>ATOM
      1 O3P         1.1470   -0.5860   -0.8670 o         1 D5X     -0.910500
      2 P           2.4710    0.1070   -0.8680 p5        1 D5X      1.322900
      3 O2P         3.5470   -0.3940    0.0470 o         1 D5X     -0.910500
      4 O1P         2.9930    0.5980   -2.2120 o         1 D5X     -0.910500
      5 O5          2.1420    1.6930   -0.2480 os        1 D5X     -0.566200
      6 C5          3.2630    2.4340    0.0280 c3        1 D5X      0.190400
      7 C4          3.5680    3.4740   -1.0850 c3        1 D5X      0.092100
      8 O4          2.6680    3.4040   -2.1630 oh        1 D5X     -0.662800
      9 C3          5.0200    3.3010   -1.6240 c3        1 D5X      0.251600
     10 O3          5.9680    3.4500   -0.5730 oh        1 D5X     -0.672800
     11 O3'         5.3130    2.0450   -2.1550 oh        1 D5X     -0.672800
     12 C2          5.3110    4.3830   -2.6710 c         1 D5X      0.595100
     13 O2          5.7620    5.5020   -2.3950 o         1 D5X     -0.597100
     14 C1          4.9540    3.9880   -4.0660 c3        1 D5X     -0.207100
     15 H3          4.1560    1.7590    0.1730 h1        1 D5X      0.004700
     16 H4          3.0950    3.0170    0.9810 h1        1 D5X      0.004700
     17 H5          3.4870    4.5190   -0.6780 h1        1 D5X      0.029700
     18 H6          2.4050    2.4540   -2.2530 ho        1 D5X      0.485000
     19 H7          6.0900    2.5680   -0.1930 ho        1 D5X      0.471500
     20 H8          4.5020    1.4490   -2.1060 ho        1 D5X      0.471500
     21 H9          5.5450    3.0820   -4.3470 hc        1 D5X      0.063700
     22 H10         3.8680    3.7030   -4.0760 hc        1 D5X      0.063700
     23 H11         5.1450    4.8120   -4.7910 hc        1 D5X      0.063700
@<TRIPOS>BOND
     1    1    2 1   
     2    2    3 1   
     3    2    4 1   
     4    2    5 1   
     5    5    6 1   
     6    6    7 1   
     7    6   15 1   
     8    6   16 1   
     9    7    8 1   
    10    7    9 1   
    11    7   17 1   
    12    8   18 1   
    13    9   10 1   
    14    9   11 1   
    15    9   12 1   
    16   10   19 1   
    17   11   20 1   
    18   12   13 2   
    19   12   14 1   
    20   14   21 1   
    21   14   22 1   
    22   14   23 1   
@<TRIPOS>SUBSTRUCTURE
     1 D5X         1 TEMP              0 ****  ****    0 ROOT
