@<TRIPOS>MOLECULE
D5X
   23    22     1     0     0
SMALL
bcc


@<TRIPOS>ATOM
      1 O3P         1.1360   -0.6150   -1.0440 o         1 D5X     -0.910500
      2 P           2.4510    0.0900   -0.9660 p5        1 D5X      1.322900
      3 O2P         3.4770   -0.4020    0.0110 o         1 D5X     -0.910500
      4 O1P         3.0470    0.5900   -2.2760 o         1 D5X     -0.910500
      5 O5          2.0710    1.6720   -0.3630 os        1 D5X     -0.566200
      6 C5          3.1660    2.4230   -0.0200 c3        1 D5X      0.190400
      7 C4          3.5270    3.4680   -1.1110 c3        1 D5X      0.092100
      8 O4          2.6930    3.3920   -2.2400 oh        1 D5X     -0.662800
      9 C3          5.0100    3.3110   -1.5630 c3        1 D5X      0.251600
     10 O3          5.8930    3.4660   -0.4580 oh        1 D5X     -0.672800
     11 O3'         5.3460    2.0590   -2.0790 oh        1 D5X     -0.672800
     12 C2          5.3520    4.3980   -2.5900 c         1 D5X      0.595100
     13 O2          5.7750    5.5200   -2.2850 o         1 D5X     -0.597100
     14 C1          5.0810    4.0020   -4.0040 c3        1 D5X     -0.207100
     15 H3          4.0560    1.7560    0.1770 h1        1 D5X      0.004700
     16 H4          2.9370    3.0020    0.9220 h1        1 D5X      0.004700
     17 H5          3.4120    4.5110   -0.7080 h1        1 D5X      0.029700
     18 H6          2.4450    2.4400   -2.3470 ho        1 D5X      0.485000
     19 H7          6.0010    2.5840   -0.0730 ho        1 D5X      0.471500
     20 H8          4.5390    1.4550   -2.0790 ho        1 D5X      0.471500
     21 H9          5.6980    3.1030   -4.2520 hc        1 D5X      0.063700
     22 H10         4.0010    3.7070   -4.0790 hc        1 D5X      0.063700
     23 H11         5.3070    4.8300   -4.7150 hc        1 D5X      0.063700
@<TRIPOS>BOND
     1    1    2 1   
     2    2    3 1   
     3    2    4 1   
     4    2    5 1   
     5    5    6 1   
     6    6    7 1   
     7    6   15 1   
     8    6   16 1   
     9    7    8 1   
    10    7    9 1   
    11    7   17 1   
    12    8   18 1   
    13    9   10 1   
    14    9   11 1   
    15    9   12 1   
    16   10   19 1   
    17   11   20 1   
    18   12   13 2   
    19   12   14 1   
    20   14   21 1   
    21   14   22 1   
    22   14   23 1   
@<TRIPOS>SUBSTRUCTURE
     1 D5X         1 TEMP              0 ****  ****    0 ROOT
