@<TRIPOS>MOLECULE
D5X
   23    22     1     0     0
SMALL
bcc


@<TRIPOS>ATOM
      1 O3P         3.3340    1.2180    0.2120 o         1 D5X     -0.910500
      2 P           2.0880    0.4620    0.5400 p5        1 D5X      1.322900
      3 O2P         2.2100   -0.8950    1.1650 o         1 D5X     -0.910500
      4 O1P         0.9060    1.2700    1.0620 o         1 D5X     -0.910500
      5 O5          1.3620    0.1160   -0.9970 os        1 D5X     -0.566200
      6 C5          0.3040   -0.7550   -0.9380 c3        1 D5X      0.190400
      7 C4         -1.0640   -0.0230   -1.0160 c3        1 D5X      0.092100
      8 O4         -0.9350    1.3750   -1.0780 oh        1 D5X     -0.662800
      9 C3         -1.9650   -0.3960    0.2000 c3        1 D5X      0.251600
     10 O3         -2.1890   -1.8010    0.2470 oh        1 D5X     -0.672800
     11 O3'        -1.4250   -0.1070    1.4520 oh        1 D5X     -0.672800
     12 C2         -3.3290    0.2890    0.0570 c         1 D5X      0.595100
     13 O2         -4.2870   -0.2080   -0.5490 o         1 D5X     -0.597100
     14 C1         -3.3930    1.6470    0.6750 c3        1 D5X     -0.207100
     15 H3          0.3500   -1.4540   -1.8240 h1        1 D5X      0.004700
     16 H4          0.3520   -1.3710    0.0070 h1        1 D5X      0.004700
     17 H5         -1.6180   -0.3260   -1.9460 h1        1 D5X      0.029700
     18 H6         -0.1310    1.6110   -0.5500 ho        1 D5X      0.485000
     19 H7         -1.4660   -2.1720    0.7720 ho        1 D5X      0.471500
     20 H8         -0.5160    0.3180    1.3500 ho        1 D5X      0.471500
     21 H9         -2.5810    2.2730    0.2170 hc        1 D5X      0.063700
     22 H10        -4.3860    2.1270    0.5190 hc        1 D5X      0.063700
     23 H11        -3.1760    1.5570    1.7680 hc        1 D5X      0.063700
@<TRIPOS>BOND
     1    1    2 1   
     2    2    3 1   
     3    2    4 1   
     4    2    5 1   
     5    5    6 1   
     6    6    7 1   
     7    6   15 1   
     8    6   16 1   
     9    7    8 1   
    10    7    9 1   
    11    7   17 1   
    12    8   18 1   
    13    9   10 1   
    14    9   11 1   
    15    9   12 1   
    16   10   19 1   
    17   11   20 1   
    18   12   13 2   
    19   12   14 1   
    20   14   21 1   
    21   14   22 1   
    22   14   23 1   
@<TRIPOS>SUBSTRUCTURE
     1 D5X         1 TEMP              0 ****  ****    0 ROOT
