@<TRIPOS>MOLECULE
D61
   84    87     1     0     0
SMALL
bcc


@<TRIPOS>ATOM
      1 C1          0.9740    0.9520   -0.4040 ca        1 D61     -0.134000
      2 C2          1.9990    1.7720    0.1270 ca        1 D61     -0.132000
      3 C3          2.3500    1.6730    1.4510 ca        1 D61     -0.117000
      4 C4          1.6920    0.7470    2.3060 ca        1 D61     -0.033000
      5 C5          0.6660   -0.0740    1.7730 ca        1 D61     -0.040000
      6 C6          0.3220    0.0490    0.3990 ca        1 D61     -0.116000
      7 C7          0.0110   -1.0010    2.6300 ca        1 D61     -0.119000
      8 C8          0.3620   -1.0990    3.9520 ca        1 D61     -0.119000
      9 C9          1.3890   -0.2780    4.4930 ca        1 D61     -0.068300
     10 C10         2.0370    0.6250    3.6790 ca        1 D61     -0.121000
     11 C11         1.7330   -0.4030    5.9360 c3        1 D61     -0.039100
     12 C12         2.4160   -1.7220    6.2430 c3        1 D61     -0.077400
     13 C13         2.7060   -1.8460    7.7240 c3        1 D61     -0.076400
     14 C14         3.3670   -3.1720    8.0360 c3        1 D61     -0.100400
     15 C15         3.6310   -3.2720    9.5340 c3        1 D61      0.131800
     16 N16         4.2530   -4.5550    9.9090 n4        1 D61     -0.715800
     17 C17         4.4960   -4.7130   11.3640 c         1 D61      0.602100
     18 O18         4.3710   -3.7410   12.1030 o         1 D61     -0.505100
     19 C19         4.8230   -6.1410   11.7800 c3        1 D61      0.049100
     20 O20         5.4260   -6.0430   13.0660 os        1 D61     -0.391600
     21 C21         5.0710   -7.1340   13.9190 c3        1 D61      0.132400
     22 C22         5.8390   -6.9220   15.2120 c3        1 D61     -0.085400
     23 C23         5.5530   -8.0470   16.1820 c3        1 D61     -0.079400
     24 C24         6.2830   -7.8360   17.4910 c3        1 D61     -0.075400
     25 C25         6.0050   -8.9740   18.4550 c3        1 D61     -0.041100
     26 C26         6.6560   -8.7570   19.7760 ca        1 D61     -0.065300
     27 C27         6.1470   -7.7490   20.6410 ca        1 D61     -0.119000
     28 C28         6.7130   -7.5290   21.8710 ca        1 D61     -0.122000
     29 C29         7.8220   -8.3050   22.3070 ca        1 D61     -0.041000
     30 C30         8.3360   -9.3110   21.4480 ca        1 D61     -0.033000
     31 C31         7.7310   -9.5180   20.1800 ca        1 D61     -0.120000
     32 C32         9.4460  -10.0870   21.8810 ca        1 D61     -0.116000
     33 C33        10.0140   -9.8680   23.1120 ca        1 D61     -0.133000
     34 C34         9.5000   -8.8650   23.9680 ca        1 D61     -0.134000
     35 C35         8.4290   -8.1000   23.5760 ca        1 D61     -0.117000
     36 C36         5.7420   -6.8920   10.7970 c3        1 D61     -0.011900
     37 O37         5.0470   -7.1550    9.5850 os        1 D61     -0.423600
     38 C38         4.1210   -8.2370    9.6320 c3        1 D61     -0.001600
     39 C39         2.6890   -7.8140    9.9760 c         1 D61      0.884600
     40 O40         2.3680   -6.5760    9.9860 o         1 D61     -0.837300
     41 O41         1.8600   -8.7210   10.2400 o         1 D61     -0.837300
     42 C42         7.0400   -6.1170   10.4080 c         1 D61      0.936600
     43 O43         6.9300   -5.0080    9.7920 o         1 D61     -0.809300
     44 O44         8.1300   -6.6410   10.7290 o         1 D61     -0.809300
     45 H1          0.7120    1.0480   -1.4680 ha        1 D61      0.127000
     46 H2          2.5080    2.4860   -0.5360 ha        1 D61      0.127000
     47 H3          3.1470    2.3040    1.8730 ha        1 D61      0.131000
     48 H6         -0.4740   -0.5950   -0.0040 ha        1 D61      0.130000
     49 H7         -0.7820   -1.6380    2.2100 ha        1 D61      0.132000
     50 H8         -0.1420   -1.8180    4.6160 ha        1 D61      0.138000
     51 H10         2.8370    1.2680    4.0790 ha        1 D61      0.133000
     52 H11         0.7910   -0.3220    6.5440 hc        1 D61      0.048200
     53 H11A        2.4030    0.4430    6.2480 hc        1 D61      0.048200
     54 H12         3.3730   -1.7960    5.6630 hc        1 D61      0.050200
     55 H12A        1.7610   -2.5710    5.9140 hc        1 D61      0.050200
     56 H13         3.3730   -1.0050    8.0500 hc        1 D61      0.042200
     57 H13A        1.7490   -1.7570    8.3040 hc        1 D61      0.042200
     58 H14         4.3300   -3.2600    7.4660 hc        1 D61      0.067700
     59 H14A        2.7000   -4.0150    7.7070 hc        1 D61      0.067700
     60 H15         4.3150   -2.4390    9.8630 hx        1 D61      0.079200
     61 H15A        2.6620   -3.1750   10.1000 hx        1 D61      0.079200
     62 HN16        3.6460   -5.3790    9.6050 hn        1 D61      0.521300
     63 H19         3.8220   -6.6750   11.8270 h1        1 D61      0.113700
     64 H21         3.9630   -7.1250   14.0990 h1        1 D61      0.034200
     65 H21A        5.3590   -8.1040   13.4350 h1        1 D61      0.034200
     66 H22         6.9360   -6.8710   14.9850 hc        1 D61      0.059700
     67 H22A        5.5470   -5.9370   15.6600 hc        1 D61      0.059700
     68 H23         5.8680   -9.0240   15.7290 hc        1 D61      0.040200
     69 H23A        4.4490   -8.1110   16.3720 hc        1 D61      0.040200
     70 H24         5.9590   -6.8650   17.9520 hc        1 D61      0.046200
     71 H24A        7.3850   -7.7620   17.3010 hc        1 D61      0.046200
     72 H25         4.8960   -9.0720   18.6050 hc        1 D61      0.049200
     73 H25A        6.3640   -9.9370   18.0020 hc        1 D61      0.049200
     74 H27         5.2910   -7.1470   20.3000 ha        1 D61      0.136000
     75 H28         6.3210   -6.7490   22.5400 ha        1 D61      0.129000
     76 H31         8.1410  -10.3010   19.5230 ha        1 D61      0.135000
     77 H32         9.8400  -10.8630   21.2070 ha        1 D61      0.132000
     78 H33        10.8730  -10.4670   23.4470 ha        1 D61      0.127000
     79 H34         9.9720   -8.7080   24.9490 ha        1 D61      0.126000
     80 H35         8.0230   -7.3170   24.2330 ha        1 D61      0.128000
     81 H36         6.0500   -7.8520   11.2970 h1        1 D61      0.063700
     82 H38         4.1320   -8.6420    8.5840 h1        1 D61      0.048200
     83 H38A        4.4640   -9.0340   10.3390 h1        1 D61      0.048200
     84 H162        5.2000   -4.6780    9.4400 hn        1 D61      0.521300
@<TRIPOS>BOND
     1    1    2 ar  
     2    1    6 ar  
     3    1   45 1   
     4    2    3 ar  
     5    2   46 1   
     6    3    4 ar  
     7    3   47 1   
     8    4    5 ar  
     9    4   10 ar  
    10    5    6 ar  
    11    5    7 ar  
    12    6   48 1   
    13    7    8 ar  
    14    7   49 1   
    15    8    9 ar  
    16    8   50 1   
    17    9   10 ar  
    18    9   11 1   
    19   10   51 1   
    20   11   12 1   
    21   11   52 1   
    22   11   53 1   
    23   12   13 1   
    24   12   54 1   
    25   12   55 1   
    26   13   14 1   
    27   13   56 1   
    28   13   57 1   
    29   14   15 1   
    30   14   58 1   
    31   14   59 1   
    32   15   16 1   
    33   15   60 1   
    34   15   61 1   
    35   16   17 1   
    36   16   62 1   
    37   16   84 1   
    38   17   18 2   
    39   17   19 1   
    40   19   20 1   
    41   19   36 1   
    42   19   63 1   
    43   20   21 1   
    44   21   22 1   
    45   21   64 1   
    46   21   65 1   
    47   22   23 1   
    48   22   66 1   
    49   22   67 1   
    50   23   24 1   
    51   23   68 1   
    52   23   69 1   
    53   24   25 1   
    54   24   70 1   
    55   24   71 1   
    56   25   26 1   
    57   25   72 1   
    58   25   73 1   
    59   26   27 ar  
    60   26   31 ar  
    61   27   28 ar  
    62   27   74 1   
    63   28   29 ar  
    64   28   75 1   
    65   29   30 ar  
    66   29   35 ar  
    67   30   31 ar  
    68   30   32 ar  
    69   31   76 1   
    70   32   33 ar  
    71   32   77 1   
    72   33   34 ar  
    73   33   78 1   
    74   34   35 ar  
    75   34   79 1   
    76   35   80 1   
    77   36   37 1   
    78   36   42 1   
    79   36   81 1   
    80   37   38 1   
    81   38   39 1   
    82   38   82 1   
    83   38   83 1   
    84   39   40 1   
    85   39   41 1   
    86   42   43 1   
    87   42   44 1   
@<TRIPOS>SUBSTRUCTURE
     1 D61         1 TEMP              0 ****  ****    0 ROOT
