@<TRIPOS>MOLECULE
D61
   84    87     1     0     0
SMALL
bcc


@<TRIPOS>ATOM
      1 C1          1.0150    1.0000   -0.3900 ca        1 D61     -0.134000
      2 C2          2.0150    1.8330    0.1690 ca        1 D61     -0.132000
      3 C3          2.3450    1.7250    1.4970 ca        1 D61     -0.117000
      4 C4          1.6870    0.7780    2.3300 ca        1 D61     -0.033000
      5 C5          0.6860   -0.0550    1.7700 ca        1 D61     -0.040000
      6 C6          0.3650    0.0770    0.3920 ca        1 D61     -0.116000
      7 C7          0.0330   -1.0030    2.6050 ca        1 D61     -0.119000
      8 C8          0.3620   -1.1090    3.9320 ca        1 D61     -0.119000
      9 C9          1.3650   -0.2760    4.5000 ca        1 D61     -0.068300
     10 C10         2.0100    0.6470    3.7080 ca        1 D61     -0.121000
     11 C11         1.6850   -0.4110    5.9480 c3        1 D61     -0.039100
     12 C12         2.3870   -1.7210    6.2530 c3        1 D61     -0.077400
     13 C13         2.6560   -1.8560    7.7370 c3        1 D61     -0.076400
     14 C14         3.3340   -3.1730    8.0450 c3        1 D61     -0.100400
     15 C15         3.5810   -3.2820    9.5460 c3        1 D61      0.131800
     16 N16         4.2180   -4.5590    9.9170 n4        1 D61     -0.715800
     17 C17         4.4580   -4.7190   11.3720 c         1 D61      0.602100
     18 O18         4.3160   -3.7530   12.1160 o         1 D61     -0.505100
     19 C19         4.8050   -6.1440   11.7830 c3        1 D61      0.049100
     20 O20         5.4040   -6.0440   13.0710 os        1 D61     -0.391600
     21 C21         5.0640   -7.1440   13.9190 c3        1 D61      0.132400
     22 C22         5.8300   -6.9270   15.2120 c3        1 D61     -0.085400
     23 C23         5.5620   -8.0620   16.1750 c3        1 D61     -0.079400
     24 C24         6.2900   -7.8480   17.4850 c3        1 D61     -0.075400
     25 C25         6.0320   -8.9960   18.4420 c3        1 D61     -0.041100
     26 C26         6.6830   -8.7770   19.7630 ca        1 D61     -0.065300
     27 C27         6.1600   -7.7840   20.6360 ca        1 D61     -0.119000
     28 C28         6.7260   -7.5630   21.8660 ca        1 D61     -0.122000
     29 C29         7.8480   -8.3240   22.2940 ca        1 D61     -0.041000
     30 C30         8.3760   -9.3150   21.4270 ca        1 D61     -0.033000
     31 C31         7.7710   -9.5240   20.1590 ca        1 D61     -0.120000
     32 C32         9.5000  -10.0760   21.8520 ca        1 D61     -0.116000
     33 C33        10.0670   -9.8550   23.0820 ca        1 D61     -0.133000
     34 C34         9.5390   -8.8660   23.9470 ca        1 D61     -0.134000
     35 C35         8.4550   -8.1170   23.5620 ca        1 D61     -0.117000
     36 C36         5.7370   -6.8780   10.7990 c3        1 D61     -0.011900
     37 O37         5.0480   -7.1460    9.5850 os        1 D61     -0.423600
     38 C38         4.1370   -8.2400    9.6240 c3        1 D61     -0.001600
     39 C39         2.6990   -7.8370    9.9670 c         1 D61      0.884600
     40 O40         2.3610   -6.6040    9.9800 o         1 D61     -0.837300
     41 O41         1.8810   -8.7570   10.2250 o         1 D61     -0.837300
     42 C42         7.0250   -6.0850   10.4170 c         1 D61      0.936600
     43 O43         6.9020   -4.9750    9.8060 o         1 D61     -0.809300
     44 O44         8.1200   -6.5950   10.7400 o         1 D61     -0.809300
     45 H1          0.7700    1.1030   -1.4570 ha        1 D61      0.127000
     46 H2          2.5230    2.5630   -0.4770 ha        1 D61      0.127000
     47 H3          3.1220    2.3660    1.9400 ha        1 D61      0.131000
     48 H6         -0.4110   -0.5760   -0.0330 ha        1 D61      0.130000
     49 H7         -0.7410   -1.6490    2.1640 ha        1 D61      0.132000
     50 H8         -0.1410   -1.8440    4.5790 ha        1 D61      0.138000
     51 H10         2.7910    1.3000    4.1290 ha        1 D61      0.133000
     52 H11         0.7310   -0.3550    6.5400 hc        1 D61      0.048200
     53 H11A        2.3330    0.4430    6.2810 hc        1 D61      0.048200
     54 H12         3.3540   -1.7720    5.6870 hc        1 D61      0.050200
     55 H12A        1.7520   -2.5790    5.9040 hc        1 D61      0.050200
     56 H13         1.6890   -1.7880    8.3020 hc        1 D61      0.042200
     57 H13A        3.3030   -1.0060    8.0810 hc        1 D61      0.042200
     58 H14         2.6860   -4.0230    7.7000 hc        1 D61      0.067200
     59 H14A        4.3060   -3.2400    7.4880 hc        1 D61      0.067200
     60 H15         2.6030   -3.2060   10.1000 hx        1 D61      0.079200
     61 H15A        4.2460   -2.4410    9.8910 hx        1 D61      0.079200
     62 HN16        3.6240   -5.3890    9.6070 hn        1 D61      0.521300
     63 H19         3.8110   -6.6930   11.8260 h1        1 D61      0.113700
     64 H21         5.3660   -8.1070   13.4290 h1        1 D61      0.034200
     65 H21A        3.9560   -7.1510   14.0990 h1        1 D61      0.034200
     66 H22         6.9260   -6.8590   14.9840 hc        1 D61      0.059700
     67 H22A        5.5230   -5.9500   15.6660 hc        1 D61      0.059700
     68 H23         4.4590   -8.1430   16.3670 hc        1 D61      0.040200
     69 H23A        5.8900   -9.0320   15.7160 hc        1 D61      0.040200
     70 H24         5.9530   -6.8850   17.9530 hc        1 D61      0.046200
     71 H24A        7.3920   -7.7560   17.2930 hc        1 D61      0.046200
     72 H25         4.9250   -9.1110   18.5940 hc        1 D61      0.049200
     73 H25A        6.4040   -9.9510   17.9830 hc        1 D61      0.049200
     74 H27         5.2930   -7.1940   20.3020 ha        1 D61      0.136000
     75 H28         6.3220   -6.7930   22.5410 ha        1 D61      0.129000
     76 H31         8.1920  -10.2950   19.4960 ha        1 D61      0.135000
     77 H32         9.9050  -10.8400   21.1720 ha        1 D61      0.132000
     78 H33        10.9380  -10.4420   23.4110 ha        1 D61      0.127000
     79 H34        10.0110   -8.7080   24.9270 ha        1 D61      0.126000
     80 H35         8.0380   -7.3450   24.2260 ha        1 D61      0.128000
     81 H36         6.0560   -7.8360   11.2960 h1        1 D61      0.063700
     82 H38         4.4880   -9.0360   10.3280 h1        1 D61      0.048200
     83 H38A        4.1550   -8.6400    8.5740 h1        1 D61      0.048200
     84 H162        5.1690   -4.6660    9.4520 hn        1 D61      0.521300
@<TRIPOS>BOND
     1    1    2 ar  
     2    1    6 ar  
     3    1   45 1   
     4    2    3 ar  
     5    2   46 1   
     6    3    4 ar  
     7    3   47 1   
     8    4    5 ar  
     9    4   10 ar  
    10    5    6 ar  
    11    5    7 ar  
    12    6   48 1   
    13    7    8 ar  
    14    7   49 1   
    15    8    9 ar  
    16    8   50 1   
    17    9   10 ar  
    18    9   11 1   
    19   10   51 1   
    20   11   12 1   
    21   11   52 1   
    22   11   53 1   
    23   12   13 1   
    24   12   54 1   
    25   12   55 1   
    26   13   14 1   
    27   13   56 1   
    28   13   57 1   
    29   14   15 1   
    30   14   58 1   
    31   14   59 1   
    32   15   16 1   
    33   15   60 1   
    34   15   61 1   
    35   16   17 1   
    36   16   62 1   
    37   16   84 1   
    38   17   18 2   
    39   17   19 1   
    40   19   20 1   
    41   19   36 1   
    42   19   63 1   
    43   20   21 1   
    44   21   22 1   
    45   21   64 1   
    46   21   65 1   
    47   22   23 1   
    48   22   66 1   
    49   22   67 1   
    50   23   24 1   
    51   23   68 1   
    52   23   69 1   
    53   24   25 1   
    54   24   70 1   
    55   24   71 1   
    56   25   26 1   
    57   25   72 1   
    58   25   73 1   
    59   26   27 ar  
    60   26   31 ar  
    61   27   28 ar  
    62   27   74 1   
    63   28   29 ar  
    64   28   75 1   
    65   29   30 ar  
    66   29   35 ar  
    67   30   31 ar  
    68   30   32 ar  
    69   31   76 1   
    70   32   33 ar  
    71   32   77 1   
    72   33   34 ar  
    73   33   78 1   
    74   34   35 ar  
    75   34   79 1   
    76   35   80 1   
    77   36   37 1   
    78   36   42 1   
    79   36   81 1   
    80   37   38 1   
    81   38   39 1   
    82   38   82 1   
    83   38   83 1   
    84   39   40 1   
    85   39   41 1   
    86   42   43 1   
    87   42   44 1   
@<TRIPOS>SUBSTRUCTURE
     1 D61         1 TEMP              0 ****  ****    0 ROOT
