@<TRIPOS>MOLECULE
D61
   83    86     1     0     0
SMALL
bcc


@<TRIPOS>ATOM
      1 C1        -13.6400   -1.3600   -0.8440 ca        1 D61     -0.142000
      2 C2        -13.4050   -0.1340   -0.1760 ca        1 D61     -0.141000
      3 C3        -12.1770    0.1290    0.3810 ca        1 D61     -0.111000
      4 C4        -11.1260   -0.8260    0.2970 ca        1 D61     -0.031000
      5 C5        -11.3620   -2.0530   -0.3750 ca        1 D61     -0.043000
      6 C6        -12.6410   -2.2970   -0.9420 ca        1 D61     -0.117000
      7 C7        -10.3060   -3.0000   -0.4650 ca        1 D61     -0.131000
      8 C8         -9.0820   -2.7370    0.0940 ca        1 D61     -0.113000
      9 C9         -8.8400   -1.5130    0.7780 ca        1 D61     -0.050300
     10 C10        -9.8480   -0.5790    0.8690 ca        1 D61     -0.125000
     11 C11        -7.5050   -1.2780    1.3930 c3        1 D61     -0.046100
     12 C12        -6.4220   -1.0440    0.3550 c3        1 D61     -0.076400
     13 C13        -5.0570   -0.9870    1.0080 c3        1 D61     -0.073400
     14 C14        -3.9820   -0.6450   -0.0010 c3        1 D61     -0.105400
     15 C15        -2.6010   -0.7290    0.6570 c3        1 D61      0.105000
     16 N16        -1.5830   -0.1040   -0.1410 n         1 D61     -0.546900
     17 C17        -0.2480   -0.3670    0.0970 c         1 D61      0.685100
     18 O18         0.1260   -1.3920    0.7060 o         1 D61     -0.652100
     19 C19         0.7450    0.5940   -0.5780 c3        1 D61      0.067100
     20 O20         2.0170   -0.0460   -0.4650 os        1 D61     -0.409600
     21 C21         3.1380    0.8230   -0.5980 c3        1 D61      0.108400
     22 C22         4.3660   -0.0760   -0.5820 c3        1 D61     -0.078400
     23 C23         5.6220    0.7650   -0.5190 c3        1 D61     -0.081400
     24 C24         6.8650   -0.1000   -0.5210 c3        1 D61     -0.073400
     25 C25         8.1160    0.7530   -0.4230 c3        1 D61     -0.047100
     26 C26         9.3610   -0.0580   -0.5100 ca        1 D61     -0.053300
     27 C27         9.7070   -0.6660   -1.7490 ca        1 D61     -0.114000
     28 C28        10.8540   -1.4070   -1.8710 ca        1 D61     -0.129000
     29 C29        11.7240   -1.5850   -0.7600 ca        1 D61     -0.043000
     30 C30        11.3830   -0.9850    0.4790 ca        1 D61     -0.032000
     31 C31        10.1890   -0.2220    0.5790 ca        1 D61     -0.126000
     32 C32        12.2480   -1.1640    1.5940 ca        1 D61     -0.113000
     33 C33        13.3980   -1.9050    1.4740 ca        1 D61     -0.140000
     34 C34        13.7380   -2.5020    0.2360 ca        1 D61     -0.141000
     35 C35        12.9200   -2.3460   -0.8560 ca        1 D61     -0.117000
     36 C36         0.6730    2.0400   -0.0490 c3        1 D61     -0.004900
     37 O37        -0.6310    2.5660   -0.2730 os        1 D61     -0.378600
     38 C38        -0.8120    3.1020   -1.5810 c3        1 D61      0.002400
     39 C39        -2.3010    3.0600   -1.9720 c         1 D61      0.915600
     40 O40        -3.0110    2.0630   -1.6540 o         1 D61     -0.855800
     41 O41        -2.7330    4.0260   -2.6680 o         1 D61     -0.855800
     42 C42         1.0170    2.2110    1.4630 c         1 D61      0.933600
     43 O43         0.2170    1.8330    2.3520 o         1 D61     -0.834800
     44 O44         2.1420    2.7530    1.6980 o         1 D61     -0.834800
     45 H1        -14.6290   -1.5460   -1.2840 ha        1 D61      0.118000
     46 H2        -14.2170    0.6050   -0.1150 ha        1 D61      0.121000
     47 H3        -11.9820    1.0810    0.8960 ha        1 D61      0.132000
     48 H6        -12.8120   -3.2510   -1.4630 ha        1 D61      0.123000
     49 H7        -10.4910   -3.9450   -0.9970 ha        1 D61      0.123000
     50 H8         -8.2590   -3.4650    0.0180 ha        1 D61      0.139000
     51 H10        -9.6770    0.3810    1.3810 ha        1 D61      0.139000
     52 H11        -7.5490   -0.3930    2.0820 hc        1 D61      0.047200
     53 H11A       -7.2320   -2.1720    2.0180 hc        1 D61      0.047200
     54 H12        -6.4440   -1.8690   -0.4050 hc        1 D61      0.047700
     55 H12A       -6.6180   -0.0840   -0.1890 hc        1 D61      0.047700
     56 H13        -5.0620   -0.2150    1.8220 hc        1 D61      0.030200
     57 H13A       -4.8300   -1.9750    1.4900 hc        1 D61      0.030200
     58 H14        -4.0320   -1.3570   -0.8650 hc        1 D61      0.070200
     59 H14A       -4.1490    0.3900   -0.4130 hc        1 D61      0.070200
     60 H15        -2.6550   -0.2400    1.6740 h1        1 D61      0.028700
     61 H15A       -2.3260   -1.8100    0.8210 h1        1 D61      0.028700
     62 HN16       -1.8300    0.8070   -0.5080 hn        1 D61      0.373500
     63 H19         0.5010    0.6200   -1.6840 h1        1 D61      0.027700
     64 H21         3.0750    1.3810   -1.5700 h1        1 D61      0.055700
     65 H21A        3.1630    1.5510    0.2630 h1        1 D61      0.055700
     66 H22         4.3070   -0.7550    0.3080 hc        1 D61      0.041700
     67 H22A        4.3780   -0.7240   -1.4960 hc        1 D61      0.041700
     68 H23         5.6510    1.4660   -1.3950 hc        1 D61      0.045700
     69 H23A        5.5990    1.3950    0.4090 hc        1 D61      0.045700
     70 H24         6.8270   -0.8140    0.3430 hc        1 D61      0.039200
     71 H24A        6.8990   -0.7140   -1.4590 hc        1 D61      0.039200
     72 H25         8.1140    1.5080   -1.2570 hc        1 D61      0.051700
     73 H25A        8.0950    1.3270    0.5420 hc        1 D61      0.051700
     74 H27         9.0290   -0.5320   -2.6060 ha        1 D61      0.139000
     75 H28        11.1200   -1.8790   -2.8280 ha        1 D61      0.125000
     76 H31         9.9340    0.2350    1.5480 ha        1 D61      0.138000
     77 H32        11.9730   -0.6990    2.5530 ha        1 D61      0.132000
     78 H33        14.0670   -2.0450    2.3350 ha        1 D61      0.122000
     79 H34        14.6630   -3.0920    0.1640 ha        1 D61      0.120000
     80 H35        13.1730   -2.8080   -1.8220 ha        1 D61      0.124000
     81 H36         1.4260    2.6460   -0.6320 h1        1 D61      0.022700
     82 H38        -0.4390    4.1600   -1.5810 h1        1 D61      0.006200
     83 H38A       -0.2360    2.5180   -2.3460 h1        1 D61      0.006200
@<TRIPOS>BOND
     1    1    2 ar  
     2    1    6 ar  
     3    1   45 1   
     4    2    3 ar  
     5    2   46 1   
     6    3    4 ar  
     7    3   47 1   
     8    4    5 ar  
     9    4   10 ar  
    10    5    6 ar  
    11    5    7 ar  
    12    6   48 1   
    13    7    8 ar  
    14    7   49 1   
    15    8    9 ar  
    16    8   50 1   
    17    9   10 ar  
    18    9   11 1   
    19   10   51 1   
    20   11   12 1   
    21   11   52 1   
    22   11   53 1   
    23   12   13 1   
    24   12   54 1   
    25   12   55 1   
    26   13   14 1   
    27   13   56 1   
    28   13   57 1   
    29   14   15 1   
    30   14   58 1   
    31   14   59 1   
    32   15   16 1   
    33   15   60 1   
    34   15   61 1   
    35   16   17 1   
    36   16   62 1   
    37   17   18 2   
    38   17   19 1   
    39   19   20 1   
    40   19   36 1   
    41   19   63 1   
    42   20   21 1   
    43   21   22 1   
    44   21   64 1   
    45   21   65 1   
    46   22   23 1   
    47   22   66 1   
    48   22   67 1   
    49   23   24 1   
    50   23   68 1   
    51   23   69 1   
    52   24   25 1   
    53   24   70 1   
    54   24   71 1   
    55   25   26 1   
    56   25   72 1   
    57   25   73 1   
    58   26   27 ar  
    59   26   31 ar  
    60   27   28 ar  
    61   27   74 1   
    62   28   29 ar  
    63   28   75 1   
    64   29   30 ar  
    65   29   35 ar  
    66   30   31 ar  
    67   30   32 ar  
    68   31   76 1   
    69   32   33 ar  
    70   32   77 1   
    71   33   34 ar  
    72   33   78 1   
    73   34   35 ar  
    74   34   79 1   
    75   35   80 1   
    76   36   37 1   
    77   36   42 1   
    78   36   81 1   
    79   37   38 1   
    80   38   39 1   
    81   38   82 1   
    82   38   83 1   
    83   39   40 1   
    84   39   41 1   
    85   42   43 1   
    86   42   44 1   
@<TRIPOS>SUBSTRUCTURE
     1 D61         1 TEMP              0 ****  ****    0 ROOT
