@<TRIPOS>MOLECULE
D61
   84    87     1     0     0
SMALL
bcc


@<TRIPOS>ATOM
      1 C1          0.9970    0.9710   -0.4000 ca        1 D61     -0.134000
      2 C2          2.0170    1.7900    0.1410 ca        1 D61     -0.132000
      3 C3          2.3610    1.6880    1.4660 ca        1 D61     -0.117000
      4 C4          1.6970    0.7590    2.3140 ca        1 D61     -0.033000
      5 C5          0.6750   -0.0620    1.7720 ca        1 D61     -0.040000
      6 C6          0.3400    0.0660    0.3970 ca        1 D61     -0.116000
      7 C7          0.0160   -0.9910    2.6230 ca        1 D61     -0.119000
      8 C8          0.3590   -1.0930    3.9460 ca        1 D61     -0.119000
      9 C9          1.3830   -0.2730    4.4960 ca        1 D61     -0.068300
     10 C10         2.0350    0.6330    3.6890 ca        1 D61     -0.121000
     11 C11         1.7180   -0.4020    5.9410 c3        1 D61     -0.039100
     12 C12         2.4000   -1.7220    6.2480 c3        1 D61     -0.077400
     13 C13         2.6830   -1.8500    7.7300 c3        1 D61     -0.076400
     14 C14         3.3420   -3.1770    8.0410 c3        1 D61     -0.100400
     15 C15         3.6030   -3.2790    9.5400 c3        1 D61      0.131800
     16 N16         4.2220   -4.5630    9.9140 ny        1 D61     -0.715800
     17 C17         4.4710   -4.7180   11.3680 c         1 D61      0.602100
     18 O18         4.3510   -3.7460   12.1070 o         1 D61     -0.505100
     19 C19         4.7970   -6.1470   11.7850 c3        1 D61      0.049100
     20 O20         5.4070   -6.0480   13.0680 os        1 D61     -0.391600
     21 C21         5.0560   -7.1370   13.9260 c3        1 D61      0.132400
     22 C22         5.8340   -6.9250   15.2130 c3        1 D61     -0.085400
     23 C23         5.5530   -8.0480   16.1860 c3        1 D61     -0.079400
     24 C24         6.2930   -7.8370   17.4890 c3        1 D61     -0.075400
     25 C25         6.0220   -8.9740   18.4560 c3        1 D61     -0.041100
     26 C26         6.6850   -8.7560   19.7710 ca        1 D61     -0.065300
     27 C27         6.1840   -7.7480   20.6400 ca        1 D61     -0.119000
     28 C28         6.7610   -7.5280   21.8650 ca        1 D61     -0.122000
     29 C29         7.8740   -8.3050   22.2910 ca        1 D61     -0.041000
     30 C30         8.3790   -9.3110   21.4280 ca        1 D61     -0.033000
     31 C31         7.7630   -9.5180   20.1650 ca        1 D61     -0.120000
     32 C32         9.4930  -10.0880   21.8510 ca        1 D61     -0.116000
     33 C33        10.0720   -9.8680   23.0760 ca        1 D61     -0.133000
     34 C34         9.5660   -8.8640   23.9370 ca        1 D61     -0.134000
     35 C35         8.4920   -8.1000   23.5540 ca        1 D61     -0.117000
     36 C36         5.7090   -6.9030   10.8000 c3        1 D61     -0.011900
     37 O37         5.0060   -7.1660    9.5920 os        1 D61     -0.423600
     38 C38         4.0770   -8.2450    9.6460 c3        1 D61     -0.001600
     39 C39         2.6480   -7.8160    9.9970 c         1 D61      0.884600
     40 O40         2.3310   -6.5770   10.0050 o         1 D61     -0.837300
     41 O41         1.8180   -8.7190   10.2670 o         1 D61     -0.837300
     42 C42         7.0070   -6.1330   10.4020 c         1 D61      0.936600
     43 O43         6.8980   -5.0250    9.7840 o         1 D61     -0.809300
     44 O44         8.0960   -6.6590   10.7190 o         1 D61     -0.809300
     45 H1          0.7400    1.0710   -1.4640 ha        1 D61      0.127000
     46 H2          2.5300    2.5070   -0.5170 ha        1 D61      0.127000
     47 H3          3.1540    2.3180    1.8940 ha        1 D61      0.131000
     48 H6         -0.4530   -0.5770   -0.0130 ha        1 D61      0.130000
     49 H7         -0.7740   -1.6270    2.1960 ha        1 D61      0.132000
     50 H8         -0.1490   -1.8140    4.6050 ha        1 D61      0.138000
     51 H10         2.8310    1.2750    4.0950 ha        1 D61      0.133000
     52 H11         0.7720   -0.3240    6.5440 hc        1 D61      0.048200
     53 H11A        2.3850    0.4430    6.2600 hc        1 D61      0.048200
     54 H12         1.7470   -2.5710    5.9140 hc        1 D61      0.050200
     55 H12A        3.3600   -1.7940    5.6720 hc        1 D61      0.050200
     56 H13         1.7240   -1.7610    8.3060 hc        1 D61      0.042200
     57 H13A        3.3500   -1.0090    8.0600 hc        1 D61      0.042200
     58 H14         4.3070   -3.2650    7.4740 hc        1 D61      0.067700
     59 H14A        2.6760   -4.0180    7.7100 hc        1 D61      0.067700
     60 H15         2.6320   -3.1820   10.1030 hx        1 D61      0.079200
     61 H15A        4.2870   -2.4470    9.8710 hx        1 D61      0.079200
     62 HN16        3.6120   -5.3850    9.6140 hn        1 D61      0.521300
     63 H19         3.7940   -6.6780   11.8400 h1        1 D61      0.113700
     64 H21         5.3380   -8.1080   13.4410 h1        1 D61      0.034200
     65 H21A        3.9490   -7.1250   14.1140 h1        1 D61      0.034200
     66 H22         6.9290   -6.8760   14.9770 hc        1 D61      0.059700
     67 H22A        5.5470   -5.9390   15.6620 hc        1 D61      0.059700
     68 H23         4.4500   -8.1090   16.3840 hc        1 D61      0.040200
     69 H23A        5.8620   -9.0260   15.7310 hc        1 D61      0.040200
     70 H24         5.9760   -6.8650   17.9520 hc        1 D61      0.046200
     71 H24A        7.3950   -7.7650   17.2890 hc        1 D61      0.046200
     72 H25         6.3750   -9.9380   18.0010 hc        1 D61      0.049200
     73 H25A        4.9140   -9.0690   18.6160 hc        1 D61      0.049200
     74 H27         5.3250   -7.1460   20.3070 ha        1 D61      0.136000
     75 H28         6.3760   -6.7480   22.5370 ha        1 D61      0.129000
     76 H31         8.1670  -10.3020   19.5050 ha        1 D61      0.135000
     77 H32         9.8800  -10.8640   21.1740 ha        1 D61      0.132000
     78 H33        10.9350  -10.4670   23.4040 ha        1 D61      0.127000
     79 H34        10.0480   -8.7070   24.9130 ha        1 D61      0.126000
     80 H35         8.0930   -7.3160   24.2150 ha        1 D61      0.128000
     81 H36         6.0160   -7.8630   11.3000 h1        1 D61      0.063700
     82 H38         4.0800   -8.6510    8.5980 h1        1 D61      0.048200
     83 H38A        4.4200   -9.0420   10.3520 h1        1 D61      0.048200
     84 H162        5.1670   -4.6890    9.4420 hn        1 D61      0.521300
@<TRIPOS>BOND
     1    1    2 ar  
     2    1    6 ar  
     3    1   45 1   
     4    2    3 ar  
     5    2   46 1   
     6    3    4 ar  
     7    3   47 1   
     8    4    5 ar  
     9    4   10 ar  
    10    5    6 ar  
    11    5    7 ar  
    12    6   48 1   
    13    7    8 ar  
    14    7   49 1   
    15    8    9 ar  
    16    8   50 1   
    17    9   10 ar  
    18    9   11 1   
    19   10   51 1   
    20   11   12 1   
    21   11   52 1   
    22   11   53 1   
    23   12   13 1   
    24   12   54 1   
    25   12   55 1   
    26   13   14 1   
    27   13   56 1   
    28   13   57 1   
    29   14   15 1   
    30   14   58 1   
    31   14   59 1   
    32   15   16 1   
    33   15   60 1   
    34   15   61 1   
    35   16   17 1   
    36   16   62 1   
    37   16   84 1   
    38   17   18 2   
    39   17   19 1   
    40   19   20 1   
    41   19   36 1   
    42   19   63 1   
    43   20   21 1   
    44   21   22 1   
    45   21   64 1   
    46   21   65 1   
    47   22   23 1   
    48   22   66 1   
    49   22   67 1   
    50   23   24 1   
    51   23   68 1   
    52   23   69 1   
    53   24   25 1   
    54   24   70 1   
    55   24   71 1   
    56   25   26 1   
    57   25   72 1   
    58   25   73 1   
    59   26   27 ar  
    60   26   31 ar  
    61   27   28 ar  
    62   27   74 1   
    63   28   29 ar  
    64   28   75 1   
    65   29   30 ar  
    66   29   35 ar  
    67   30   31 ar  
    68   30   32 ar  
    69   31   76 1   
    70   32   33 ar  
    71   32   77 1   
    72   33   34 ar  
    73   33   78 1   
    74   34   35 ar  
    75   34   79 1   
    76   35   80 1   
    77   36   37 1   
    78   36   42 1   
    79   36   81 1   
    80   37   38 1   
    81   38   39 1   
    82   38   82 1   
    83   38   83 1   
    84   39   40 1   
    85   39   41 1   
    86   42   43 1   
    87   42   44 1   
@<TRIPOS>SUBSTRUCTURE
     1 D61         1 TEMP              0 ****  ****    0 ROOT
