@<TRIPOS>MOLECULE
D61
   83    78     1     0     0
SMALL
bcc


@<TRIPOS>ATOM
      1 C1         -7.8280    5.8910    1.6880 c1        1 D61     -0.138000
      2 C2         -6.6790    5.5880    2.4320 c1        1 D61     -0.138000
      3 C3         -5.4580    5.4070    1.7850 c1        1 D61     -0.138000
      4 C4         -5.3770    5.5280    0.3810 c1        1 D61     -0.032000
      5 C5         -6.5120    5.8260   -0.3530 c1        1 D61     -0.043000
      6 C6         -7.7500    6.0100    0.3040 c1        1 D61     -0.138000
      7 C7         -6.4320    5.9460   -1.7550 c2        1 D61     -0.126000
      8 C8         -5.2120    5.7630   -2.4010 c1        1 D61     -0.109000
      9 C9         -4.0630    5.4610   -1.6580 c1        1 D61     -0.042000
     10 C10        -4.1400    5.3430   -0.2760 c2        1 D61     -0.136000
     11 C11        -2.7500    5.2700   -2.4350 c3        1 D61     -0.131000
     12 C12        -2.6520    3.8160   -2.9280 c3        1 D61     -0.157000
     13 C13        -1.2620    3.5770   -3.5620 c3        1 D61     -0.149000
     14 C14        -1.1340    2.0900   -3.9820 c3        1 D61     -0.202000
     15 C15         0.3450    1.7590   -4.2570 c3        1 D61     -0.027000
     16 N16         0.5340    0.3220   -4.2200 n         1 D61     -0.335000
     17 C17         1.8410   -0.2300   -3.9170 c2        1 D61      0.291000
     18 O18         2.8380    0.4470   -4.0750 o         1 D61     -0.429000
     19 C19         1.9690   -1.6820   -3.4630 c3        1 D61     -0.006000
     20 O20         2.5560   -1.7240   -2.1800 os        1 D61     -0.254000
     21 C21         1.8360   -2.5260   -1.2370 c3        1 D61     -0.030000
     22 C22         2.4460   -2.3350    0.1760 c3        1 D61     -0.151000
     23 C23         1.5990   -3.1030    1.2100 c3        1 D61     -0.168000
     24 C24         2.1370   -2.8230    2.6280 c3        1 D61     -0.159000
     25 C25         1.2030   -3.4550    3.6630 c3        1 D61     -0.122000
     26 C26         1.7800   -3.2340    5.0780 c2        1 D61     -0.089000
     27 C27         1.7500   -2.0030    5.7360 c2        1 D61     -0.117000
     28 C28         2.3150   -1.8760    7.0010 c1        1 D61     -0.163000
     29 C29         2.9190   -2.9900    7.6180 c1        1 D61     -0.042000
     30 C30         2.9490   -4.2060    6.9690 c1        1 D61     -0.042000
     31 C31         2.3760   -4.3340    5.6870 c1        1 D61     -0.087000
     32 C32         3.5510   -5.3160    7.5850 c1        1 D61     -0.111000
     33 C33         4.1180   -5.1880    8.8530 c1        1 D61     -0.138000
     34 C34         4.0880   -3.9620    9.5080 c1        1 D61     -0.138000
     35 C35         3.4930   -2.8630    8.9000 c1        1 D61     -0.111000
     36 C36         2.8390   -2.4430   -4.4430 c3        1 D61     -0.027000
     37 O37         2.0980   -2.7250   -5.6070 os        1 D61     -0.277000
     38 C38         2.3490   -4.0130   -6.1500 c3        1 D61     -0.078000
     39 C39         2.6810   -3.8850   -7.6330 c2        1 D61      0.307000
     40 O40         2.1350   -4.6550   -8.4700 o         1 D61     -0.598000
     41 O41         3.5530   -3.0610   -8.0120 o         1 D61     -0.598000
     42 C42         4.0440   -1.6070   -4.8050 c2        1 D61      0.341000
     43 O43         4.8100   -1.9750   -5.7390 o         1 D61     -0.594000
     44 O44         4.2740   -0.5340   -4.1890 o         1 D61     -0.594000
     45 H1         -8.6870    6.0070    2.1410 ha        1 D61      0.118333
     46 H2         -6.7340    5.5050    3.4010 ha        1 D61      0.118333
     47 H3         -4.6560    5.1960    2.3040 ha        1 D61      0.118333
     48 H6         -8.5480    6.2650   -0.2130 ha        1 D61      0.118333
     49 H7         -7.2410    6.1080   -2.2770 ha        1 D61      0.131000
     50 H8         -5.1570    5.8450   -3.3670 ha        1 D61      0.153000
     51 H10        -3.3440    5.1330    0.2390 ha        1 D61      0.129000
     52 H11        -2.7350    5.8770   -3.2040 hc        1 D61      0.085000
     53 H11A       -1.9910    5.4680   -1.8470 hc        1 D61      0.085000
     54 H12        -3.3490    3.6500   -3.5960 hc        1 D61      0.089500
     55 H12A       -2.7740    3.2050   -2.1710 hc        1 D61      0.089500
     56 H13        -0.5620    3.7940   -2.9080 hc        1 D61      0.065500
     57 H13A       -1.1600    4.1510   -4.3520 hc        1 D61      0.065500
     58 H14        -1.6610    1.9330   -4.7950 hc        1 D61      0.116500
     59 H14A       -1.4680    1.5190   -3.2610 hc        1 D61      0.116500
     60 H15         0.5980    2.0990   -5.1430 h1        1 D61      0.067500
     61 H15A        0.9050    2.1790   -3.5760 h1        1 D61      0.067500
     62 HN16       -0.1510   -0.2320   -4.4490 hn        1 D61      0.264000
     63 H19         1.0850   -2.0910   -3.4290 h1        1 D61      0.163000
     64 H21         1.8990   -3.4730   -1.4960 h1        1 D61      0.086000
     65 H21A        0.8930   -2.2520   -1.2260 h1        1 D61      0.086000
     66 H22         3.3660   -2.6800    0.1850 hc        1 D61      0.060500
     67 H22A        2.4530   -1.3790    0.4040 hc        1 D61      0.060500
     68 H23         0.6650   -2.8080    1.1500 hc        1 D61      0.093500
     69 H23A        1.6510   -4.0650    1.0240 hc        1 D61      0.093500
     70 H24         2.1810   -1.8560    2.7750 hc        1 D61      0.093000
     71 H24A        3.0320   -3.2080    2.7190 hc        1 D61      0.093000
     72 H25         1.1250   -4.4140    3.4890 hc        1 D61      0.087000
     73 H25A        0.3210   -3.0390    3.6020 hc        1 D61      0.087000
     74 H27         1.3080   -1.2430    5.3240 ha        1 D61      0.110000
     75 H28         2.3300   -1.0040    7.4440 ha        1 D61      0.103000
     76 H31         2.3740   -5.2010    5.2390 ha        1 D61      0.225000
     77 H32         3.5730   -6.1780    7.1250 ha        1 D61      0.158500
     78 H33         4.5340   -5.9580    9.2800 ha        1 D61      0.118333
     79 H34         4.4860   -3.8730   10.4010 ha        1 D61      0.118333
     80 H35         3.4720   -2.0000    9.3620 ha        1 D61      0.158500
     81 H36         3.1360   -3.2840   -4.0330 h1        1 D61      0.102000
     82 H38         3.1020   -4.4230   -5.6820 h1        1 D61      0.063000
     83 H38A        1.5510   -4.5740   -6.0410 h1        1 D61      0.063000
@<TRIPOS>BOND
     1    1    6 1   
     2    1   45 1   
     3    2    3 1   
     4    2   46 1   
     5    3   47 1   
     6    4    5 1   
     7    4   10 1   
     8    5    7 1   
     9    6   48 1   
    10    7    8 1   
    11    7   49 1   
    12    8   50 1   
    13    9   10 1   
    14    9   11 1   
    15   10   51 1   
    16   11   12 1   
    17   11   52 1   
    18   11   53 1   
    19   12   13 1   
    20   12   54 1   
    21   12   55 1   
    22   13   14 1   
    23   13   56 1   
    24   13   57 1   
    25   14   15 1   
    26   14   58 1   
    27   14   59 1   
    28   15   16 1   
    29   15   60 1   
    30   15   61 1   
    31   16   17 1   
    32   16   62 1   
    33   17   18 1   
    34   17   19 1   
    35   19   20 1   
    36   19   36 1   
    37   19   63 1   
    38   20   21 1   
    39   21   22 1   
    40   21   64 1   
    41   21   65 1   
    42   22   23 1   
    43   22   66 1   
    44   22   67 1   
    45   23   24 1   
    46   23   68 1   
    47   23   69 1   
    48   24   25 1   
    49   24   70 1   
    50   24   71 1   
    51   25   26 1   
    52   25   72 1   
    53   25   73 1   
    54   26   27 1   
    55   26   31 1   
    56   27   28 1   
    57   27   74 1   
    58   28   75 1   
    59   29   30 1   
    60   29   35 1   
    61   30   32 1   
    62   31   76 1   
    63   32   77 1   
    64   33   34 1   
    65   33   78 1   
    66   34   79 1   
    67   35   80 1   
    68   36   37 1   
    69   36   42 1   
    70   36   81 1   
    71   37   38 1   
    72   38   39 1   
    73   38   82 1   
    74   38   83 1   
    75   39   40 1   
    76   39   41 1   
    77   42   43 1   
    78   42   44 1   
@<TRIPOS>SUBSTRUCTURE
     1 D61         1 TEMP              0 ****  ****    0 ROOT
