@<TRIPOS>MOLECULE
D63
   46    49     1     0     0
SMALL
bcc


@<TRIPOS>ATOM
      1 NAA         0.3690    1.1530   -0.0920 nz        1 D63     -0.892600
      2 NAB         0.7800   -1.2870   -0.3680 n2        1 D63     -0.670100
      3 NAC        15.0840   -1.1710    9.2800 nz        1 D63     -0.762400
      4 OAD        15.9180   -1.2950    7.1420 o         1 D63     -0.410100
      5 CAE        13.3420   -1.0920    5.8870 ca        1 D63     -0.054000
      6 CAF        12.3960   -0.8130    8.1080 ca        1 D63     -0.054000
      7 CAG        12.0720   -0.9650    5.3330 ca        1 D63     -0.123500
      8 CAH        11.1330   -0.6840    7.5470 ca        1 D63     -0.123500
      9 CAI         8.7060    0.3050    6.0720 ca        1 D63     -0.102000
     10 CAJ         9.2460   -1.4380    4.4820 ca        1 D63     -0.102000
     11 CAK         7.4430    0.4370    5.5000 ca        1 D63     -0.092000
     12 CAL         7.9810   -1.3150    3.9130 ca        1 D63     -0.092000
     13 CAM         1.3650    0.2920    2.6670 ca        1 D63     -0.103000
     14 CAN         2.1630    0.3910    3.7930 ca        1 D63     -0.108000
     15 CAO         3.2620   -0.3420    1.2340 ca        1 D63      0.008000
     16 NAP         4.5980    0.1250    4.5370 na        1 D63     -0.261300
     17 NAQ         5.4780   -0.4640    2.4880 nc        1 D63     -0.532100
     18 CAR         0.9980   -0.2070    0.2510 ce        1 D63      0.636800
     19 CAT        13.5150   -1.0200    7.2830 ca        1 D63     -0.212600
     20 CAU         1.9080   -0.0600    1.4100 ca        1 D63     -0.244900
     21 CAV        10.9530   -0.7610    6.1530 cp        1 D63      0.058000
     22 CAW         9.6200   -0.6320    5.5670 cp        1 D63     -0.062000
     23 CAX         7.0730   -0.3750    4.4200 ca        1 D63     -0.104900
     24 CAY         5.7530   -0.2470    3.7960 cd        1 D63      0.487400
     25 CAZ         3.5340    0.1260    3.6460 ca        1 D63     -0.032200
     26 CBA         4.0960   -0.2430    2.3520 ca        1 D63      0.061400
     27 HNAA        0.0010    1.5690    0.7700 hn        1 D63      0.457467
     28 HNAB       -0.3850    1.0830   -0.7780 hn        1 D63      0.457467
     29 HNAC        0.1790   -1.3770   -1.1590 hn        1 D63      0.467400
     30 HNAD       16.0820   -1.3100    9.4900 hn        1 D63      0.469467
     31 HNAE       14.7790   -0.2790    9.6770 hn        1 D63      0.469467
     32 HAE        14.2190   -1.2480    5.2320 ha        1 D63      0.152500
     33 HAF        12.4850   -0.7480    9.2030 ha        1 D63      0.152500
     34 HAG        11.9510   -1.0170    4.2370 ha        1 D63      0.170500
     35 HAH        10.2580   -0.5270    8.2000 ha        1 D63      0.170500
     36 HAI         8.9910    0.9550    6.9140 ha        1 D63      0.150000
     37 HAJ         9.9500   -2.1840    4.0780 ha        1 D63      0.150000
     38 HAK         6.7550    1.1990    5.8970 ha        1 D63      0.159000
     39 HAL         7.7010   -1.9560    3.0600 ha        1 D63      0.159000
     40 HAM         0.2810    0.4560    2.7700 ha        1 D63      0.138000
     41 HAN         1.7340    0.6550    4.7710 ha        1 D63      0.166000
     42 HAO         3.6710   -0.6470    0.2570 ha        1 D63      0.173000
     43 HNAP        4.5540    0.2830    5.5110 hn        1 D63      0.324700
     44 HAA3        1.1020    1.7670   -0.4590 hn        1 D63      0.457467
     45 HAC3       14.5420   -1.9290    9.7040 hn        1 D63      0.469467
     46 CAS        14.8780   -1.1660    7.7710 c         1 D63      0.575700
@<TRIPOS>BOND
     1    1   18 1   
     2    1   27 1   
     3    1   28 1   
     4    1   44 1   
     5    2   18 2   
     6    2   29 1   
     7    3   30 1   
     8    3   31 1   
     9    3   45 1   
    10    3   46 1   
    11    4   46 2   
    12    5    7 ar  
    13    5   19 ar  
    14    5   32 1   
    15    6    8 ar  
    16    6   19 ar  
    17    6   33 1   
    18    7   21 ar  
    19    7   34 1   
    20    8   21 ar  
    21    8   35 1   
    22    9   11 ar  
    23    9   22 ar  
    24    9   36 1   
    25   10   12 ar  
    26   10   22 ar  
    27   10   37 1   
    28   11   23 ar  
    29   11   38 1   
    30   12   23 ar  
    31   12   39 1   
    32   13   14 ar  
    33   13   20 ar  
    34   13   40 1   
    35   14   25 ar  
    36   14   41 1   
    37   15   20 ar  
    38   15   26 ar  
    39   15   42 1   
    40   16   24 1   
    41   16   25 1   
    42   16   43 1   
    43   17   24 2   
    44   17   26 1   
    45   18   20 1   
    46   19   46 1   
    47   21   22 1   
    48   23   24 1   
    49   25   26 ar  
@<TRIPOS>SUBSTRUCTURE
     1 D63         1 TEMP              0 ****  ****    0 ROOT
