@<TRIPOS>MOLECULE
D63
   44    47     1     0     0
SMALL
bcc


@<TRIPOS>ATOM
      1 NAA         8.6930    0.1220    0.9230 nh        1 D63     -0.892800
      2 NAB         8.1420    1.8640   -0.5840 n2        1 D63     -0.835100
      3 NAC        -8.8300   -0.8670    0.3430 n         1 D63     -0.674000
      4 OAD        -8.6700    1.3300   -0.2060 o         1 D63     -0.606100
      5 CAE        -5.8510    1.2350    0.4310 ca        1 D63     -0.091000
      6 CAF        -5.9580   -1.0230   -0.4320 ca        1 D63     -0.091000
      7 CAG        -4.4600    1.1760    0.4180 ca        1 D63     -0.126500
      8 CAH        -4.5660   -1.0810   -0.4470 ca        1 D63     -0.126500
      9 CAI        -1.6800   -1.2180    0.3640 ca        1 D63     -0.121000
     10 CAJ        -1.5880    1.0610   -0.4390 ca        1 D63     -0.121000
     11 CAK        -0.2900   -1.2800    0.3530 ca        1 D63     -0.100500
     12 CAL        -0.1970    1.0020   -0.4560 ca        1 D63     -0.100500
     13 CAM         6.3650   -1.2260   -0.3520 ca        1 D63     -0.080000
     14 CAN         5.1460   -1.8710   -0.4900 ca        1 D63     -0.142000
     15 CAO         5.3070    0.9250    0.1470 ca        1 D63     -0.050000
     16 NAP         2.6290   -1.4210   -0.3530 na        1 D63     -0.278300
     17 NAQ         2.7530    0.8240    0.1490 nc        1 D63     -0.552100
     18 CAR         7.7900    0.8000    0.0750 ce        1 D63      0.639800
     19 CAT        -6.6060    0.1330    0.0140 ca        1 D63     -0.136600
     20 CAU         6.4450    0.1470   -0.0390 ca        1 D63     -0.221900
     21 CAV        -3.8040    0.0160   -0.0180 cp        1 D63     -0.022000
     22 CAW        -2.3440   -0.0480   -0.0330 cp        1 D63     -0.027000
     23 CAX         0.4610   -0.1720   -0.0620 ca        1 D63     -0.112900
     24 CAY         1.9240   -0.2200   -0.0810 cd        1 D63      0.468400
     25 CAZ         3.9860   -1.1080   -0.3040 ca        1 D63     -0.058200
     26 CBA         4.0560    0.3080    0.0180 ca        1 D63      0.060400
     27 HNAA        9.5280    0.6230    1.1420 hn        1 D63      0.397300
     28 HNAB        8.2520   -0.2760    1.7220 hn        1 D63      0.397300
     29 HNAC        7.4540    2.1940   -1.2250 hn        1 D63      0.396400
     30 HNAD       -9.8150   -0.7980    0.3920 hn        1 D63      0.313000
     31 HNAE       -8.3940   -1.7110    0.6080 hn        1 D63      0.313000
     32 HAE        -6.3700    2.1510    0.7590 ha        1 D63      0.148000
     33 HAF        -6.5350   -1.8880   -0.7930 ha        1 D63      0.148000
     34 HAG        -3.8720    2.0430    0.7560 ha        1 D63      0.141500
     35 HAH        -4.0610   -1.9890   -0.8080 ha        1 D63      0.141500
     36 HAI        -2.2630   -2.0890    0.6990 ha        1 D63      0.142000
     37 HAJ        -2.0970    1.9840   -0.7550 ha        1 D63      0.142000
     38 HAK         0.2090   -2.2000    0.6930 ha        1 D63      0.146500
     39 HAL         0.3860    1.8810   -0.7750 ha        1 D63      0.146500
     40 HAM         7.2980   -1.7960   -0.4960 ha        1 D63      0.152000
     41 HAN         5.0930   -2.9390   -0.7380 ha        1 D63      0.140000
     42 HAO         5.3750    1.9960    0.3900 ha        1 D63      0.156000
     43 HNAP        2.2310   -2.2870   -0.5980 hn        1 D63      0.308700
     44 CAS        -8.0910    0.2510    0.0360 c         1 D63      0.669700
@<TRIPOS>BOND
     1    1   18 1   
     2    1   27 1   
     3    1   28 1   
     4    2   18 2   
     5    2   29 1   
     6    3   30 1   
     7    3   31 1   
     8    3   44 1   
     9    4   44 2   
    10    5    7 ar  
    11    5   19 ar  
    12    5   32 1   
    13    6    8 ar  
    14    6   19 ar  
    15    6   33 1   
    16    7   21 ar  
    17    7   34 1   
    18    8   21 ar  
    19    8   35 1   
    20    9   11 ar  
    21    9   22 ar  
    22    9   36 1   
    23   10   12 ar  
    24   10   22 ar  
    25   10   37 1   
    26   11   23 ar  
    27   11   38 1   
    28   12   23 ar  
    29   12   39 1   
    30   13   14 ar  
    31   13   20 ar  
    32   13   40 1   
    33   14   25 ar  
    34   14   41 1   
    35   15   20 ar  
    36   15   26 ar  
    37   15   42 1   
    38   16   24 1   
    39   16   25 1   
    40   16   43 1   
    41   17   24 2   
    42   17   26 1   
    43   18   20 1   
    44   19   44 1   
    45   21   22 1   
    46   23   24 1   
    47   25   26 ar  
@<TRIPOS>SUBSTRUCTURE
     1 D63         1 TEMP              0 ****  ****    0 ROOT
