@<TRIPOS>MOLECULE
D63
   46    49     1     0     0
SMALL
bcc


@<TRIPOS>ATOM
      1 NAA         0.3640    1.1730   -0.0770 n4        1 D63     -0.892600
      2 NAB         0.7870   -1.2620   -0.3830 n2        1 D63     -0.670100
      3 NAC        15.0850   -1.1900    9.2750 n4        1 D63     -0.762400
      4 OAD        15.9220   -1.2820    7.1370 o         1 D63     -0.410100
      5 CAE        13.3450   -1.0770    5.8820 ca        1 D63     -0.054000
      6 CAF        12.3960   -0.8320    8.1060 ca        1 D63     -0.054000
      7 CAG        12.0750   -0.9510    5.3290 ca        1 D63     -0.123500
      8 CAH        11.1330   -0.7020    7.5460 ca        1 D63     -0.123500
      9 CAI         8.7020    0.2920    6.0810 ca        1 D63     -0.102000
     10 CAJ         9.2520   -1.4280    4.4700 ca        1 D63     -0.102000
     11 CAK         7.4380    0.4250    5.5110 ca        1 D63     -0.092000
     12 CAL         7.9860   -1.3050    3.9020 ca        1 D63     -0.092000
     13 CAM         1.3630    0.2830    2.6720 ca        1 D63     -0.103000
     14 CAN         2.1590    0.3720    3.7990 ca        1 D63     -0.108000
     15 CAO         3.2630   -0.3240    1.2310 ca        1 D63      0.008000
     16 NAP         4.5960    0.1090    4.5420 na        1 D63     -0.261300
     17 NAQ         5.4800   -0.4490    2.4860 nc        1 D63     -0.532100
     18 CAR         1.0000   -0.1890    0.2490 ce        1 D63      0.636800
     19 CAT        13.5160   -1.0220    7.2790 ca        1 D63     -0.212600
     20 CAU         1.9080   -0.0510    1.4110 ca        1 D63     -0.244900
     21 CAV        10.9530   -0.7630    6.1500 cp        1 D63      0.058000
     22 CAW         9.6210   -0.6330    5.5650 cp        1 D63     -0.062000
     23 CAX         7.0730   -0.3760    4.4200 ca        1 D63     -0.104900
     24 CAY         5.7520   -0.2470    3.7970 cd        1 D63      0.487400
     25 CAZ         3.5310    0.1160    3.6490 ca        1 D63     -0.032200
     26 CBA         4.0970   -0.2340    2.3520 ca        1 D63      0.061400
     27 HNAA       -0.0070    1.5750    0.7900 hn        1 D63      0.457467
     28 HNAB       -0.3890    1.1070   -0.7650 hn        1 D63      0.457467
     29 HNAC        0.1880   -1.3450   -1.1750 hn        1 D63      0.467400
     30 HNAD       16.0840   -1.3260    9.4850 hn        1 D63      0.469467
     31 HNAE       14.7750   -0.3050    9.6840 hn        1 D63      0.469467
     32 HAE        14.2230   -1.2200    5.2260 ha        1 D63      0.152500
     33 HAF        12.4840   -0.7790    9.2020 ha        1 D63      0.152500
     34 HAG        11.9540   -0.9890    4.2320 ha        1 D63      0.170500
     35 HAH        10.2570   -0.5580    8.2000 ha        1 D63      0.170500
     36 HAI         8.9820    0.9330    6.9310 ha        1 D63      0.150000
     37 HAJ         9.9600   -2.1650    4.0580 ha        1 D63      0.150000
     38 HAK         6.7450    1.1780    5.9160 ha        1 D63      0.159000
     39 HAL         7.7100   -1.9370    3.0410 ha        1 D63      0.159000
     40 HAM         0.2770    0.4390    2.7760 ha        1 D63      0.138000
     41 HAN         1.7280    0.6220    4.7800 ha        1 D63      0.166000
     42 HAO         3.6750   -0.6140    0.2520 ha        1 D63      0.173000
     43 HNAP        4.5500    0.2560    5.5170 hn        1 D63      0.324700
     44 HAA3        1.0940    1.7950   -0.4360 hn        1 D63      0.457467
     45 HAC3       14.5470   -1.9560    9.6890 hn        1 D63      0.469467
     46 CAS        14.8800   -1.1670    7.7660 c         1 D63      0.575700
@<TRIPOS>BOND
     1    1   18 1   
     2    1   27 1   
     3    1   28 1   
     4    1   44 1   
     5    2   18 2   
     6    2   29 1   
     7    3   30 1   
     8    3   31 1   
     9    3   45 1   
    10    3   46 1   
    11    4   46 2   
    12    5    7 ar  
    13    5   19 ar  
    14    5   32 1   
    15    6    8 ar  
    16    6   19 ar  
    17    6   33 1   
    18    7   21 ar  
    19    7   34 1   
    20    8   21 ar  
    21    8   35 1   
    22    9   11 ar  
    23    9   22 ar  
    24    9   36 1   
    25   10   12 ar  
    26   10   22 ar  
    27   10   37 1   
    28   11   23 ar  
    29   11   38 1   
    30   12   23 ar  
    31   12   39 1   
    32   13   14 ar  
    33   13   20 ar  
    34   13   40 1   
    35   14   25 ar  
    36   14   41 1   
    37   15   20 ar  
    38   15   26 ar  
    39   15   42 1   
    40   16   24 1   
    41   16   25 1   
    42   16   43 1   
    43   17   24 2   
    44   17   26 1   
    45   18   20 1   
    46   19   46 1   
    47   21   22 1   
    48   23   24 1   
    49   25   26 ar  
@<TRIPOS>SUBSTRUCTURE
     1 D63         1 TEMP              0 ****  ****    0 ROOT
