@<TRIPOS>MOLECULE
D63
   44    33     1     0     0
SMALL
bcc


@<TRIPOS>ATOM
      1 NAA        -5.7200    5.9420   -1.5420 n3        1 D63     -0.400000
      2 NAB        -6.0940    5.3870    0.8460 n1        1 D63     -0.298000
      3 NAC         7.6570   -4.5630    1.4560 n3        1 D63     -0.433000
      4 OAD         7.5480   -3.6440   -0.6330 o         1 D63     -0.369000
      5 CAE         4.5160   -4.1000    0.0030 c1        1 D63     -0.103000
      6 CAF         5.4070   -2.1290    1.0070 c1        1 D63     -0.116750
      7 CAG         3.2770   -3.5040   -0.0690 c1        1 D63     -0.103000
      8 CAH         4.1450   -1.5260    0.9320 c1        1 D63     -0.116750
      9 CAI         0.9600   -1.4100    1.3820 c1        1 D63     -0.103000
     10 CAJ         1.4400   -1.0480   -0.9980 c1        1 D63     -0.116750
     11 CAK        -0.2530   -0.7430    1.2490 c1        1 D63     -0.103000
     12 CAL         0.2410   -0.3890   -1.1290 c1        1 D63     -0.116750
     13 CAM        -5.7330    2.6160   -0.8500 c1        1 D63     -0.072000
     14 CAN        -5.1950    1.3570   -0.8560 c1        1 D63     -0.095500
     15 CAO        -3.6040    3.5170   -0.3060 c1        1 D63     -0.095500
     16 NAP        -3.0620    0.0550   -0.4490 n2        1 D63     -0.180500
     17 NAQ        -1.7760    1.7860   -0.0040 n2        1 D63     -0.180500
     18 CAR        -5.6010    5.0170   -0.3960 c2        1 D63      0.133000
     19 CAS         6.9960   -3.8150    0.3930 c1        1 D63      0.343000
     20 CAT         5.5820   -3.4130    0.5410 c1        1 D63     -0.047750
     21 CAU        -4.9500    3.6870   -0.5790 c1        1 D63     -0.082000
     22 CAV         3.0960   -2.2100    0.3990 c1        1 D63     -0.047750
     23 CAW         1.8190   -1.5660    0.2470 c1        1 D63     -0.047750
     24 CAX        -0.6320   -0.2310    0.0240 c1        1 D63     -0.047750
     25 CAY        -1.7870    0.4540   -0.0900 c1        1 D63      0.054000
     26 CAZ        -3.8320    1.1750   -0.5810 c1        1 D63     -0.048000
     27 CBA        -3.0540    2.2480   -0.3100 c1        1 D63     -0.048000
     28 HNAA       -5.8790    6.9150   -1.3870 hn        1 D63      0.195000
     29 HNAB       -5.7020    5.6070   -2.4090 hn        1 D63      0.195000
     30 HNAC       -6.4890    6.1950    0.9550 DU        1 D63      0.197500
     31 HNAD        7.1720   -4.8330    2.2090 hn        1 D63      0.226500
     32 HNAE        8.5810   -4.8630    1.3350 hn        1 D63      0.226500
     33 HAE         4.6340   -4.9780   -0.3170 ha        1 D63      0.150500
     34 HAF         6.2010   -1.6160    1.4080 ha        1 D63      0.138500
     35 HAG         2.5760   -3.9610   -0.4250 ha        1 D63      0.150500
     36 HAH         4.0100   -0.5750    1.2760 ha        1 D63      0.138500
     37 HAI         1.2350   -1.7840    2.2780 ha        1 D63      0.150500
     38 HAJ         2.0310   -1.1560   -1.7790 ha        1 D63      0.138500
     39 HAK        -0.8310   -0.6390    2.0140 ha        1 D63      0.150500
     40 HAL        -0.0390   -0.0070   -2.0490 ha        1 D63      0.138500
     41 HAM        -6.7120    2.7470   -1.0540 ha        1 D63      0.150000
     42 HAN        -5.7840    0.5570   -1.0560 ha        1 D63      0.149500
     43 HAO        -3.0420    4.2940   -0.1080 ha        1 D63      0.149500
     44 HNAP       -3.3540   -0.8540   -0.5780 DU        1 D63      0.197500
@<TRIPOS>BOND
     1    1   18 1   
     2    1   28 1   
     3    1   29 1   
     4    2   18 1   
     5    3   19 1   
     6    3   31 1   
     7    3   32 1   
     8    4   19 1   
     9    5    7 1   
    10    5   33 1   
    11    6   20 1   
    12    6   34 1   
    13    7   35 1   
    14    8   22 1   
    15    8   36 1   
    16    9   11 1   
    17    9   37 1   
    18   10   23 1   
    19   10   38 1   
    20   11   39 1   
    21   12   24 1   
    22   12   40 1   
    23   13   21 1   
    24   13   41 1   
    25   14   26 1   
    26   14   42 1   
    27   15   27 1   
    28   15   43 1   
    29   16   25 1   
    30   16   26 1   
    31   17   25 1   
    32   17   27 1   
    33   18   21 1   
@<TRIPOS>SUBSTRUCTURE
     1 D63         1 TEMP              0 ****  ****    0 ROOT
