@<TRIPOS>MOLECULE
D63
   46    49     1     0     0
SMALL
bcc


@<TRIPOS>ATOM
      1 NAA        -1.6490    1.4400    2.3130 n4        1 D63     -0.890600
      2 NAB        -0.4730    1.0740    0.1520 n2        1 D63     -0.674100
      3 NAC         5.3270   -9.4600   -3.7280 n4        1 D63     -0.761400
      4 OAD         3.5330   -8.3670   -4.6600 o         1 D63     -0.441300
      5 CAE         5.0770   -7.6790   -1.3870 cc        1 D63     -0.053000
      6 CAF         3.2410   -6.5180   -2.4780 cc        1 D63     -0.053000
      7 CAG         4.9670   -6.8190   -0.3030 cd        1 D63     -0.128000
      8 CAH         3.1360   -5.6630   -1.3870 cd        1 D63     -0.128000
      9 CAI         2.5480   -4.5160    1.2540 cc        1 D63     -0.160000
     10 CAJ         5.0180   -4.4670    1.4870 cc        1 D63     -0.061000
     11 CAK         2.1600   -3.4180    1.9330 cd        1 D63      0.065000
     12 CAL         5.0940   -3.6050    2.6360 cd        1 D63     -0.088000
     13 CAM         1.1970    1.3960    3.2340 ca        1 D63     -0.123000
     14 CAN         2.2870    0.9630    3.9810 ca        1 D63     -0.108000
     15 CAO         1.2350   -0.6830    1.9650 ca        1 D63     -0.107000
     16 NAP         3.9680   -0.7540    4.5060 nh        1 D63     -0.165500
     17 NAQ         2.9810   -2.3570    2.3740 na        1 D63     -0.429600
     18 CAR        -0.4740    1.0280    1.4170 ce        1 D63      0.631800
     19 CAT         4.2160   -7.5360   -2.4890 cc        1 D63     -0.195000
     20 CAU         0.6670    0.5640    2.2440 ca        1 D63     -0.191900
     21 CAV         3.9990   -5.7950   -0.2880 cd        1 D63      0.059000
     22 CAW         3.8960   -4.8830    0.8550 cc        1 D63     -0.062000
     23 CAX         4.2060   -2.6630    3.0410 cd        1 D63     -0.019100
     24 CAY         4.6190   -1.8690    4.2280 c1        1 D63      0.072100
     25 CAZ         2.8680   -0.2910    3.7410 ca        1 D63     -0.053200
     26 CBA         2.3520   -1.1380    2.6980 ca        1 D63      0.160600
     27 HNAA       -2.4340    1.8290    1.7860 hn        1 D63      0.460467
     28 HNAB       -1.9680    0.6170    2.8330 hn        1 D63      0.460467
     29 HNAC       -1.2420    1.3810   -0.4030 hn        1 D63      0.467400
     30 HNAD        6.2540   -9.0310   -3.6620 hn        1 D63      0.469800
     31 HNAE        5.2070  -10.1160   -2.9510 hn        1 D63      0.469800
     32 HAE         5.8460   -8.4650   -1.3460 ha        1 D63      0.151500
     33 HAF         2.5630   -6.4020   -3.3410 ha        1 D63      0.151500
     34 HAG         5.6390   -6.9470    0.5620 ha        1 D63      0.168500
     35 HAH         2.3730   -4.8670   -1.3900 ha        1 D63      0.168500
     36 HAI         1.7620   -5.2450    0.9820 ha        1 D63      0.150000
     37 HAJ         6.0060   -4.8110    1.1210 ha        1 D63      0.144000
     38 HAK         1.0850   -3.2960    2.1830 h4        1 D63      0.139000
     39 HAL         6.0130   -3.7170    3.2510 ha        1 D63      0.185000
     40 HAM         0.8010    2.4070    3.4140 ha        1 D63      0.141000
     41 HAN         2.6980    1.6240    4.7640 ha        1 D63      0.171000
     42 HAO         0.8280   -1.2970    1.1450 ha        1 D63      0.163000
     43 HNAP        4.2630   -0.1920    5.2790 hn        1 D63      0.328700
     44 HAA3       -1.3210    2.1410    2.9870 hn        1 D63      0.460467
     45 HAC3        5.2550   -9.9730   -4.6170 hn        1 D63      0.469800
     46 CAS         4.2520   -8.3840   -3.6700 c2        1 D63      0.581300
@<TRIPOS>BOND
     1    1   18 1   
     2    1   27 1   
     3    1   28 1   
     4    1   44 1   
     5    2   18 2   
     6    2   29 1   
     7    3   30 1   
     8    3   31 1   
     9    3   45 1   
    10    3   46 1   
    11    4   46 1   
    12    5    7 2   
    13    5   19 1   
    14    5   32 1   
    15    6    8 2   
    16    6   19 1   
    17    6   33 1   
    18    7   21 1   
    19    7   34 1   
    20    8   21 1   
    21    8   35 1   
    22    9   11 2   
    23    9   22 1   
    24    9   36 1   
    25   10   12 2   
    26   10   22 1   
    27   10   37 1   
    28   11   17 1   
    29   11   38 1   
    30   12   23 1   
    31   12   39 1   
    32   13   14 ar  
    33   13   20 ar  
    34   13   40 1   
    35   14   25 ar  
    36   14   41 1   
    37   15   20 ar  
    38   15   26 ar  
    39   15   42 1   
    40   16   24 2   
    41   16   25 1   
    42   16   43 1   
    43   17   23 1   
    44   17   26 1   
    45   18   20 1   
    46   19   46 2   
    47   21   22 2   
    48   23   24 2   
    49   25   26 ar  
@<TRIPOS>SUBSTRUCTURE
     1 D63         1 TEMP              0 ****  ****    0 ROOT
