@<TRIPOS>MOLECULE
D64
   33    35     1     0     0
SMALL
bcc


@<TRIPOS>ATOM
      1 C1          9.8970  -14.0090   13.9000 ca        1 D64      0.485600
      2 C2          8.6900  -13.7460   14.6180 ca        1 D64     -0.333600
      3 C3          8.5940  -12.4300   15.2470 ca        1 D64      0.729200
      4 N4          9.6010  -11.5340   15.1790 nb        1 D64     -0.826000
      5 C5         10.7450  -11.9130   14.4600 ca        1 D64      0.906900
      6 N6         10.9180  -13.0990   13.8040 nb        1 D64     -0.791000
      7 N7          7.4210  -12.0480   15.8820 nh        1 D64     -0.948500
      8 C8         10.0320  -15.2830   13.2530 ca        1 D64     -0.200300
      9 C9          9.0280  -16.2120   13.3250 ca        1 D64     -0.082000
     10 C12         7.8300  -15.9470   14.0410 cp        1 D64     -0.071000
     11 C13         7.6770  -14.7260   14.6730 ca        1 D64     -0.065000
     12 N14        11.8150  -11.0090   14.4810 nh        1 D64     -0.925500
     13 C26         5.4430  -18.6660   13.0070 ca        1 D64     -0.130000
     14 C27         4.7540  -18.9110   14.2010 ca        1 D64     -0.074300
     15 C22         5.0880  -18.1740   15.3420 ca        1 D64     -0.130000
     16 C23         6.0890  -17.2080   15.2910 ca        1 D64     -0.118000
     17 CAP         6.7800  -16.9600   14.0960 cp        1 D64     -0.037000
     18 C25         6.4460  -17.7030   12.9540 ca        1 D64     -0.118000
     19 H8         10.9590  -15.4990   12.6990 ha        1 D64      0.153000
     20 H13         6.7360  -14.5320   15.2110 ha        1 D64      0.127000
     21 H7N1        6.8290  -12.7730   16.2060 hn        1 D64      0.426300
     22 H7N2        7.4240  -11.2060   16.4100 hn        1 D64      0.426300
     23 H141       12.5140  -11.1400   13.7870 hn        1 D64      0.424300
     24 H142       11.5940  -10.0670   14.7060 hn        1 D64      0.424300
     25 H9          9.1420  -17.1890   12.8300 ha        1 D64      0.139000
     26 H22         4.5580  -18.3620   16.2880 ha        1 D64      0.131500
     27 H23         6.3490  -16.6410   16.1980 ha        1 D64      0.132500
     28 H25         6.9760  -17.5150   12.0080 ha        1 D64      0.132500
     29 H26         5.1890  -19.2410   12.1040 ha        1 D64      0.131500
     30 HAC1        3.5830  -20.3620   15.2760 hc        1 D64      0.045033
     31 HAC2        2.6990  -19.4590   13.9770 hc        1 D64      0.045033
     32 HAC3        3.8800  -20.7590   13.5310 hc        1 D64      0.045033
     33 CAC         3.6780  -19.9270   14.2510 c3        1 D64     -0.054800
@<TRIPOS>BOND
     1    1    2 ar  
     2    1    6 ar  
     3    1    8 ar  
     4    2    3 ar  
     5    2   11 ar  
     6    3    4 ar  
     7    3    7 1   
     8    4    5 ar  
     9    5    6 ar  
    10    5   12 1   
    11    7   21 1   
    12    7   22 1   
    13    8    9 ar  
    14    8   19 1   
    15    9   10 ar  
    16    9   25 1   
    17   10   11 ar  
    18   10   17 1   
    19   11   20 1   
    20   12   23 1   
    21   12   24 1   
    22   13   14 ar  
    23   13   18 ar  
    24   13   29 1   
    25   14   15 ar  
    26   14   33 1   
    27   15   16 ar  
    28   15   26 1   
    29   16   17 ar  
    30   16   27 1   
    31   17   18 ar  
    32   18   28 1   
    33   30   33 1   
    34   31   33 1   
    35   32   33 1   
@<TRIPOS>SUBSTRUCTURE
     1 D64         1 TEMP              0 ****  ****    0 ROOT
