@<TRIPOS>MOLECULE
D64
   33    26     1     0     0
SMALL
bcc


@<TRIPOS>ATOM
      1 C1         -1.3670   -0.0170    2.2940 c1        1 D64      0.092000
      2 C2         -0.0090   -0.0220    2.2670 c1        1 D64     -0.203000
      3 C3          0.7060   -0.0100    3.4550 c1        1 D64      0.207000
      4 N4          0.0540    0.0050    4.6320 n1        1 D64     -0.300000
      5 C5         -1.3170    0.0100    4.6570 c1        1 D64      0.189000
      6 N6         -2.0230   -0.0020    3.4880 n1        1 D64     -0.265000
      7 N7          2.1240    0.0370    3.4290 n3        1 D64     -0.344000
      8 C8         -2.0960   -0.0300    1.0850 c1        1 D64     -0.135000
      9 C9         -1.4270   -0.0480   -0.1280 c1        1 D64     -0.101000
     10 C12        -0.0430   -0.0530   -0.1550 c1        1 D64     -0.054500
     11 C13         0.6730   -0.0400    1.0310 c1        1 D64     -0.065000
     12 N14        -2.0020    0.0000    5.9000 n3        1 D64     -0.324000
     13 C26         0.6900   -1.1860   -3.5640 c1        1 D64     -0.123500
     14 C27         0.7410    0.0250   -4.2370 c1        1 D64     -0.068000
     15 C22         0.5470    1.2110   -3.5460 c1        1 D64     -0.130000
     16 C23         0.3010    1.1860   -2.1820 c1        1 D64     -0.101000
     17 CAP         0.2500   -0.0250   -1.5090 c1        1 D64     -0.054500
     18 C25         0.4440   -1.2110   -2.2000 c1        1 D64     -0.123500
     19 CAC         1.0520    0.0540   -5.7170 c3        1 D64     -0.180000
     20 H8         -3.0720   -0.0270    1.1030 ha        1 D64      0.153000
     21 H13         1.6480   -0.0430    1.0110 ha        1 D64      0.128000
     22 H7N1        2.5850    0.3340    4.1610 hn        1 D64      0.220000
     23 H7N2        2.5780   -0.2520    2.6910 hn        1 D64      0.220000
     24 H141       -1.5310   -0.0500    6.6810 hn        1 D64      0.220500
     25 H142       -2.9150    0.0280    5.9180 hn        1 D64      0.220500
     26 H9         -1.9320   -0.0570   -0.9640 ha        1 D64      0.136500
     27 H22         0.5830    2.0630   -4.0200 ha        1 D64      0.132000
     28 H23         0.1650    2.0210   -1.6950 ha        1 D64      0.136500
     29 H25         0.4080   -2.0630   -1.7260 ha        1 D64      0.133000
     30 H26         0.8270   -2.0210   -4.0500 ha        1 D64      0.133000
     31 HAC1        1.9990    0.2720   -5.8480 hc        1 D64      0.084000
     32 HAC2        0.4970    0.7340   -6.1540 hc        1 D64      0.084000
     33 HAC3        0.8620   -0.8240   -6.1080 hc        1 D64      0.084000
@<TRIPOS>BOND
     1    1    6 1   
     2    1    8 1   
     3    2    3 1   
     4    2   11 1   
     5    3    7 1   
     6    4    5 1   
     7    5   12 1   
     8    7   22 1   
     9    7   23 1   
    10    8   20 1   
    11    9   10 1   
    12    9   26 1   
    13   11   21 1   
    14   12   24 1   
    15   12   25 1   
    16   13   18 1   
    17   13   30 1   
    18   14   15 1   
    19   14   19 1   
    20   15   27 1   
    21   16   17 1   
    22   16   28 1   
    23   18   29 1   
    24   19   31 1   
    25   19   32 1   
    26   19   33 1   
@<TRIPOS>SUBSTRUCTURE
     1 D64         1 TEMP              0 ****  ****    0 ROOT
