@<TRIPOS>MOLECULE
D64
   35    37     1     0     0
SMALL
bcc


@<TRIPOS>ATOM
      1 C1          0.1850    0.3940    0.1700 c2        1 D64     -0.077000
      2 C2          1.5130   -0.1930    0.1120 c2        1 D64      0.022000
      3 C3          2.0870   -0.6280    1.4270 c2        1 D64      0.234000
      4 N4          1.4060   -0.4440    2.5820 n2        1 D64     -0.279000
      5 C5          0.1480    0.1540    2.4700 c2        1 D64      0.057000
      6 N6         -0.4930    0.5680    1.3850 n2        1 D64     -0.138000
      7 N7          3.3070   -1.2170    1.4820 nh        1 D64     -0.301000
      8 C8         -0.4330    0.7890   -1.0050 c2        1 D64      0.054000
      9 C9          0.2130    0.6390   -2.3010 c3        1 D64     -0.218000
     10 C12         1.6010    0.1430   -2.3060 c2        1 D64      0.229000
     11 C13         2.1770   -0.3070   -1.0880 c2        1 D64     -0.190000
     12 N14        -0.5490    0.3320    3.7840 n4        1 D64     -0.012000
     13 C26         4.1350   -0.3660   -5.0480 c2        1 D64     -0.257000
     14 C27         3.5850    0.3930   -6.0740 c2        1 D64      0.151000
     15 C22         2.3000    1.0930   -5.8580 c3        1 D64     -0.240000
     16 C23         1.6860    0.9830   -4.5520 c1        1 D64     -0.089000
     17 CAP         2.2880    0.1830   -3.5440 c2        1 D64     -0.278000
     18 C25         3.5100   -0.4790   -3.8050 c2        1 D64      0.123000
     19 H8         -0.4320   -0.0410   -2.9560 hc        1 D64      0.247000
     20 H13         0.1740    1.6180   -2.9110 hc        1 D64      0.247000
     21 H7N1        3.1970   -0.7240   -1.1430 ha        1 D64      0.163000
     22 H7N2        3.6990   -1.5090    2.3540 hn        1 D64      0.272500
     23 H141       -0.6680   -0.5900    4.2270 hn        1 D64      0.284667
     24 H142        0.0310    0.9270    4.3920 hn        1 D64      0.284667
     25 H9         -1.4530    1.2250   -0.9980 ha        1 D64      0.202000
     26 H22         1.5350    0.7470   -6.6290 hc        1 D64      0.219500
     27 H23         2.4250    2.2020   -6.0910 hc        1 D64      0.219500
     28 H25         5.0880   -0.8990   -5.2190 ha        1 D64      0.184000
     29 H26         3.9810   -1.1240   -3.0410 ha        1 D64      0.150000
     30 HAC1        4.4340   -0.4910   -7.8240 hc        1 D64      0.145000
     31 HAC2        5.2660    1.0020   -7.2410 hc        1 D64      0.145000
     32 HAC3        3.6640    1.1370   -8.0950 hc        1 D64      0.145000
     33 H73         3.8340   -1.3740    0.6560 hn        1 D64      0.272500
     34 H143       -1.4700    0.7720    3.6460 hn        1 D64      0.284667
     35 CAC         4.2570    0.5230   -7.3720 c3        1 D64     -0.258000
@<TRIPOS>BOND
     1    1    2 1   
     2    1    6 1   
     3    1    8 1   
     4    2    3 1   
     5    2   11 1   
     6    3    4 1   
     7    3    7 1   
     8    4    5 1   
     9    5    6 1   
    10    5   12 1   
    11    7   22 1   
    12    7   33 1   
    13    8    9 1   
    14    8   25 1   
    15    9   10 1   
    16    9   19 1   
    17    9   20 1   
    18   10   11 1   
    19   10   17 1   
    20   11   21 1   
    21   12   23 1   
    22   12   24 1   
    23   12   34 1   
    24   13   14 1   
    25   13   18 1   
    26   13   28 1   
    27   14   15 1   
    28   14   35 1   
    29   15   16 1   
    30   15   26 1   
    31   15   27 1   
    32   16   17 1   
    33   17   18 1   
    34   18   29 1   
    35   30   35 1   
    36   31   35 1   
    37   32   35 1   
@<TRIPOS>SUBSTRUCTURE
     1 D64         1 TEMP              0 ****  ****    0 ROOT
