@<TRIPOS>MOLECULE
D64
   33    36     1     0     0
SMALL
bcc


@<TRIPOS>ATOM
      1 C1          0.2610   -0.5830   -0.1790 ca        1 D64      0.353300
      2 C2          1.5800   -0.1050   -0.6590 ca        1 D64     -0.242600
      3 C3          2.4240    0.5950    0.3420 ca        1 D64      0.734200
      4 N4          2.0290    0.7890    1.5960 nb        1 D64     -0.827000
      5 C5          0.7590    0.2410    1.9650 ca        1 D64      0.894900
      6 N6         -0.1120   -0.3730    1.1550 nb        1 D64     -0.797000
      7 N7          3.6740    1.0210   -0.0640 nh        1 D64     -0.965500
      8 C8         -0.5950   -1.2300   -1.0280 c2        1 D64     -0.175200
      9 C9         -0.3350   -1.5250   -2.4630 c3        1 D64      0.018000
     10 C12         0.9690   -1.0280   -2.8870 ce        1 D64     -0.068200
     11 C13         1.8870   -0.3390   -1.9390 ce        1 D64     -0.057200
     12 N14         0.4540    0.3360    3.3360 nh        1 D64     -0.918500
     13 C26         2.7830    0.0550   -5.8970 ce        1 D64     -0.113000
     14 C27         3.5500    1.0200   -5.1130 ce        1 D64     -0.083200
     15 C22         3.2850    1.1400   -3.6380 c3        1 D64     -0.033200
     16 C23         2.9190   -0.1990   -3.0530 cy        1 D64     -0.014300
     17 CAP         1.8320   -0.8760   -3.9310 cf        1 D64     -0.090200
     18 C25         1.9520   -0.8590   -5.3480 cf        1 D64     -0.094000
     19 H8         -0.3970   -2.6410   -2.6230 hc        1 D64      0.070200
     20 H13        -1.1530   -1.0640   -3.0880 hc        1 D64      0.070200
     21 H7N1        3.8510    1.0670   -1.0370 hn        1 D64      0.434300
     22 H7N2        4.2200    1.5850    0.5410 hn        1 D64      0.434300
     23 H141        0.9320    1.0520    3.8340 hn        1 D64      0.414800
     24 H142       -0.5090    0.2330    3.5670 hn        1 D64      0.414800
     25 H9         -1.5720   -1.5850   -0.6630 ha        1 D64      0.145000
     26 H22         2.4430    1.8700   -3.4890 hc        1 D64      0.053200
     27 H23         4.1890    1.5600   -3.1230 hc        1 D64      0.053200
     28 H25         3.8200   -0.8330   -2.8790 hc        1 D64      0.084700
     29 H26         1.3650   -1.5630   -5.9560 ha        1 D64      0.142000
     30 HAC1        2.9130    0.1080   -6.9900 ha        1 D64      0.132000
     31 HAC2        4.6600    1.7740   -6.7800 ha        1 D64      0.117000
     32 HAC3        5.0530    2.5430   -5.1390 ha        1 D64      0.117000
     33 CAC         4.4590    1.8110   -5.7020 c2        1 D64     -0.204000
@<TRIPOS>BOND
     1    1    2 ar  
     2    1    6 ar  
     3    1    8 2   
     4    2    3 ar  
     5    2   11 2   
     6    3    4 ar  
     7    3    7 1   
     8    4    5 ar  
     9    5    6 ar  
    10    5   12 1   
    11    7   21 1   
    12    7   22 1   
    13    8    9 1   
    14    8   25 1   
    15    9   10 1   
    16    9   19 1   
    17    9   20 1   
    18   10   11 1   
    19   10   17 2   
    20   11   16 1   
    21   12   23 1   
    22   12   24 1   
    23   13   14 1   
    24   13   18 2   
    25   13   30 1   
    26   14   15 1   
    27   14   33 2   
    28   15   16 1   
    29   15   26 1   
    30   15   27 1   
    31   16   17 1   
    32   16   28 1   
    33   17   18 1   
    34   18   29 1   
    35   31   33 1   
    36   32   33 1   
@<TRIPOS>SUBSTRUCTURE
     1 D64         1 TEMP              0 ****  ****    0 ROOT
