@<TRIPOS>MOLECULE
D64
   33    35     1     0     0
SMALL
bcc


@<TRIPOS>ATOM
      1 C1          0.0410    0.3170    0.1490 cv        1 D64      0.046000
      2 C2          1.4530    0.0660    0.2440 cv        1 D64     -0.370000
      3 C3          1.9800   -0.2830    1.4910 c2        1 D64      0.223000
      4 N4          1.1080   -0.4040    2.5640 n2        1 D64     -0.296000
      5 C5         -0.2200   -0.1120    2.3610 c2        1 D64      0.183000
      6 N6         -0.8360    0.2460    1.1310 n2        1 D64     -0.210000
      7 N7          3.3420   -0.4660    1.6930 nv        1 D64     -0.331000
      8 C8          0.1300    0.6410   -1.3310 cy        1 D64     -0.109000
      9 C9          2.4130   -1.9130   -1.5600 c1        1 D64      0.185000
     10 C12         2.2280   -0.6980   -2.0640 c2        1 D64     -0.328000
     11 C13         1.6960    0.3970   -1.2070 cy        1 D64      0.045000
     12 N14        -1.0510   -0.1210    3.4840 nv        1 D64     -0.330000
     13 C26         2.8680   -0.9480   -5.7910 c2        1 D64     -0.193000
     14 C27         3.2930    0.3010   -6.1130 c2        1 D64     -0.052000
     15 C22         3.3810    1.3470   -5.0620 c3        1 D64     -0.204000
     16 C23         3.0050    0.9880   -3.7030 c1        1 D64     -0.084000
     17 CAP         2.5800   -0.3470   -3.4380 c2        1 D64     -0.114000
     18 C25         2.5030   -1.2790   -4.4450 c2        1 D64     -0.017000
     19 H8         -0.3960   -0.0800   -1.9890 hc        1 D64      0.116000
     20 H13         2.2930    1.3280   -1.3780 hc        1 D64      0.157000
     21 H7N1        3.8590   -0.7060    0.8790 hn        1 D64      0.214500
     22 H7N2        3.6300   -0.9050    2.5370 hn        1 D64      0.214500
     23 H141       -0.7110   -0.5810    4.2960 hn        1 D64      0.223500
     24 H142       -2.0290   -0.1730    3.3190 hn        1 D64      0.223500
     25 H9         -0.1380    1.6860   -1.5870 hc        1 D64      0.116000
     26 H22         2.7360    2.2310   -5.3530 hc        1 D64      0.166500
     27 H23         4.4390    1.7460   -5.0110 hc        1 D64      0.166500
     28 H25         2.7900   -1.7400   -6.5510 ha        1 D64      0.139000
     29 H26         2.1590   -2.3100   -4.2490 ha        1 D64      0.139000
     30 HAC1        3.5700   -0.1720   -8.1990 hc        1 D64      0.093000
     31 HAC2        3.0450    1.5290   -7.8460 hc        1 D64      0.093000
     32 HAC3        4.7500    1.0180   -7.5030 hc        1 D64      0.093000
     33 CAC         3.6820    0.6820   -7.4860 c3        1 D64     -0.198000
@<TRIPOS>BOND
     1    1    2 1   
     2    1    6 1   
     3    1    8 1   
     4    2    3 1   
     5    2   11 1   
     6    3    4 1   
     7    3    7 1   
     8    4    5 1   
     9    5    6 1   
    10    5   12 1   
    11    7   21 1   
    12    7   22 1   
    13    8   11 1   
    14    8   19 1   
    15    8   25 1   
    16    9   10 1   
    17   10   11 1   
    18   10   17 1   
    19   11   20 1   
    20   12   23 1   
    21   12   24 1   
    22   13   14 1   
    23   13   18 1   
    24   13   28 1   
    25   14   15 1   
    26   14   33 1   
    27   15   16 1   
    28   15   26 1   
    29   15   27 1   
    30   16   17 1   
    31   17   18 1   
    32   18   29 1   
    33   30   33 1   
    34   31   33 1   
    35   32   33 1   
@<TRIPOS>SUBSTRUCTURE
     1 D64         1 TEMP              0 ****  ****    0 ROOT
