@<TRIPOS>MOLECULE
D66
   49    49     1     0     0
SMALL
bcc


@<TRIPOS>ATOM
      1 C1          6.9970   -2.1470    0.6800 c3        1 D66      0.116700
      2 N1          0.5280    0.7720    1.2830 n3        1 D66     -0.942800
      3 O1          6.7000   -1.3150   -0.4320 os        1 D66     -0.338900
      4 C2          5.5400   -0.5610   -0.3260 ca        1 D66      0.104100
      5 N2         -2.1700    0.1620   -0.6290 n         1 D66     -0.482900
      6 O2         -0.2820    3.3150   -0.4940 oh        1 D66     -0.604800
      7 C3          5.1340    0.0750   -1.5110 ca        1 D66     -0.182500
      8 O3         -2.4910    2.2180    0.4100 o         1 D66     -0.642100
      9 C4          3.9920    0.8680   -1.4960 ca        1 D66     -0.090500
     10 C5          3.2470    1.0390   -0.3210 ca        1 D66     -0.092300
     11 C6          2.0390    1.9070   -0.3260 c3        1 D66     -0.023100
     12 C7          0.7330    1.1140   -0.1050 c3        1 D66      0.163500
     13 C8         -0.4200    1.9330   -0.7570 c3        1 D66      0.026100
     14 C9         -1.7830    1.4290   -0.2570 c         1 D66      0.606100
     15 C10        -3.1570   -0.5690    0.1560 c3        1 D66     -0.071300
     16 C11        -4.1820   -1.2890   -0.7230 c3        1 D66     -0.062400
     17 C12        -5.1480   -0.3560   -1.4380 c3        1 D66     -0.069700
     18 C13        -5.8460   -1.0950   -2.5630 c3        1 D66     -0.085100
     19 C14        -6.1740    0.2150   -0.4800 c3        1 D66     -0.085100
     20 C15        -2.4840   -1.6370    1.0960 c         1 D66      0.904600
     21 C16         3.6680    0.4000    0.8500 ca        1 D66     -0.090500
     22 C17         4.8090   -0.4000    0.8560 ca        1 D66     -0.182500
     23 H1          6.1380   -2.8190    0.9200 h1        1 D66      0.038367
     24 H1A         7.8810   -2.7420    0.3370 h1        1 D66      0.038367
     25 H1B         7.2660   -1.5270    1.5710 h1        1 D66      0.038367
     26 HN1         0.0040    1.4830    1.7520 hn        1 D66      0.383800
     27 HN1A        0.0600   -0.1160    1.3760 hn        1 D66      0.383800
     28 HN2        -1.4180   -0.4350   -0.9210 hn        1 D66      0.302500
     29 HO2        -0.7530    3.5100    0.3300 ho        1 D66      0.423000
     30 H3          5.7190   -0.0640   -2.4300 ha        1 D66      0.133000
     31 H4          3.6690    1.3630   -2.4240 ha        1 D66      0.145000
     32 H6          2.1380    2.6960    0.4660 hc        1 D66      0.050700
     33 H6A         1.9580    2.4400   -1.3110 hc        1 D66      0.050700
     34 H7          0.8150    0.1500   -0.6930 h1        1 D66      0.065700
     35 H8         -0.3520    1.8470   -1.8770 h1        1 D66      0.076700
     36 H10        -3.6980    0.1610    0.8240 h1        1 D66      0.076700
     37 H11        -3.6510   -1.9220   -1.4820 hc        1 D66      0.052700
     38 H11A       -4.7530   -1.9820   -0.0470 hc        1 D66      0.052700
     39 H12        -4.5680    0.4990   -1.8850 hc        1 D66      0.050700
     40 H13        -6.4010   -1.9780   -2.1650 hc        1 D66      0.025367
     41 H13A       -6.5730   -0.4230   -3.0800 hc        1 D66      0.025367
     42 H13B       -5.1010   -1.4550   -3.3130 hc        1 D66      0.025367
     43 H14        -5.6690    0.8030    0.3240 hc        1 D66      0.025367
     44 H14A       -6.8800    0.8890   -1.0240 hc        1 D66      0.025367
     45 H14B       -6.7630   -0.6040   -0.0020 hc        1 D66      0.025367
     46 H16         3.0830    0.5190    1.7760 ha        1 D66      0.145000
     47 H17         5.1150   -0.9010    1.7840 ha        1 D66      0.133000
     48 O4         -1.2230   -1.7440    1.0700 o         1 D66     -0.831300
     49 O5         -3.2510   -2.3130    1.8270 o         1 D66     -0.831300
@<TRIPOS>BOND
     1    1    3 1   
     2    1   23 1   
     3    1   24 1   
     4    1   25 1   
     5    2   12 1   
     6    2   26 1   
     7    2   27 1   
     8    3    4 1   
     9    4    7 ar  
    10    4   22 ar  
    11    5   14 1   
    12    5   15 1   
    13    5   28 1   
    14    6   13 1   
    15    6   29 1   
    16    7    9 ar  
    17    7   30 1   
    18    8   14 2   
    19    9   10 ar  
    20    9   31 1   
    21   10   11 1   
    22   10   21 ar  
    23   11   12 1   
    24   11   32 1   
    25   11   33 1   
    26   12   13 1   
    27   12   34 1   
    28   13   14 1   
    29   13   35 1   
    30   15   16 1   
    31   15   20 1   
    32   15   36 1   
    33   16   17 1   
    34   16   37 1   
    35   16   38 1   
    36   17   18 1   
    37   17   19 1   
    38   17   39 1   
    39   18   40 1   
    40   18   41 1   
    41   18   42 1   
    42   19   43 1   
    43   19   44 1   
    44   19   45 1   
    45   20   48 1   
    46   20   49 1   
    47   21   22 ar  
    48   21   46 1   
    49   22   47 1   
@<TRIPOS>SUBSTRUCTURE
     1 D66         1 TEMP              0 ****  ****    0 ROOT
