@<TRIPOS>MOLECULE
D66
   51    49     1     0     0
SMALL
bcc


@<TRIPOS>ATOM
      1 C1          0.8060    0.3280   -0.2590 c1        1 D66      0.085000
      2 N1          2.4610   -0.2380    7.2650 n3        1 D66     -0.219000
      3 O1          1.9890    0.6700    0.0910 os        1 D66     -0.038000
      4 C2          2.4560    0.8540    1.4060 c2        1 D66      0.135000
      5 N2          6.3500    4.1260    8.1210 n4        1 D66     -0.057000
      6 O2          4.8970   -0.3180    7.0950 oh        1 D66     -0.267000
      7 C3          3.7250    1.4700    1.5160 c2        1 D66     -0.206000
      8 O3          5.1170    1.7230    8.9020 o         1 D66     -0.336000
      9 C4          4.2910    1.7380    2.7520 c2        1 D66      0.117000
     10 C5          3.5000    1.5090    3.9380 cx        1 D66     -0.265000
     11 C6          3.1250    0.3010    4.8870 cx        1 D66      0.072000
     12 C7          2.8140    0.7660    6.2670 cx        1 D66     -0.090000
     13 C8          3.7600    0.4360    7.4040 cx        1 D66     -0.004000
     14 C9          4.0000    1.5170    8.4240 c2        1 D66      0.255000
     15 C10         6.1660    4.6860    6.7370 c3        1 D66     -0.108000
     16 C11         7.4430    4.6880    5.9760 c2        1 D66     -0.228000
     17 C12         8.5240    5.4200    6.2900 c2        1 D66     -0.054000
     18 C13         8.6140    6.3030    7.4790 c3        1 D66     -0.205000
     19 C14         9.7390    5.3930    5.4370 c3        1 D66     -0.205000
     20 C15         5.0380    3.8820    6.0150 c2        1 D66      0.352000
     21 C16         2.3300    0.6620    3.7280 cu        1 D66      0.021000
     22 C17         1.7770    0.3210    2.5380 c2        1 D66     -0.185000
     23 H1         -0.1230    2.3330   -1.0510 ha        1 D66      0.003500
     24 H1A        -0.2020    2.4160   -0.3810 ha        1 D66      0.003500
     25 H1B        -0.0040    0.1150    0.4680 ha        1 D66      0.064000
     26 HN1         1.8450    3.8500    5.2090 ha        1 D66      0.003500
     27 HN1A        2.4040    4.1890    5.3920 ha        1 D66      0.003500
     28 HN2         3.1140    2.1350    8.6850 h4        1 D66      0.126000
     29 HO2         5.1060   -0.8520    7.8770 ho        1 D66      0.235000
     30 H3          4.2550    1.7390    0.5840 ha        1 D66      0.198000
     31 H4          5.2530    2.2790    2.8600 ha        1 D66      0.213000
     32 H6          6.1310   -0.6930    3.6370 ha        1 D66      0.003500
     33 H6A         5.6380   -0.2430    3.5140 ha        1 D66      0.003500
     34 H7          2.3350    1.7800    6.2870 h1        1 D66      0.169000
     35 H8          3.6690   -0.6730    4.8490 hc        1 D66      0.187000
     36 H10         5.4140    3.9190    8.5080 hn        1 D66      0.251333
     37 H11         6.8590    3.2380    8.0690 hn        1 D66      0.251333
     38 H11A        5.7770    5.7420    6.8580 hx        1 D66      0.145000
     39 H12         7.4170    4.0710    5.0590 ha        1 D66      0.175000
     40 H13         7.6150    6.7170    7.7660 hc        1 D66      0.095833
     41 H13A        9.0390    5.7410    8.3490 hc        1 D66      0.095833
     42 H13B        9.2930    7.1680    7.2710 hc        1 D66      0.095833
     43 H14         9.8710    6.3880    4.9410 hc        1 D66      0.095833
     44 H14A       10.6450    5.1910    6.0610 hc        1 D66      0.095833
     45 H14B        9.6710    4.6100    4.6430 hc        1 D66      0.095833
     46 H16         3.5230    2.4750    4.5640 hc        1 D66      0.312000
     47 H17         0.9240   -0.3670    2.4330 ha        1 D66      0.194000
     48 O4          4.1340    3.3750    6.7470 o         1 D66     -0.558000
     49 O5          5.0620    3.7840    4.7650 o         1 D66     -0.558000
     50 H131        1.7480    0.0310    7.9150 hn        1 D66      0.182000
     51 H22         6.8580    4.7790    8.7140 hn        1 D66      0.251333
@<TRIPOS>BOND
     1    1    3 1   
     2    1   25 1   
     3    2   12 1   
     4    2   13 1   
     5    2   50 1   
     6    3    4 1   
     7    4    7 1   
     8    4   22 1   
     9    5   15 1   
    10    5   36 1   
    11    5   37 1   
    12    5   51 1   
    13    6   13 1   
    14    6   29 1   
    15    7    9 1   
    16    7   30 1   
    17    8   14 1   
    18    9   10 1   
    19    9   31 1   
    20   10   11 1   
    21   10   21 1   
    22   10   46 1   
    23   11   12 1   
    24   11   21 1   
    25   11   35 1   
    26   12   13 1   
    27   12   34 1   
    28   13   14 1   
    29   14   28 1   
    30   15   16 1   
    31   15   20 1   
    32   15   38 1   
    33   16   17 1   
    34   16   39 1   
    35   17   18 1   
    36   17   19 1   
    37   18   40 1   
    38   18   41 1   
    39   18   42 1   
    40   19   43 1   
    41   19   44 1   
    42   19   45 1   
    43   20   48 1   
    44   20   49 1   
    45   21   22 1   
    46   22   47 1   
    47   23   24 1   
    48   26   27 1   
    49   32   33 1   
@<TRIPOS>SUBSTRUCTURE
     1 D66         1 TEMP              0 ****  ****    0 ROOT
