@<TRIPOS>MOLECULE
D66
   49    47     1     0     0
SMALL
bcc


@<TRIPOS>ATOM
      1 C1         -6.3090   -2.5120   -5.4210 c3        1 D66     -0.073000
      2 N1         -1.9600   -0.0460    0.3370 n3        1 D66     -0.322000
      3 O1         -5.1040   -1.7520   -5.2030 os        1 D66     -0.213000
      4 C2         -4.4940   -1.9810   -3.9280 c2        1 D66      0.064000
      5 N2          2.1330    0.9760    0.9780 n         1 D66     -0.309000
      6 O2          0.1170   -1.6090    1.4640 oh        1 D66     -0.343000
      7 C3         -3.1750   -1.7220   -4.2680 c1        1 D66     -0.149000
      8 O3         -0.1300    1.4490    1.0710 o         1 D66     -0.412000
      9 C4         -2.1850   -1.7160   -3.2780 c1        1 D66     -0.090000
     10 O4          2.9600    3.5440   -0.1650 o         1 D66     -0.565500
     11 C5         -2.5250   -1.9700   -1.9530 c1        1 D66     -0.103000
     12 O5          1.4570    4.2000    1.2720 o         1 D66     -0.565500
     13 C6         -1.3950   -2.0810   -0.8590 c2        1 D66     -0.163000
     14 C7         -0.9370   -0.6790   -0.4560 c3        1 D66     -0.055000
     15 C8          0.3270   -0.7700    0.3440 c3        1 D66      0.008000
     16 C9          0.7260    0.6290    0.8230 c2        1 D66      0.270000
     17 C10         2.4930    2.0960    1.7270 c3        1 D66     -0.080000
     18 C11         3.9740    1.9940    2.1150 c3        1 D66     -0.145000
     19 C12         4.1050    1.9280    3.6260 c3        1 D66     -0.118000
     20 C13         5.3070    1.0200    3.9990 c3        1 D66     -0.199000
     21 C14         4.3400    3.3330    4.1780 c3        1 D66     -0.199000
     22 C15         2.2730    3.3500    0.9000 c2        1 D66      0.331000
     23 C16        -3.8460   -2.2290   -1.6120 c2        1 D66     -0.104000
     24 C17        -4.8340   -2.2350   -2.5980 c2        1 D66     -0.209000
     25 H1         -6.9950   -2.2370   -4.7700 h1        1 D66      0.077333
     26 H1A        -6.6350   -2.3510   -6.3240 h1        1 D66      0.077333
     27 H1B        -6.1170   -3.4640   -5.3090 h1        1 D66      0.077333
     28 HN1        -2.5350    0.4340   -0.2210 hn        1 D66      0.142000
     29 HN1A       -2.4260   -0.6730    0.7840 hn        1 D66      0.142000
     30 HN2         2.7510    0.5420    0.5050 hn        1 D66      0.236000
     31 HO2         0.8810   -2.0100    1.6810 ho        1 D66      0.232000
     32 H3         -2.9280   -1.5680   -5.2140 ha        1 D66      0.152000
     33 H4         -1.2700   -1.6570   -3.5260 ha        1 D66      0.162000
     34 H6         -0.6380   -2.5800   -1.2220 ha        1 D66      0.094000
     35 H6A        -1.7390   -2.5370   -0.0920 ha        1 D66      0.094000
     36 H7         -0.7790   -0.1650   -1.2340 h1        1 D66      0.130000
     37 H8          1.0350   -1.1380   -0.2090 h1        1 D66      0.112000
     38 H10         1.9560    2.1370    2.5150 h1        1 D66      0.103000
     39 H11         4.4420    2.7610    1.7890 hc        1 D66      0.090000
     40 H11A        4.3480    1.2090    1.7320 hc        1 D66      0.090000
     41 H12         3.2660    1.5500    4.0180 hc        1 D66      0.108000
     42 H13         5.1130    0.1110    3.7430 hc        1 D66      0.061833
     43 H13A        5.4590    1.0610    4.9560 hc        1 D66      0.061833
     44 H13B        6.1240    1.3350    3.5180 hc        1 D66      0.061833
     45 H14         3.5050    3.7620    4.3200 hc        1 D66      0.061833
     46 H14A        4.8110    3.2750    5.0040 hc        1 D66      0.061833
     47 H14B        4.8740    3.8570    3.5290 hc        1 D66      0.061833
     48 H16        -4.0720   -2.4560   -0.7030 ha        1 D66      0.128000
     49 H17        -5.7490   -2.4160   -2.3610 ha        1 D66      0.128000
@<TRIPOS>BOND
     1    1    3 1   
     2    1   25 1   
     3    1   26 1   
     4    1   27 1   
     5    2   14 1   
     6    2   28 1   
     7    2   29 1   
     8    3    4 1   
     9    4    7 1   
    10    4   24 1   
    11    5   16 1   
    12    5   17 1   
    13    5   30 1   
    14    6   15 1   
    15    6   31 1   
    16    7   32 1   
    17    8   16 1   
    18    9   11 1   
    19    9   33 1   
    20   10   22 1   
    21   11   23 1   
    22   12   22 1   
    23   13   14 1   
    24   13   34 1   
    25   13   35 1   
    26   14   15 1   
    27   14   36 1   
    28   15   16 1   
    29   15   37 1   
    30   17   18 1   
    31   17   22 1   
    32   17   38 1   
    33   18   19 1   
    34   18   39 1   
    35   18   40 1   
    36   19   20 1   
    37   19   21 1   
    38   19   41 1   
    39   20   42 1   
    40   20   43 1   
    41   20   44 1   
    42   21   45 1   
    43   21   46 1   
    44   21   47 1   
    45   23   24 1   
    46   23   48 1   
    47   24   49 1   
@<TRIPOS>SUBSTRUCTURE
     1 D66         1 TEMP              0 ****  ****    0 ROOT
