@<TRIPOS>MOLECULE
D66
   51    48     1     0     0
SMALL
bcc


@<TRIPOS>ATOM
      1 C1          0.7540    1.3300   -0.2880 c2        1 D66      0.176000
      2 N1          2.0600    1.9770    5.9390 n8        1 D66     -0.328000
      3 O1          1.6550    1.8230    0.4760 os        1 D66      0.002000
      4 C2          2.2920    1.0490    1.5240 c2        1 D66     -0.038000
      5 N2          7.6020    3.1090    6.9960 n8        1 D66     -0.354000
      6 O2          4.4280    0.5840    8.4370 oh        1 D66     -0.286000
      7 C3          3.3200    1.6750    2.0420 c1        1 D66     -0.093000
      8 O3          4.9060    3.3510    8.1040 o         1 D66     -0.307000
      9 C4          4.3400    2.2680    2.5780 c2        1 D66     -0.036000
     10 C5          2.7610   -2.0410    3.1980 c2        1 D66     -0.164000
     11 C6          1.7240    0.6490    7.9470 c2        1 D66     -0.255000
     12 C7          2.5270    1.2990    7.0830 c2        1 D66     -0.078000
     13 C8          4.0370    1.2060    7.2380 c3        1 D66      0.085000
     14 C9          4.6640    2.5920    7.1740 c2        1 D66      0.309000
     15 C10         6.9740    4.3240    6.5110 c3        1 D66     -0.001000
     16 C11         7.8960    5.3150    5.8610 c2        1 D66     -0.245000
     17 C12         8.8770    5.9490    6.5210 c2        1 D66     -0.058000
     18 C13         9.1730    5.7270    7.9580 c3        1 D66     -0.198000
     19 C14         9.7510    6.9340    5.8370 c3        1 D66     -0.198000
     20 C15         5.8620    3.9500    5.5390 c2        1 D66      0.352000
     21 C16         2.2420   -0.8180    3.1110 c2        1 D66     -0.198000
     22 C17         1.6820   -0.2610    1.8510 c3        1 D66     -0.093000
     23 H1          1.8480   -0.9750    0.9960 hc        1 D66      0.102000
     24 H1A         0.3830    0.2900   -0.2230 h4        1 D66      0.202500
     25 H1B         0.3600    2.0510   -1.0420 h4        1 D66      0.202500
     26 HN1         2.1700   -0.1520    3.9890 ha        1 D66      0.158000
     27 HN1A        2.6170    2.7760    5.7030 hn        1 D66      0.176500
     28 HN2         3.3570    4.6760    4.7410 ha        1 D66      0.002000
     29 HO2         4.1350    1.1360    9.1770 ho        1 D66      0.227000
     30 H3          4.2480    2.9440    3.4610 ha        1 D66      0.204000
     31 H4          5.3720    2.1330    2.2050 ha        1 D66      0.204000
     32 H6          2.8450   -2.7240    2.3420 ha        1 D66      0.130000
     33 H6A         2.1320    0.0360    8.7610 ha        1 D66      0.136500
     34 H7          0.6290    0.6740    7.8800 ha        1 D66      0.136500
     35 H8          4.4720    0.5570    6.4220 h1        1 D66      0.161000
     36 H10         8.4300    2.8950    6.4780 hn        1 D66      0.172500
     37 H11         7.8170    3.1890    7.9700 hn        1 D66      0.172500
     38 H11A        6.4480    4.8420    7.3800 h1        1 D66      0.153000
     39 H12         7.7100    5.5130    4.7930 ha        1 D66      0.153000
     40 H13         8.2350    5.5740    8.5490 hc        1 D66      0.092000
     41 H13A        9.8180    4.8210    8.0810 hc        1 D66      0.092000
     42 H13B        9.7190    6.6020    8.3910 hc        1 D66      0.092000
     43 H14        10.8250    6.6590    5.9840 hc        1 D66      0.092000
     44 H14A        9.5880    7.9520    6.2730 hc        1 D66      0.092000
     45 H14B        9.5430    6.9820    4.7400 hc        1 D66      0.092000
     46 H16         3.1360   -2.4430    4.1500 ha        1 D66      0.130000
     47 H17         0.5700   -0.1310    1.9880 hc        1 D66      0.102000
     48 O4          4.8950    3.0120    5.8820 os        1 D66     -0.326000
     49 O5          5.6720    4.3390    4.3880 o         1 D66     -0.325000
     50 H131        1.0930    2.2220    6.0140 hn        1 D66      0.176500
     51 H22         2.7980    4.5690    4.3730 ha        1 D66      0.002000
@<TRIPOS>BOND
     1    1    3 1   
     2    1   24 1   
     3    1   25 1   
     4    2   12 1   
     5    2   27 1   
     6    2   50 1   
     7    3    4 1   
     8    4    7 1   
     9    4   22 1   
    10    5   15 1   
    11    5   36 1   
    12    5   37 1   
    13    6   13 1   
    14    6   29 1   
    15    7    9 1   
    16    8   14 1   
    17    9   30 1   
    18    9   31 1   
    19   10   21 1   
    20   10   32 1   
    21   10   46 1   
    22   11   12 1   
    23   11   33 1   
    24   11   34 1   
    25   12   13 1   
    26   13   14 1   
    27   13   35 1   
    28   14   48 1   
    29   15   16 1   
    30   15   20 1   
    31   15   38 1   
    32   16   17 1   
    33   16   39 1   
    34   17   18 1   
    35   17   19 1   
    36   18   40 1   
    37   18   41 1   
    38   18   42 1   
    39   19   43 1   
    40   19   44 1   
    41   19   45 1   
    42   20   48 1   
    43   20   49 1   
    44   21   22 1   
    45   21   26 1   
    46   22   23 1   
    47   22   47 1   
    48   28   51 1   
@<TRIPOS>SUBSTRUCTURE
     1 D66         1 TEMP              0 ****  ****    0 ROOT
