@<TRIPOS>MOLECULE
D66
   51    47     1     0     0
SMALL
bcc


@<TRIPOS>ATOM
      1 C1          1.5390   -1.7650    1.8890 c1        1 D66      0.025000
      2 N1          1.6020    5.9000    7.0020 n2        1 D66     -0.189000
      3 O1          2.0620   -1.1780    2.8720 os        1 D66     -0.007000
      4 C2          2.1720    0.2580    3.0460 c2        1 D66     -0.062000
      5 N2          8.4410    4.6860    3.3080 n3        1 D66     -0.327000
      6 O2          3.5440    0.0980    6.9520 oh        1 D66     -0.468000
      7 C3          1.7610    1.1230    2.1530 c1        1 D66     -0.174000
      8 O3          1.1720    1.2650    8.3690 o         1 D66     -0.283000
      9 C4          1.3390    1.9410    1.2410 c2        1 D66     -0.089000
     10 C5          3.4770    2.8810    5.4680 c3        1 D66     -0.100000
     11 C6          2.5150    3.4800    6.3660 cu        1 D66     -0.133000
     12 C7          1.8660    4.6820    6.8920 cu        1 D66      0.070000
     13 C8          1.6260    3.3300    7.3590 cu        1 D66     -0.130000
     14 C9          0.9180    2.4700    8.2810 c2        1 D66      0.265000
     15 C10         8.4180    3.8700    4.4920 c3        1 D66     -0.027000
     16 C11         9.3080    4.4140    5.6140 c3        1 D66     -0.164000
     17 C12         9.1710    3.5250    6.8370 c3        1 D66     -0.141000
     18 C13         7.7370    3.5680    7.3360 c3        1 D66     -0.015000
     19 C14        10.1120    3.9700    7.9360 c3        1 D66     -0.212000
     20 C15         7.0190    3.5760    5.0280 c2        1 D66      0.278000
     21 C16         3.0960    1.6810    4.8570 c1        1 D66      0.223000
     22 C17         2.7890    0.5470    4.3200 c2        1 D66     -0.038000
     23 H1          3.4110   -1.9340    0.4290 ha        1 D66      0.003500
     24 H1A         3.4020   -2.5800    0.6390 ha        1 D66      0.003500
     25 H1B         1.0760   -1.2740    1.0160 ha        1 D66      0.087000
     26 HN1        -1.8400    3.1310    0.7980 ha        1 D66      0.003500
     27 HN1A       -1.6940    3.2600    1.4470 ha        1 D66      0.003500
     28 HN2         0.1410    2.9670    8.9020 h4        1 D66      0.153000
     29 HO2         2.7960    0.0970    7.5620 ho        1 D66      0.234500
     30 H3          0.3030    2.3300    1.2280 ha        1 D66      0.173500
     31 H4          1.9880    2.2960    0.4210 ha        1 D66      0.173500
     32 H6          4.4860    2.6990    6.0190 hc        1 D66      0.261000
     33 H6A         5.7640    1.3270    7.3910 ha        1 D66      0.003500
     34 H7          5.3500    1.6960    7.7810 ha        1 D66      0.003500
     35 H8          4.2330   -0.3810    7.4250 ho        1 D66      0.234500
     36 H10         7.8020    4.3450    2.6170 hn        1 D66      0.170000
     37 H11        10.3740    4.4270    5.2650 hc        1 D66      0.115000
     38 H11A        8.8160    2.8470    4.1910 h1        1 D66      0.139000
     39 H12         9.0250    5.4670    5.8720 hc        1 D66      0.115000
     40 H13         7.5550    2.7940    8.1300 h1        1 D66      0.109000
     41 H13A        9.4240    2.4650    6.5490 hc        1 D66      0.108000
     42 H13B        7.4790    4.5880    7.7290 h1        1 D66      0.109000
     43 H14         9.9040    5.0260    8.2330 hc        1 D66      0.091333
     44 H14A        9.9950    3.3170    8.8340 hc        1 D66      0.091333
     45 H14B       11.1700    3.9030    7.5830 hc        1 D66      0.091333
     46 H16         3.8190    3.6140    4.6490 hc        1 D66      0.261000
     47 H17         3.0390   -0.3730    4.9440 ha        1 D66      0.297000
     48 O4          5.9870    3.5050    4.3430 o         1 D66     -0.406000
     49 O5          6.7630    3.2520    6.3300 os        1 D66     -0.291000
     50 H131        2.0720    6.5430    6.4000 hn        1 D66      0.187000
     51 H22         8.2580    5.6480    3.5070 hn        1 D66      0.170000
@<TRIPOS>BOND
     1    1    3 1   
     2    1   25 1   
     3    2   12 1   
     4    2   50 1   
     5    3    4 1   
     6    4    7 1   
     7    4   22 1   
     8    5   15 1   
     9    5   36 1   
    10    5   51 1   
    11    6   29 1   
    12    6   35 1   
    13    7    9 1   
    14    8   14 1   
    15    9   30 1   
    16    9   31 1   
    17   10   11 1   
    18   10   21 1   
    19   10   32 1   
    20   10   46 1   
    21   11   12 1   
    22   11   13 1   
    23   12   13 1   
    24   13   14 1   
    25   14   28 1   
    26   15   16 1   
    27   15   20 1   
    28   15   38 1   
    29   16   17 1   
    30   16   37 1   
    31   16   39 1   
    32   17   18 1   
    33   17   19 1   
    34   17   41 1   
    35   18   40 1   
    36   18   42 1   
    37   18   49 1   
    38   19   43 1   
    39   19   44 1   
    40   19   45 1   
    41   20   48 1   
    42   20   49 1   
    43   21   22 1   
    44   22   47 1   
    45   23   24 1   
    46   26   27 1   
    47   33   34 1   
@<TRIPOS>SUBSTRUCTURE
     1 D66         1 TEMP              0 ****  ****    0 ROOT
