@<TRIPOS>MOLECULE
D67
   37    39     1     0     0
SMALL
bcc


@<TRIPOS>ATOM
      1 C1          1.5050   -1.3840   -0.6360 ca        1 D67     -0.180000
      2 F1          6.2760   -1.3280    0.0210 f         1 D67     -0.236300
      3 N1         -0.0030   -0.5350    1.1380 nh        1 D67     -0.631000
      4 C2          1.2730   -0.8800    0.6620 ca        1 D67      0.182600
      5 F2          5.5040   -1.9050   -1.9220 f         1 D67     -0.236300
      6 N2         -2.1530    0.2350    0.2920 na        1 D67     -0.023800
      7 C3          2.3740   -0.7290    1.5420 ca        1 D67     -0.180000
      8 F3          5.5560   -3.3460   -0.3040 f         1 D67     -0.236300
      9 N3         -2.1690    1.4780    0.7900 nc        1 D67     -0.546100
     10 C4          3.6500   -1.0950    1.1350 ca        1 D67     -0.047000
     11 F4         -3.7810    3.5990    2.1320 f         1 D67     -0.230300
     12 N4         -4.1890    1.0780   -0.3160 nd        1 D67     -0.338300
     13 C5          3.8600   -1.6100   -0.1460 ca        1 D67     -0.198300
     14 F5         -2.9340    4.3230    0.3010 f         1 D67     -0.230300
     15 N5         -3.6650   -1.2740   -1.0050 nc        1 D67     -0.635000
     16 C6          2.7880   -1.7470   -1.0280 ca        1 D67     -0.047000
     17 C7         -1.1720   -0.7690    0.4030 cc        1 D67      0.282300
     18 C8         -1.4720   -1.9960   -0.1920 cd        1 D67     -0.345300
     19 C9         -2.7150   -2.1970   -0.8870 cd        1 D67      0.488600
     20 C10        -2.9130   -3.5510   -1.4940 c3        1 D67     -0.160400
     21 C11        -3.4160   -0.0520   -0.4040 cc        1 D67      0.420500
     22 C12        -3.3950    1.9730    0.4130 cd        1 D67      0.455300
     23 C13        -3.8490    3.3970    0.7660 c3        1 D67      0.430300
     24 C14        -5.2630    3.6770    0.2230 c3        1 D67     -0.128100
     25 C16         5.2580   -2.0310   -0.5760 c3        1 D67      0.692200
     26 H1          0.6780   -1.4830   -1.3570 ha        1 D67      0.151500
     27 HN1        -0.0210    0.2170    1.7990 hn        1 D67      0.462800
     28 H3          2.2290   -0.3230    2.5560 ha        1 D67      0.151500
     29 H4          4.5030   -0.9760    1.8240 ha        1 D67      0.156500
     30 H6          2.9610   -2.1360   -2.0460 ha        1 D67      0.156500
     31 H8         -0.7620   -2.8320   -0.1180 ha        1 D67      0.175000
     32 H10        -3.8930   -3.6410   -2.0250 hc        1 D67      0.067367
     33 H10A       -2.0890   -3.7480   -2.2250 hc        1 D67      0.067367
     34 H10B       -2.8710   -4.3220   -0.6850 hc        1 D67      0.067367
     35 H14        -5.2640    3.5730   -0.8860 hc        1 D67      0.073367
     36 H14A       -5.9840    2.9540    0.6700 hc        1 D67      0.073367
     37 H14B       -5.5570    4.7170    0.5010 hc        1 D67      0.073367
@<TRIPOS>BOND
     1    1    4 ar  
     2    1   16 ar  
     3    1   26 1   
     4    2   25 1   
     5    3    4 1   
     6    3   17 1   
     7    3   27 1   
     8    4    7 ar  
     9    5   25 1   
    10    6    9 1   
    11    6   17 1   
    12    6   21 1   
    13    7   10 ar  
    14    7   28 1   
    15    8   25 1   
    16    9   22 2   
    17   10   13 ar  
    18   10   29 1   
    19   11   23 1   
    20   12   21 2   
    21   12   22 1   
    22   13   16 ar  
    23   13   25 1   
    24   14   23 1   
    25   15   19 2   
    26   15   21 1   
    27   16   30 1   
    28   17   18 2   
    29   18   19 1   
    30   18   31 1   
    31   19   20 1   
    32   20   32 1   
    33   20   33 1   
    34   20   34 1   
    35   22   23 1   
    36   23   24 1   
    37   24   35 1   
    38   24   36 1   
    39   24   37 1   
@<TRIPOS>SUBSTRUCTURE
     1 D67         1 TEMP              0 ****  ****    0 ROOT
