@<TRIPOS>MOLECULE
D67
   37    39     1     0     0
SMALL
bcc


@<TRIPOS>ATOM
      1 C1         -0.0990    0.7010    0.3480 ca        1 D67     -0.180000
      2 F1          0.2240    1.6450    5.0600 f         1 D67     -0.236300
      3 N1          1.2620   -1.1130   -0.6510 nu        1 D67     -0.631000
      4 C2          0.8980   -0.2950    0.4320 ca        1 D67      0.182600
      5 F2         -1.2800    2.6870    3.8950 f         1 D67     -0.236300
      6 N2          0.2950   -2.0390   -2.6850 na        1 D67     -0.023800
      7 C3          1.5830   -0.4740    1.6610 ca        1 D67     -0.180000
      8 F3          0.7740    3.3760    3.8770 f         1 D67     -0.236300
      9 N3          0.2520   -3.3360   -2.3550 nc        1 D67     -0.546100
     10 C4          1.2900    0.3370    2.7490 ca        1 D67     -0.047000
     11 F4          0.7140   -6.1460   -3.2430 f         1 D67     -0.230300
     12 N4         -0.4890   -3.0900   -4.5580 nd        1 D67     -0.338300
     13 C5          0.3130    1.3310    2.6440 ca        1 D67     -0.198300
     14 F5         -1.2970   -5.8820   -2.5490 f         1 D67     -0.230300
     15 N5         -0.2030   -0.6020   -4.6680 nc        1 D67     -0.635000
     16 C6         -0.3810    1.5050    1.4470 ca        1 D67     -0.047000
     17 C7          0.7470   -0.9320   -1.9400 cc        1 D67      0.282300
     18 C8          0.7130    0.3050   -2.5870 cd        1 D67     -0.345300
     19 C9          0.2250    0.4220   -3.9350 cd        1 D67      0.488600
     20 C10         0.2240    1.8030   -4.5130 c3        1 D67     -0.160400
     21 C11        -0.1570   -1.8500   -4.0720 cc        1 D67      0.420500
     22 C12        -0.2250   -3.9530   -3.4860 cd        1 D67      0.455300
     23 C13        -0.4500   -5.4710   -3.5620 c3        1 D67      0.430300
     24 C14        -0.9820   -5.8830   -4.9460 c3        1 D67     -0.128100
     25 C16         0.0150    2.2300    3.8340 c3        1 D67      0.692200
     26 H1         -0.6740    0.8440   -0.5800 ha        1 D67      0.151500
     27 HN1         1.5660   -2.0350   -0.4040 hn        1 D67      0.462800
     28 H3          2.3540   -1.2530    1.7630 ha        1 D67      0.151500
     29 H4          1.8260    0.1940    3.7010 ha        1 D67      0.156500
     30 H6         -1.1640    2.2780    1.3740 ha        1 D67      0.156500
     31 H8          1.0770    1.2050   -2.0730 ha        1 D67      0.175000
     32 H10         1.2710    2.1960   -4.5160 hc        1 D67      0.067367
     33 H10A       -0.4100    2.4660   -3.8730 hc        1 D67      0.067367
     34 H10B       -0.1720    1.8280   -5.5580 hc        1 D67      0.067367
     35 H14        -1.1300   -6.9890   -4.9620 hc        1 D67      0.073367
     36 H14A       -0.2440   -5.5950   -5.7300 hc        1 D67      0.073367
     37 H14B       -1.9550   -5.3740   -5.1390 hc        1 D67      0.073367
@<TRIPOS>BOND
     1    1    4 ar  
     2    1   16 ar  
     3    1   26 1   
     4    2   25 1   
     5    3    4 1   
     6    3   17 1   
     7    3   27 1   
     8    4    7 ar  
     9    5   25 1   
    10    6    9 1   
    11    6   17 1   
    12    6   21 1   
    13    7   10 ar  
    14    7   28 1   
    15    8   25 1   
    16    9   22 2   
    17   10   13 ar  
    18   10   29 1   
    19   11   23 1   
    20   12   21 2   
    21   12   22 1   
    22   13   16 ar  
    23   13   25 1   
    24   14   23 1   
    25   15   19 2   
    26   15   21 1   
    27   16   30 1   
    28   17   18 2   
    29   18   19 1   
    30   18   31 1   
    31   19   20 1   
    32   20   32 1   
    33   20   33 1   
    34   20   34 1   
    35   22   23 1   
    36   23   24 1   
    37   24   35 1   
    38   24   36 1   
    39   24   37 1   
@<TRIPOS>SUBSTRUCTURE
     1 D67         1 TEMP              0 ****  ****    0 ROOT
