@<TRIPOS>MOLECULE
D67
   37    39     1     0     0
SMALL
bcc


@<TRIPOS>ATOM
      1 C1         -0.1160    0.7160    0.3290 ca        1 D67     -0.180000
      2 F1          0.1690    1.7010    5.0340 f         1 D67     -0.236300
      3 N1          1.2670   -1.0940   -0.6470 nh        1 D67     -0.631000
      4 C2          0.8890   -0.2710    0.4270 ca        1 D67      0.181600
      5 F2         -1.3350    2.7210    3.8510 f         1 D67     -0.236300
      6 N2          0.3120   -2.0490   -2.6740 na        1 D67     -0.022800
      7 C3          1.5680   -0.4340    1.6610 ca        1 D67     -0.180000
      8 F3          0.7140    3.4260    3.8420 f         1 D67     -0.236300
      9 N3          0.2780   -3.3430   -2.3300 nc        1 D67     -0.546100
     10 C4          1.2610    0.3830    2.7400 ca        1 D67     -0.047000
     11 F4          0.7640   -6.1580   -3.1900 f         1 D67     -0.230300
     12 N4         -0.4600   -3.1250   -4.5380 nd        1 D67     -0.338300
     13 C5          0.2770    1.3680    2.6220 ca        1 D67     -0.198300
     14 F5         -1.2480   -5.9030   -2.4980 f         1 D67     -0.230300
     15 N5         -0.1920   -0.6370   -4.6740 nc        1 D67     -0.635000
     16 C6         -0.4110    1.5270    1.4190 ca        1 D67     -0.047000
     17 C7          0.7530   -0.9310   -1.9400 cc        1 D67      0.282300
     18 C8          0.7120    0.2990   -2.6000 cd        1 D67     -0.344300
     19 C9          0.2260    0.3980   -3.9510 cd        1 D67      0.488600
     20 C10         0.2160    1.7730   -4.5430 c3        1 D67     -0.160400
     21 C11        -0.1390   -1.8780   -4.0640 cc        1 D67      0.420500
     22 C12        -0.1920   -3.9750   -3.4560 cd        1 D67      0.455300
     23 C13        -0.4050   -5.4950   -3.5150 c3        1 D67      0.430300
     24 C14        -0.9340   -5.9260   -4.8960 c3        1 D67     -0.128100
     25 C16        -0.0360    2.2740    3.8030 c3        1 D67      0.692200
     26 H1         -0.6860    0.8470   -0.6040 ha        1 D67      0.151500
     27 HN1         1.5780   -2.0110   -0.3910 hn        1 D67      0.462800
     28 H3          2.3450   -1.2060    1.7740 ha        1 D67      0.151500
     29 H4          1.7930    0.2520    3.6970 ha        1 D67      0.156500
     30 H6         -1.2010    2.2920    1.3350 ha        1 D67      0.156500
     31 H8          1.0680    1.2070   -2.0950 ha        1 D67      0.175000
     32 H10        -0.1790    1.7830   -5.5880 hc        1 D67      0.067367
     33 H10A        1.2610    2.1730   -4.5510 hc        1 D67      0.067367
     34 H10B       -0.4220    2.4380   -3.9110 hc        1 D67      0.067367
     35 H14        -1.9110   -5.4270   -5.0930 hc        1 D67      0.073367
     36 H14A       -0.1990   -5.6410   -5.6830 hc        1 D67      0.073367
     37 H14B       -1.0750   -7.0330   -4.9000 hc        1 D67      0.073367
@<TRIPOS>BOND
     1    1    4 ar  
     2    1   16 ar  
     3    1   26 1   
     4    2   25 1   
     5    3    4 1   
     6    3   17 1   
     7    3   27 1   
     8    4    7 ar  
     9    5   25 1   
    10    6    9 1   
    11    6   17 1   
    12    6   21 1   
    13    7   10 ar  
    14    7   28 1   
    15    8   25 1   
    16    9   22 2   
    17   10   13 ar  
    18   10   29 1   
    19   11   23 1   
    20   12   21 2   
    21   12   22 1   
    22   13   16 ar  
    23   13   25 1   
    24   14   23 1   
    25   15   19 2   
    26   15   21 1   
    27   16   30 1   
    28   17   18 2   
    29   18   19 1   
    30   18   31 1   
    31   19   20 1   
    32   20   32 1   
    33   20   33 1   
    34   20   34 1   
    35   22   23 1   
    36   23   24 1   
    37   24   35 1   
    38   24   36 1   
    39   24   37 1   
@<TRIPOS>SUBSTRUCTURE
     1 D67         1 TEMP              0 ****  ****    0 ROOT
