@<TRIPOS>MOLECULE
D67
   38    40     1     0     0
SMALL
bcc


@<TRIPOS>ATOM
      1 C1          0.9670    1.3370    0.3630 ca        1 D67     -0.096000
      2 F1         -0.6200   -0.2740    4.6170 f         1 D67     -0.213300
      3 N1          2.1810   -0.1570   -1.2070 n4        1 D67     -0.510800
      4 C2          1.3940    0.0410    0.0210 ca        1 D67     -0.038400
      5 F2         -2.2340    0.5670    3.4220 f         1 D67     -0.213300
      6 N2          0.6810   -1.4690   -2.6760 na        1 D67     -0.010800
      7 C3          1.0970   -1.0620    0.8380 ca        1 D67     -0.096000
      8 F3         -0.6780    1.8650    4.2160 f         1 D67     -0.213300
      9 N3          0.6880   -2.6270   -2.0060 nc        1 D67     -0.569100
     10 C4          0.3660   -0.8560    2.0100 ca        1 D67     -0.059000
     11 F4          0.7660   -5.5900   -2.1900 f         1 D67     -0.218800
     12 N4         -0.6740   -2.8450   -3.8970 nd        1 D67     -0.280300
     13 C5         -0.0590    0.4270    2.3530 ca        1 D67     -0.113300
     14 F5         -0.9340   -4.9310   -1.0580 f         1 D67     -0.218800
     15 N5         -0.3310   -0.5040   -4.7480 nc        1 D67     -0.559000
     16 C6          0.2400    1.5220    1.5360 ca        1 D67     -0.059000
     17 C7          1.3310   -0.2700   -2.4160 cc        1 D67      0.095300
     18 C8          1.1630    0.7870   -3.2920 cd        1 D67     -0.239300
     19 C9          0.3140    0.6190   -4.4600 cd        1 D67      0.483600
     20 C10         0.1930    1.8120   -5.3540 c3        1 D67     -0.171400
     21 C11        -0.1730   -1.5730   -3.8860 cc        1 D67      0.431500
     22 C12        -0.1320   -3.4440   -2.7510 cd        1 D67      0.495300
     23 C13        -0.4250   -4.9080   -2.3410 c3        1 D67      0.433300
     24 C14        -1.3620   -5.5850   -3.3530 c3        1 D67     -0.131100
     25 C16        -0.8810    0.6420    3.6310 c3        1 D67      0.688200
     26 H1          1.1940    2.2080   -0.2730 ha        1 D67      0.172500
     27 HN1         2.8090    0.6500   -1.3360 hn        1 D67      0.479800
     28 H3          1.4190   -2.0870    0.5800 ha        1 D67      0.172500
     29 H4          0.1280   -1.7150    2.6650 ha        1 D67      0.191500
     30 H6         -0.0950    2.5340    1.8250 ha        1 D67      0.191500
     31 H8          1.6510    1.7620   -3.1410 ha        1 D67      0.183000
     32 H10        -0.2240    2.6700   -4.7680 hc        1 D67      0.087033
     33 H10A        1.2070    2.0880   -5.7370 hc        1 D67      0.087033
     34 H10B       -0.4790    1.6200   -6.2290 hc        1 D67      0.087033
     35 H14        -2.3310   -5.0370   -3.3960 hc        1 D67      0.085033
     36 H14A       -1.5460   -6.6370   -3.0230 hc        1 D67      0.085033
     37 H14B       -0.8850   -5.5940   -4.3610 hc        1 D67      0.085033
     38 H12         2.7520   -1.0130   -1.1030 hn        1 D67      0.479800
@<TRIPOS>BOND
     1    1    4 ar  
     2    1   16 ar  
     3    1   26 1   
     4    2   25 1   
     5    3    4 1   
     6    3   17 1   
     7    3   27 1   
     8    3   38 1   
     9    4    7 ar  
    10    5   25 1   
    11    6    9 1   
    12    6   17 1   
    13    6   21 1   
    14    7   10 ar  
    15    7   28 1   
    16    8   25 1   
    17    9   22 2   
    18   10   13 ar  
    19   10   29 1   
    20   11   23 1   
    21   12   21 2   
    22   12   22 1   
    23   13   16 ar  
    24   13   25 1   
    25   14   23 1   
    26   15   19 2   
    27   15   21 1   
    28   16   30 1   
    29   17   18 2   
    30   18   19 1   
    31   18   31 1   
    32   19   20 1   
    33   20   32 1   
    34   20   33 1   
    35   20   34 1   
    36   22   23 1   
    37   23   24 1   
    38   24   35 1   
    39   24   36 1   
    40   24   37 1   
@<TRIPOS>SUBSTRUCTURE
     1 D67         1 TEMP              0 ****  ****    0 ROOT
