@<TRIPOS>MOLECULE
D6G
   26    26     1     0     0
SMALL
bcc


@<TRIPOS>ATOM
      1 C1         -0.3130    0.0520   -1.9320 c3        1 D6G      0.345900
      2 C2          1.1980    0.0510   -1.9550 c3        1 D6G     -0.134400
      3 C3          1.7840    0.0530   -0.5910 c3        1 D6G      0.189100
      4 C4          1.2210   -1.0330    0.2680 c3        1 D6G      0.022100
      5 C5         -0.3020   -1.0310    0.2810 c3        1 D6G      0.093100
      6 C6         -0.7740    0.1690    1.0010 c3        1 D6G      0.214400
      7 O1         -0.7750   -0.1220   -3.2130 oh        1 D6G     -0.636800
      8 O3          1.5160    1.3370    0.0360 oh        1 D6G     -0.674800
      9 O4          1.6770   -2.2950   -0.2240 oh        1 D6G     -0.641800
     10 O5         -0.8730   -1.0290   -1.0650 os        1 D6G     -0.482600
     11 O6         -1.8840   -0.1650    1.7860 os        1 D6G     -0.569200
     12 P          -2.4950    0.9300    2.7210 p5        1 D6G      1.334900
     13 O1P        -3.0580    0.2790    3.9560 o         1 D6G     -0.924833
     14 O2P        -1.4180    1.9130    3.1150 o         1 D6G     -0.924833
     15 O3P        -3.5930    1.6550    1.9910 o         1 D6G     -0.924833
     16 H1         -0.6280    0.9300   -1.5930 h2        1 D6G      0.085700
     17 H21         1.5070   -0.7450   -2.4310 hc        1 D6G      0.034200
     18 H22         1.5070    0.8450   -2.4320 hc        1 D6G      0.034200
     19 H3          2.7550   -0.0690   -0.6620 h1        1 D6G      0.012700
     20 H4          1.5470   -0.9130    1.1860 h1        1 D6G      0.189700
     21 H5         -0.6120   -1.8180    0.7500 h1        1 D6G      0.056700
     22 H61        -1.0250    0.8550    0.3580 h1        1 D6G      0.000700
     23 H62        -0.0600    0.5060    1.5740 h1        1 D6G      0.000700
     24 HO1        -1.3450    0.5360   -3.4160 ho        1 D6G      0.399000
     25 HO3         2.2770    1.8140    0.0820 ho        1 D6G      0.505000
     26 HO4         2.1640   -2.7040    0.4070 ho        1 D6G      0.395000
@<TRIPOS>BOND
     1    1    2 1   
     2    1    7 1   
     3    1   10 1   
     4    1   16 1   
     5    2    3 1   
     6    2   17 1   
     7    2   18 1   
     8    3    4 1   
     9    3    8 1   
    10    3   19 1   
    11    4    5 1   
    12    4    9 1   
    13    4   20 1   
    14    5    6 1   
    15    5   10 1   
    16    5   21 1   
    17    6   11 1   
    18    6   22 1   
    19    6   23 1   
    20    7   24 1   
    21    8   25 1   
    22    9   26 1   
    23   11   12 1   
    24   12   13 1   
    25   12   14 1   
    26   12   15 1   
@<TRIPOS>SUBSTRUCTURE
     1 D6G         1 TEMP              0 ****  ****    0 ROOT
