@<TRIPOS>MOLECULE
D6G
   26    26     1     0     0
SMALL
bcc


@<TRIPOS>ATOM
      1 C1         -1.8250    1.6450   -0.5290 c3        1 D6G      0.363900
      2 C2         -3.2140    1.0340   -0.2730 c3        1 D6G     -0.139400
      3 C3         -3.1480   -0.3430    0.3730 c3        1 D6G      0.093100
      4 C4         -2.0370   -1.2290   -0.2370 c3        1 D6G      0.126100
      5 C5         -0.7300   -0.4200   -0.1310 c3        1 D6G      0.089100
      6 C6          0.6060   -1.0880   -0.5570 c3        1 D6G      0.247400
      7 O1         -1.3110    2.2110    0.6390 oh        1 D6G     -0.704800
      8 O3         -4.3810   -1.0460    0.1940 oh        1 D6G     -0.635800
      9 O4         -1.9280   -2.4380    0.4910 oh        1 D6G     -0.574800
     10 O5         -0.9140    0.6910   -1.0200 os        1 D6G     -0.415600
     11 O6          1.5480   -0.9690    0.4260 os        1 D6G     -0.560200
     12 P           2.5670    0.4480    0.3200 p5        1 D6G      1.335900
     13 O1P         3.6110    0.1910    1.3650 o         1 D6G     -0.932833
     14 O2P         3.0130    0.4030   -1.1140 o         1 D6G     -0.932833
     15 O3P         1.5320    1.5040    0.6510 o         1 D6G     -0.932833
     16 H1         -1.9010    2.4270   -1.3410 h2        1 D6G      0.027700
     17 H21        -3.8000    1.7260    0.3820 hc        1 D6G      0.028700
     18 H22        -3.7410    0.9460   -1.2580 hc        1 D6G      0.028700
     19 H3         -2.9510   -0.2370    1.4780 h1        1 D6G      0.055700
     20 H4         -2.2840   -1.4550   -1.3100 h1        1 D6G      0.028700
     21 H5         -0.6180   -0.0640    0.9320 h1        1 D6G      0.095700
     22 H61         0.3800   -2.1780   -0.7390 h1        1 D6G      0.008700
     23 H62         0.9620   -0.5980   -1.5100 h1        1 D6G      0.008700
     24 HO1        -0.3220    2.0650    0.6560 ho        1 D6G      0.537000
     25 HO3        -5.0720   -0.4700    0.5340 ho        1 D6G      0.379000
     26 HO4        -2.8040   -2.8410    0.4590 ho        1 D6G      0.376000
@<TRIPOS>BOND
     1    1    2 1   
     2    1    7 1   
     3    1   10 1   
     4    1   16 1   
     5    2    3 1   
     6    2   17 1   
     7    2   18 1   
     8    3    4 1   
     9    3    8 1   
    10    3   19 1   
    11    4    5 1   
    12    4    9 1   
    13    4   20 1   
    14    5    6 1   
    15    5   10 1   
    16    5   21 1   
    17    6   11 1   
    18    6   22 1   
    19    6   23 1   
    20    7   24 1   
    21    8   25 1   
    22    9   26 1   
    23   11   12 1   
    24   12   13 1   
    25   12   14 1   
    26   12   15 1   
@<TRIPOS>SUBSTRUCTURE
     1 D6G         1 TEMP              0 ****  ****    0 ROOT
