@<TRIPOS>MOLECULE
D6I
   53    52     1     0     0
SMALL
bcc


@<TRIPOS>ATOM
      1 C28         3.2970   -2.8660    0.4840 c1        1 D6I     -0.089500
      2 C27         6.7210   -0.9640    3.4960 c1        1 D6I     -0.161900
      3 C29         3.2270   -2.2490    1.5080 cg        1 D6I     -0.177300
      4 C26         5.5960   -1.3910    2.8720 cf        1 D6I     -0.329100
      5 C9          9.5410    3.3280   10.1570 c3        1 D6I      0.060900
      6 C10         8.3690    2.8360    9.4930 c1        1 D6I     -0.031100
      7 C16         5.2230    0.7780    6.4580 ce        1 D6I     -0.459600
      8 C13        11.1230    4.5800    8.6980 c1        1 D6I      0.303500
      9 C19         7.7310    0.2730    5.3040 c1        1 D6I      0.085000
     10 C22         0.7260   -1.0720    3.5380 c1        1 D6I      0.485800
     11 C24         3.1140   -1.5240    2.7180 ce        1 D6I      0.625000
     12 C25         4.2590   -1.1110    3.3770 cf        1 D6I      0.034900
     13 C8         10.6990    3.4370    9.2240 c2        1 D6I     -0.109200
     14 C17         5.3220    0.0510    5.2310 ce        1 D6I      0.403100
     15 C11         7.4080    2.4100    8.9160 c1        1 D6I     -0.201300
     16 C15         6.3970    1.2410    7.0920 c2        1 D6I      0.201800
     17 C1          9.1190   -1.9790    2.5390 c3        1 D6I      0.022767
     18 C3          9.3050    0.1030    1.3080 c3        1 D6I      0.022767
     19 C5         12.9790    0.6980    9.2750 c2        1 D6I     -0.256000
     20 C4         10.5070   -0.1840    3.4170 c3        1 D6I      0.022767
     21 C6         12.3140    1.7940    9.6450 c2        1 D6I     -0.006900
     22 N12        11.3880    5.6000    8.0690 n2        1 D6I     -0.607800
     23 N18         6.6070   -0.2040    4.6800 nh        1 D6I     -0.145800
     24 N20         7.6280    0.9720    6.4750 nu        1 D6I     -0.261600
     25 N23         1.8410   -1.2650    3.1860 n1        1 D6I     -1.124500
     26 N21         4.1950   -0.3860    4.5950 nu        1 D6I     -0.274300
     27 N14         6.3170    1.9400    8.2810 nu        1 D6I     -0.127300
     28 N2         10.0200   -0.8570    2.1870 nx        1 D6I     -0.636400
     29 H28         7.2690   -1.8470    0.2160 ha        1 D6I      0.001000
     30 H27         6.9600   -2.2010   -0.2720 ha        1 D6I      0.001000
     31 H29         3.3580   -3.4140   -0.4230 ha        1 D6I      0.178500
     32 H26         5.6680   -1.9830    1.9480 ha        1 D6I      0.175000
     33 H9          9.3150    4.3340   10.6130 hc        1 D6I      0.090700
     34 H10         9.8200    2.6220   10.9940 hc        1 D6I      0.090700
     35 H16         4.2360    0.9720    6.9020 ha        1 D6I      0.179000
     36 H13        12.0450    6.2740    8.4040 hn        1 D6I      0.463400
     37 H19         8.4820    1.2870    6.8990 hn        1 D6I      0.345700
     38 H22         3.3100   -0.1980    5.0180 hn        1 D6I      0.319700
     39 H14         5.4180    2.1090    8.6870 hn        1 D6I      0.336700
     40 H11C        9.6190   -2.6410    3.2840 hx        1 D6I      0.109700
     41 H12C        8.8600   -2.5480    1.6150 hx        1 D6I      0.109700
     42 H13C        8.0810   -1.5150    3.0260 hx        1 D6I      0.109700
     43 H31C        8.9960   -0.4240    0.3660 hx        1 D6I      0.109700
     44 H32C        9.9770    0.9660    1.0640 hx        1 D6I      0.109700
     45 H33C        8.3840    0.4650    1.8420 hx        1 D6I      0.109700
     46 H51C       11.1580   -0.8950    3.9880 hx        1 D6I      0.109700
     47 H52C       12.7540    0.1490    8.3540 ha        1 D6I      0.132500
     48 H41C       13.7900    0.2960    9.8940 ha        1 D6I      0.132500
     49 H42C       11.0930    0.7300    3.1390 hx        1 D6I      0.109700
     50 H61C        9.6190    0.0990    4.0560 hx        1 D6I      0.109700
     51 H62C       12.4970    2.3840   10.5530 h4        1 D6I      0.145000
     52 H21        10.8350   -1.2140    1.6740 hn        1 D6I      0.412800
     53 O7         11.2780    2.2370    8.8120 os        1 D6I     -0.258200
@<TRIPOS>BOND
     1    1    3 3   
     2    1   31 1   
     3    2    4 2   
     4    2   23 2   
     5    3   11 1   
     6    4   12 1   
     7    4   32 1   
     8    5    6 1   
     9    5   13 1   
    10    5   33 1   
    11    5   34 1   
    12    6   15 3   
    13    7   14 1   
    14    7   16 2   
    15    7   35 1   
    16    8   13 2   
    17    8   22 2   
    18    9   23 2   
    19    9   24 2   
    20   10   25 3   
    21   11   12 2   
    22   11   25 1   
    23   12   26 1   
    24   13   53 1   
    25   14   23 1   
    26   14   26 2   
    27   15   27 1   
    28   16   24 1   
    29   16   27 1   
    30   17   28 1   
    31   17   40 1   
    32   17   41 1   
    33   17   42 1   
    34   18   28 1   
    35   18   43 1   
    36   18   44 1   
    37   18   45 1   
    38   19   21 2   
    39   19   47 1   
    40   19   48 1   
    41   20   28 1   
    42   20   46 1   
    43   20   49 1   
    44   20   50 1   
    45   21   51 1   
    46   21   53 1   
    47   22   36 1   
    48   24   37 1   
    49   26   38 1   
    50   27   39 1   
    51   28   52 1   
    52   29   30 1   
@<TRIPOS>SUBSTRUCTURE
     1 D6I         1 TEMP              0 ****  ****    0 ROOT
