@<TRIPOS>MOLECULE
D6I
   52    53     1     0     0
SMALL
bcc


@<TRIPOS>ATOM
      1 C28         0.0400   -1.2020   -0.0370 c1        1 D6I     -0.211000
      2 C27         4.3560   -0.5070    2.2620 c1        1 D6I     -0.090000
      3 C29         0.3030   -0.7820    1.0530 c1        1 D6I     -0.096000
      4 C26         3.0430   -0.5910    1.8800 c2        1 D6I     -0.354000
      5 C9          8.6960    0.3140    9.2000 c3        1 D6I     -0.077000
      6 C10         7.3620    0.4960    8.6830 c1        1 D6I     -0.220000
      7 C16         3.9090    0.8940    5.7230 c2        1 D6I     -0.372000
      8 C13         9.0970    2.2970    7.8160 c1        1 D6I     -0.168000
      9 C19         5.9530    0.0800    3.9650 c1        1 D6I      0.155000
     10 C22        -1.3630    0.4030    3.8170 c1        1 D6I      0.071000
     11 C24         0.6130   -0.2860    2.3380 c2        1 D6I     -0.022000
     12 C25         1.9460   -0.1980    2.7310 c2        1 D6I      0.134000
     13 C8          9.6340    1.1290    8.3120 c2        1 D6I      0.053000
     14 C17         3.5980    0.3900    4.4180 c2        1 D6I      0.184000
     15 C11         6.8830    1.4340    7.8760 c2        1 D6I     -0.106000
     16 C15         5.2560    0.9940    6.1210 c2        1 D6I      0.229000
     17 C1         15.4330   -0.7040    5.8510 c3        1 D6I     -0.121500
     18 C3         15.6810    1.2370    4.4450 c3        1 D6I     -0.121500
     19 C5         12.9050    0.5740    6.9070 c3        1 D6I     -0.170000
     20 C4         13.5840    0.8390    5.5630 c3        1 D6I     -0.063000
     21 C6         11.4620    1.0310    6.8240 c3        1 D6I     -0.037000
     22 N12         7.8550    2.5540    7.5610 n3        1 D6I     -0.066000
     23 N18         4.6460   -0.0120    3.5450 n3        1 D6I     -0.107000
     24 N20         6.2370    0.5680    5.2190 n3        1 D6I     -0.252000
     25 N23        -0.4390    0.0910    3.1510 n2        1 D6I     -0.263000
     26 N21         2.2950    0.2950    4.0140 n3        1 D6I     -0.206000
     27 N14         5.5860    1.5790    7.3410 n3        1 D6I     -0.219000
     28 N2         15.0290    0.6610    5.6010 n3        1 D6I     -0.263000
     29 H28         2.8880   -1.8820   -1.3900 ha        1 D6I      0.000500
     30 H27         2.2430   -1.7780   -1.2100 ha        1 D6I      0.000500
     31 H29        -0.1850   -1.5750   -1.0020 ha        1 D6I      0.224000
     32 H26         2.7990   -0.9760    0.8800 ha        1 D6I      0.177000
     33 H9          8.7470    0.6150   10.2810 hc        1 D6I      0.163500
     34 H10         9.0320   -0.7600    9.1300 hc        1 D6I      0.163500
     35 H16         3.1030    1.2020    6.4010 ha        1 D6I      0.164000
     36 H13         7.5190    3.4970    7.5560 hn        1 D6I      0.247000
     37 H19         7.2010    0.5990    5.4780 hn        1 D6I      0.273000
     38 H22         1.5810    0.5820    4.6500 hn        1 D6I      0.256000
     39 H14         4.8540    1.6270    8.0200 hn        1 D6I      0.256000
     40 H11C       15.0290   -1.0270    6.8460 h1        1 D6I      0.073333
     41 H12C       16.5530   -0.7510    5.8900 h1        1 D6I      0.073333
     42 H13C       15.0720   -1.4250    5.0660 h1        1 D6I      0.073333
     43 H31C       15.3810    0.7500    3.4770 h1        1 D6I      0.073333
     44 H32C       15.4280    2.3290    4.3880 h1        1 D6I      0.073333
     45 H33C       16.7900    1.1330    4.5690 h1        1 D6I      0.073333
     46 H51C       13.1030    0.1760    4.7840 h1        1 D6I      0.072500
     47 H52C       12.9360   -0.5180    7.1570 hc        1 D6I      0.108000
     48 H41C       13.4280    1.1240    7.7320 hc        1 D6I      0.108000
     49 H42C       13.3800    1.9080    5.2680 h1        1 D6I      0.072500
     50 H61C       10.9140    0.5300    5.9850 h1        1 D6I      0.101500
     51 H62C       11.3760    2.1460    6.7280 h1        1 D6I      0.101500
     52 O7         10.8490    0.6180    8.0720 os        1 D6I     -0.149000
@<TRIPOS>BOND
     1    1    3 1   
     2    1   31 1   
     3    2    4 1   
     4    2   23 1   
     5    3   11 1   
     6    4   12 1   
     7    4   32 1   
     8    5    6 1   
     9    5   13 1   
    10    5   33 1   
    11    5   34 1   
    12    6   15 1   
    13    7   14 1   
    14    7   16 1   
    15    7   35 1   
    16    8   13 1   
    17    8   22 1   
    18    9   23 1   
    19    9   24 1   
    20   10   25 1   
    21   11   12 1   
    22   11   25 1   
    23   12   26 1   
    24   13   52 1   
    25   14   23 1   
    26   14   26 1   
    27   15   22 1   
    28   15   27 1   
    29   16   24 1   
    30   16   27 1   
    31   17   28 1   
    32   17   40 1   
    33   17   41 1   
    34   17   42 1   
    35   18   28 1   
    36   18   43 1   
    37   18   44 1   
    38   18   45 1   
    39   19   20 1   
    40   19   21 1   
    41   19   47 1   
    42   19   48 1   
    43   20   28 1   
    44   20   46 1   
    45   20   49 1   
    46   21   50 1   
    47   21   51 1   
    48   21   52 1   
    49   22   36 1   
    50   24   37 1   
    51   26   38 1   
    52   27   39 1   
    53   29   30 1   
@<TRIPOS>SUBSTRUCTURE
     1 D6I         1 TEMP              0 ****  ****    0 ROOT
