@<TRIPOS>MOLECULE
D6M
   64    63     1     0     0
SMALL
bcc


@<TRIPOS>ATOM
      1 O01         4.1390    0.8420    1.3730 o         1 D6M     -0.667100
      2 C02         4.2360    0.5260    0.1630 c         1 D6M      0.644100
      3 N03         5.4180    0.3040   -0.4900 n         1 D6M     -0.483900
      4 C04         6.7070    0.7880   -0.0170 c3        1 D6M     -0.044300
      5 C05         7.7910   -0.2990   -0.0920 c3        1 D6M     -0.051400
      6 C06         7.5890   -1.4170    0.9040 c3        1 D6M     -0.180400
      7 C07         8.5720   -2.5770    0.7080 c         1 D6M      0.903600
      8 O08         8.5900   -3.2010   -0.3960 o         1 D6M     -0.876300
      9 C09         7.1780    2.0280   -0.8520 c         1 D6M      0.900600
     10 O10         6.7280    2.1820   -2.0280 o         1 D6M     -0.855800
     11 O11         7.9760    2.8340   -0.2980 o         1 D6M     -0.855800
     12 C12         2.9660    0.2720   -0.6540 c3        1 D6M     -0.163400
     13 C13         1.7300    0.3960    0.2070 c3        1 D6M     -0.069400
     14 C14         0.4730    0.1590   -0.6020 c3        1 D6M     -0.079400
     15 C15        -0.7650    0.2850    0.2610 c3        1 D6M     -0.078400
     16 C16        -2.0260    0.0490   -0.5440 c3        1 D6M     -0.079400
     17 C17        -3.2620    0.1750    0.3200 c3        1 D6M     -0.079400
     18 C18        -4.5230   -0.0600   -0.4840 c3        1 D6M     -0.078400
     19 C19        -5.7590    0.0660    0.3800 c3        1 D6M     -0.079400
     20 C20        -7.0200   -0.1700   -0.4250 c3        1 D6M     -0.078400
     21 C21        -8.2560   -0.0440    0.4390 c3        1 D6M     -0.079400
     22 C22        -9.5160   -0.2790   -0.3650 c3        1 D6M     -0.078400
     23 C23       -10.7530   -0.1530    0.4990 c3        1 D6M     -0.079400
     24 C24       -12.0130   -0.3890   -0.3050 c3        1 D6M     -0.079400
     25 C25       -13.2500   -0.2630    0.5580 c3        1 D6M     -0.080400
     26 C26       -14.5080   -0.4970   -0.2380 c3        1 D6M     -0.092100
     27 OXT         9.3120   -2.9130    1.6840 o         1 D6M     -0.876300
     28 H03         5.3770    0.2580   -1.4880 hn        1 D6M      0.304500
     29 H121        2.9260    1.0170   -1.4920 hc        1 D6M      0.050700
     30 H122        3.0120   -0.7530   -1.1070 hc        1 D6M      0.050700
     31 H04         6.5920    1.1130    1.0560 h1        1 D6M      0.068700
     32 H051        7.8400   -0.7300   -1.1260 hc        1 D6M      0.049200
     33 H052        8.7700    0.2130    0.1070 hc        1 D6M      0.049200
     34 H061        7.6960   -1.0190    1.9450 hc        1 D6M      0.019200
     35 H062        6.5560   -1.8370    0.8040 hc        1 D6M      0.019200
     36 H131        1.7920   -0.3410    1.0510 hc        1 D6M      0.054200
     37 H132        1.7050    1.4170    0.6720 hc        1 D6M      0.054200
     38 H141        0.4200    0.8990   -1.4430 hc        1 D6M      0.031700
     39 H142        0.5070   -0.8630   -1.0620 hc        1 D6M      0.031700
     40 H151       -0.7110   -0.4550    1.1030 hc        1 D6M      0.039200
     41 H152       -0.7980    1.3070    0.7220 hc        1 D6M      0.039200
     42 H161       -2.0780    0.7890   -1.3850 hc        1 D6M      0.036200
     43 H162       -1.9910   -0.9730   -1.0050 hc        1 D6M      0.036200
     44 H171       -3.2090   -0.5650    1.1610 hc        1 D6M      0.038200
     45 H172       -3.2960    1.1970    0.7810 hc        1 D6M      0.038200
     46 H181       -4.5750    0.6800   -1.3260 hc        1 D6M      0.037700
     47 H182       -4.4890   -1.0820   -0.9460 hc        1 D6M      0.037700
     48 H191       -5.7060   -0.6740    1.2210 hc        1 D6M      0.038700
     49 H192       -5.7930    1.0880    0.8410 hc        1 D6M      0.038700
     50 H201       -7.0720    0.5700   -1.2660 hc        1 D6M      0.038200
     51 H202       -6.9860   -1.1920   -0.8860 hc        1 D6M      0.038200
     52 H211       -8.2030   -0.7840    1.2810 hc        1 D6M      0.038700
     53 H212       -8.2900    0.9790    0.9000 hc        1 D6M      0.038700
     54 H221       -9.5690    0.4610   -1.2070 hc        1 D6M      0.038700
     55 H222       -9.4820   -1.3010   -0.8260 hc        1 D6M      0.038700
     56 H231      -10.7000   -0.8930    1.3410 hc        1 D6M      0.038700
     57 H232      -10.7860    0.8690    0.9600 hc        1 D6M      0.038700
     58 H241      -12.0660    0.3520   -1.1470 hc        1 D6M      0.038700
     59 H242      -11.9790   -1.4110   -0.7660 hc        1 D6M      0.038700
     60 H251      -13.1940   -1.0030    1.4000 hc        1 D6M      0.037700
     61 H252      -13.2810    0.7590    1.0200 hc        1 D6M      0.037700
     62 H261      -14.5060   -1.5200   -0.6860 hc        1 D6M      0.030367
     63 H262      -15.4070   -0.4000    0.4160 hc        1 D6M      0.030367
     64 H263      -14.5930    0.2470   -1.0670 hc        1 D6M      0.030367
@<TRIPOS>BOND
     1    1    2 2   
     2    2    3 1   
     3    2   12 1   
     4    3    4 1   
     5    3   28 1   
     6    4    5 1   
     7    4    9 1   
     8    4   31 1   
     9    5    6 1   
    10    5   32 1   
    11    5   33 1   
    12    6    7 1   
    13    6   34 1   
    14    6   35 1   
    15    7    8 1   
    16    7   27 1   
    17    9   10 1   
    18    9   11 1   
    19   12   13 1   
    20   12   29 1   
    21   12   30 1   
    22   13   14 1   
    23   13   36 1   
    24   13   37 1   
    25   14   15 1   
    26   14   38 1   
    27   14   39 1   
    28   15   16 1   
    29   15   40 1   
    30   15   41 1   
    31   16   17 1   
    32   16   42 1   
    33   16   43 1   
    34   17   18 1   
    35   17   44 1   
    36   17   45 1   
    37   18   19 1   
    38   18   46 1   
    39   18   47 1   
    40   19   20 1   
    41   19   48 1   
    42   19   49 1   
    43   20   21 1   
    44   20   50 1   
    45   20   51 1   
    46   21   22 1   
    47   21   52 1   
    48   21   53 1   
    49   22   23 1   
    50   22   54 1   
    51   22   55 1   
    52   23   24 1   
    53   23   56 1   
    54   23   57 1   
    55   24   25 1   
    56   24   58 1   
    57   24   59 1   
    58   25   26 1   
    59   25   60 1   
    60   25   61 1   
    61   26   62 1   
    62   26   63 1   
    63   26   64 1   
@<TRIPOS>SUBSTRUCTURE
     1 D6M         1 TEMP              0 ****  ****    0 ROOT
