@<TRIPOS>MOLECULE
D6M
   65    64     1     0     0
SMALL
bcc


@<TRIPOS>ATOM
      1 O01         0.2320   -0.4790    0.1570 o         1 D6M     -0.646100
      2 C02         1.3530    0.0760    0.1070 c         1 D6M      0.633100
      3 N03         2.1250    0.2850    1.2320 n         1 D6M     -0.525900
      4 C04         1.5310    0.3720    2.5550 c3        1 D6M     -0.070300
      5 C05         1.7880   -0.8680    3.4160 c3        1 D6M     -0.076400
      6 C06         1.0450   -2.0980    2.9270 c3        1 D6M     -0.187400
      7 C07         1.9490   -3.2460    2.6040 c         1 D6M      0.637100
      8 O08         1.8200   -4.4200    2.9640 o         1 D6M     -0.543000
      9 C09         2.0640    1.6250    3.3550 c         1 D6M      0.912600
     10 O10         1.5330    1.8280    4.4760 o         1 D6M     -0.822800
     11 O11         2.9630    2.3340    2.8250 o         1 D6M     -0.822800
     12 C12         1.9700    0.4710   -1.2280 c3        1 D6M     -0.157400
     13 C13         1.1370   -0.0290   -2.3870 c3        1 D6M     -0.072400
     14 C14         1.7350    0.3970   -3.7110 c3        1 D6M     -0.079400
     15 C15         0.9020   -0.1020   -4.8720 c3        1 D6M     -0.078400
     16 C16         1.4960    0.3230   -6.1980 c3        1 D6M     -0.079400
     17 C17         0.6620   -0.1730   -7.3590 c3        1 D6M     -0.079400
     18 C18         1.2560    0.2520   -8.6850 c3        1 D6M     -0.078400
     19 C19         0.4200   -0.2430   -9.8460 c3        1 D6M     -0.079400
     20 C20         1.0130    0.1820  -11.1720 c3        1 D6M     -0.078400
     21 C21         0.1760   -0.3110  -12.3320 c3        1 D6M     -0.079400
     22 C22         0.7700    0.1150  -13.6580 c3        1 D6M     -0.078400
     23 C23        -0.0680   -0.3770  -14.8190 c3        1 D6M     -0.079400
     24 C24         0.5260    0.0480  -16.1450 c3        1 D6M     -0.079400
     25 C25        -0.3110   -0.4430  -17.3070 c3        1 D6M     -0.080400
     26 C26         0.2770   -0.0220  -18.6290 c3        1 D6M     -0.092100
     27 OXT         3.0400   -3.0500    1.8050 oh        1 D6M     -0.604100
     28 H03         2.9010    0.9170    1.1290 hn        1 D6M      0.321500
     29 H121        3.0110    0.0610   -1.3020 hc        1 D6M      0.059200
     30 H122        2.0420    1.5910   -1.2620 hc        1 D6M      0.059200
     31 H04         0.4140    0.5000    2.4510 h1        1 D6M      0.063700
     32 H051        1.4380   -0.6050    4.4510 hc        1 D6M      0.063700
     33 H052        2.8890   -1.0670    3.4840 hc        1 D6M      0.063700
     34 H061        0.4570   -1.8560    1.9960 hc        1 D6M      0.087700
     35 H062        0.3140   -2.4400    3.7060 hc        1 D6M      0.087700
     36 H131        0.0910    0.3650   -2.2900 hc        1 D6M      0.055200
     37 H132        1.0660   -1.1480   -2.3390 hc        1 D6M      0.055200
     38 H141        1.8030    1.5170   -3.7510 hc        1 D6M      0.035700
     39 H142        2.7800   -0.0010   -3.7990 hc        1 D6M      0.035700
     40 H151       -0.1430    0.2960   -4.7820 hc        1 D6M      0.040700
     41 H152        0.8340   -1.2210   -4.8310 hc        1 D6M      0.040700
     42 H161        1.5670    1.4420   -6.2370 hc        1 D6M      0.037700
     43 H162        2.5410   -0.0760   -6.2870 hc        1 D6M      0.037700
     44 H171        0.5920   -1.2920   -7.3190 hc        1 D6M      0.039700
     45 H172       -0.3830    0.2260   -7.2690 hc        1 D6M      0.039700
     46 H181        2.3000   -0.1500   -8.7750 hc        1 D6M      0.038700
     47 H182        1.3280    1.3710   -8.7230 hc        1 D6M      0.038700
     48 H191        0.3480   -1.3620   -9.8070 hc        1 D6M      0.038700
     49 H192       -0.6240    0.1580   -9.7550 hc        1 D6M      0.038700
     50 H201        1.0860    1.3010  -11.2090 hc        1 D6M      0.038700
     51 H202        2.0570   -0.2190  -11.2630 hc        1 D6M      0.038700
     52 H211        0.1040   -1.4300  -12.2950 hc        1 D6M      0.038700
     53 H212       -0.8670    0.0910  -12.2410 hc        1 D6M      0.038700
     54 H221        1.8130   -0.2880  -13.7500 hc        1 D6M      0.038700
     55 H222        0.8430    1.2340  -13.6950 hc        1 D6M      0.038700
     56 H231       -1.1110    0.0260  -14.7280 hc        1 D6M      0.038700
     57 H232       -0.1410   -1.4960  -14.7820 hc        1 D6M      0.038700
     58 H241        0.6010    1.1670  -16.1820 hc        1 D6M      0.038700
     59 H242        1.5690   -0.3550  -16.2360 hc        1 D6M      0.038700
     60 H251       -0.3850   -1.5620  -17.2670 hc        1 D6M      0.037700
     61 H252       -1.3540   -0.0400  -17.2120 hc        1 D6M      0.037700
     62 H261        0.3360    1.0910  -18.6980 hc        1 D6M      0.031033
     63 H262        1.3070   -0.4350  -18.7520 hc        1 D6M      0.031033
     64 H263       -0.3550   -0.3940  -19.4710 hc        1 D6M      0.031033
     65 H032        3.0960   -2.1150    1.5570 ho        1 D6M      0.444000
@<TRIPOS>BOND
     1    1    2 2   
     2    2    3 1   
     3    2   12 1   
     4    3    4 1   
     5    3   28 1   
     6    4    5 1   
     7    4    9 1   
     8    4   31 1   
     9    5    6 1   
    10    5   32 1   
    11    5   33 1   
    12    6    7 1   
    13    6   34 1   
    14    6   35 1   
    15    7    8 2   
    16    7   27 1   
    17    9   10 1   
    18    9   11 1   
    19   12   13 1   
    20   12   29 1   
    21   12   30 1   
    22   13   14 1   
    23   13   36 1   
    24   13   37 1   
    25   14   15 1   
    26   14   38 1   
    27   14   39 1   
    28   15   16 1   
    29   15   40 1   
    30   15   41 1   
    31   16   17 1   
    32   16   42 1   
    33   16   43 1   
    34   17   18 1   
    35   17   44 1   
    36   17   45 1   
    37   18   19 1   
    38   18   46 1   
    39   18   47 1   
    40   19   20 1   
    41   19   48 1   
    42   19   49 1   
    43   20   21 1   
    44   20   50 1   
    45   20   51 1   
    46   21   22 1   
    47   21   52 1   
    48   21   53 1   
    49   22   23 1   
    50   22   54 1   
    51   22   55 1   
    52   23   24 1   
    53   23   56 1   
    54   23   57 1   
    55   24   25 1   
    56   24   58 1   
    57   24   59 1   
    58   25   26 1   
    59   25   60 1   
    60   25   61 1   
    61   26   62 1   
    62   26   63 1   
    63   26   64 1   
    64   27   65 1   
@<TRIPOS>SUBSTRUCTURE
     1 D6M         1 TEMP              0 ****  ****    0 ROOT
