@<TRIPOS>MOLECULE
D6M
   65    64     1     0     0
SMALL
bcc


@<TRIPOS>ATOM
      1 O01         1.7010   -2.4500    0.7390 o         1 D6M     -0.646100
      2 C02         1.8350   -1.3830    0.0950 c         1 D6M      0.633100
      3 N03         1.4990   -0.1520    0.6180 ns        1 D6M     -0.522900
      4 C04         0.5020   -0.0190    1.6670 c3        1 D6M     -0.071300
      5 C05         1.1050    0.3180    3.0340 c3        1 D6M     -0.076400
      6 C06         1.8990   -0.8280    3.6320 c3        1 D6M     -0.186400
      7 C07         3.3210   -0.4690    3.9280 c         1 D6M      0.637100
      8 O08         3.9410   -0.6770    4.9760 o         1 D6M     -0.543000
      9 C09        -0.5640    1.0950    1.3240 c         1 D6M      0.912600
     10 O10        -1.5040    1.2310    2.1470 o         1 D6M     -0.823800
     11 O11        -0.4120    1.7580    0.2600 o         1 D6M     -0.823800
     12 C12         2.4940   -1.4080   -1.2770 c3        1 D6M     -0.156400
     13 C13         1.5130   -1.0190   -2.3620 c3        1 D6M     -0.085400
     14 C14         2.1520   -1.1240   -3.7300 c3        1 D6M     -0.075400
     15 C15         1.1780   -0.7270   -4.8180 c3        1 D6M     -0.081400
     16 C16         1.8120   -0.8260   -6.1890 c3        1 D6M     -0.077400
     17 C17         0.8370   -0.4290   -7.2760 c3        1 D6M     -0.079400
     18 C18         1.4700   -0.5270   -8.6470 c3        1 D6M     -0.078400
     19 C19         0.4940   -0.1300   -9.7330 c3        1 D6M     -0.079400
     20 C20         1.1260   -0.2290  -11.1050 c3        1 D6M     -0.078400
     21 C21         0.1490    0.1690  -12.1910 c3        1 D6M     -0.079400
     22 C22         0.7810    0.0700  -13.5620 c3        1 D6M     -0.078400
     23 C23        -0.1960    0.4660  -14.6480 c3        1 D6M     -0.079400
     24 C24         0.4350    0.3670  -16.0200 c3        1 D6M     -0.079400
     25 C25        -0.5420    0.7630  -17.1070 c3        1 D6M     -0.080400
     26 C26         0.0830    0.6660  -18.4750 c3        1 D6M     -0.092100
     27 OXT         4.0860    0.1320    2.9670 oh        1 D6M     -0.604100
     28 H03         3.5520    0.2760    2.1720 ho        1 D6M      0.444000
     29 H121        3.3760   -0.7160   -1.2870 hc        1 D6M      0.057200
     30 H122        2.8720   -2.4480   -1.4560 hc        1 D6M      0.057200
     31 H04        -0.0640   -0.9920    1.7650 h1        1 D6M      0.063700
     32 H051        1.7320    1.2440    2.9590 hc        1 D6M      0.064200
     33 H052        0.2360    0.5640    3.7040 hc        1 D6M      0.064200
     34 H061        1.4220   -1.1690    4.5880 hc        1 D6M      0.087700
     35 H062        1.9100   -1.7080    2.9270 hc        1 D6M      0.087700
     36 H131        0.6150   -1.6900   -2.3130 hc        1 D6M      0.061200
     37 H132        1.1490    0.0310   -2.1970 hc        1 D6M      0.061200
     38 H141        2.5030   -2.1750   -3.9040 hc        1 D6M      0.033700
     39 H142        3.0570   -0.4620   -3.7760 hc        1 D6M      0.033700
     40 H151        0.8250    0.3230   -4.6410 hc        1 D6M      0.045700
     41 H152        0.2740   -1.3900   -4.7720 hc        1 D6M      0.045700
     42 H161        2.1650   -1.8770   -6.3650 hc        1 D6M      0.035700
     43 H162        2.7160   -0.1630   -6.2340 hc        1 D6M      0.035700
     44 H171        0.4850    0.6220   -7.0980 hc        1 D6M      0.041200
     45 H172       -0.0670   -1.0920   -7.2300 hc        1 D6M      0.041200
     46 H181        1.8230   -1.5770   -8.8240 hc        1 D6M      0.037200
     47 H182        2.3730    0.1370   -8.6920 hc        1 D6M      0.037200
     48 H191        0.1420    0.9210   -9.5560 hc        1 D6M      0.040200
     49 H192       -0.4100   -0.7930   -9.6870 hc        1 D6M      0.040200
     50 H201        2.0300    0.4350  -11.1510 hc        1 D6M      0.038200
     51 H202        1.4780   -1.2790  -11.2820 hc        1 D6M      0.038200
     52 H211       -0.7550   -0.4950  -12.1440 hc        1 D6M      0.039700
     53 H212       -0.2030    1.2190  -12.0140 hc        1 D6M      0.039700
     54 H221        1.6850    0.7330  -13.6090 hc        1 D6M      0.038700
     55 H222        1.1330   -0.9810  -13.7390 hc        1 D6M      0.038700
     56 H231       -0.5480    1.5170  -14.4710 hc        1 D6M      0.039200
     57 H232       -1.1000   -0.1970  -14.6010 hc        1 D6M      0.039200
     58 H241        1.3390    1.0300  -16.0670 hc        1 D6M      0.038700
     59 H242        0.7870   -0.6830  -16.1970 hc        1 D6M      0.038700
     60 H251       -0.8940    1.8130  -16.9270 hc        1 D6M      0.038200
     61 H252       -1.4450    0.1000  -17.0570 hc        1 D6M      0.038200
     62 H261        0.9710    1.3390  -18.5520 hc        1 D6M      0.031033
     63 H262       -0.6540    0.9620  -19.2600 hc        1 D6M      0.031033
     64 H263        0.4180   -0.3790  -18.6810 hc        1 D6M      0.031033
     65 H032        1.4520    0.6090   -0.0380 hn        1 D6M      0.321500
@<TRIPOS>BOND
     1    1    2 2   
     2    2    3 1   
     3    2   12 1   
     4    3    4 1   
     5    3   65 1   
     6    4    5 1   
     7    4    9 1   
     8    4   31 1   
     9    5    6 1   
    10    5   32 1   
    11    5   33 1   
    12    6    7 1   
    13    6   34 1   
    14    6   35 1   
    15    7    8 2   
    16    7   27 1   
    17    9   10 1   
    18    9   11 1   
    19   12   13 1   
    20   12   29 1   
    21   12   30 1   
    22   13   14 1   
    23   13   36 1   
    24   13   37 1   
    25   14   15 1   
    26   14   38 1   
    27   14   39 1   
    28   15   16 1   
    29   15   40 1   
    30   15   41 1   
    31   16   17 1   
    32   16   42 1   
    33   16   43 1   
    34   17   18 1   
    35   17   44 1   
    36   17   45 1   
    37   18   19 1   
    38   18   46 1   
    39   18   47 1   
    40   19   20 1   
    41   19   48 1   
    42   19   49 1   
    43   20   21 1   
    44   20   50 1   
    45   20   51 1   
    46   21   22 1   
    47   21   52 1   
    48   21   53 1   
    49   22   23 1   
    50   22   54 1   
    51   22   55 1   
    52   23   24 1   
    53   23   56 1   
    54   23   57 1   
    55   24   25 1   
    56   24   58 1   
    57   24   59 1   
    58   25   26 1   
    59   25   60 1   
    60   25   61 1   
    61   26   62 1   
    62   26   63 1   
    63   26   64 1   
    64   27   28 1   
@<TRIPOS>SUBSTRUCTURE
     1 D6M         1 TEMP              0 ****  ****    0 ROOT
