@<TRIPOS>MOLECULE
D6M
   65    64     1     0     0
SMALL
bcc


@<TRIPOS>ATOM
      1 O01         1.6900   -2.4490    0.7410 o         1 D6M     -0.646100
      2 C02         1.8430   -1.3880    0.0940 c         1 D6M      0.633100
      3 N03         1.5370   -0.1480    0.6150 n         1 D6M     -0.522900
      4 C04         0.5500    0.0090    1.6700 c3        1 D6M     -0.071300
      5 C05         1.1690    0.3360    3.0320 c3        1 D6M     -0.076400
      6 C06         1.9420   -0.8250    3.6280 c3        1 D6M     -0.186400
      7 C07         3.3730   -0.4960    3.9140 c         1 D6M      0.637100
      8 O08         3.9950   -0.7150    4.9590 o         1 D6M     -0.543000
      9 C09        -0.4930    1.1450    1.3310 c         1 D6M      0.912600
     10 O10        -1.4250    1.3030    2.1590 o         1 D6M     -0.823800
     11 O11        -0.3340    1.8020    0.2650 o         1 D6M     -0.823800
     12 C12         2.4940   -1.4300   -1.2820 c3        1 D6M     -0.156400
     13 C13         1.5160   -1.0220   -2.3620 c3        1 D6M     -0.085400
     14 C14         2.1440   -1.1450   -3.7340 c3        1 D6M     -0.075400
     15 C15         1.1730   -0.7290   -4.8180 c3        1 D6M     -0.081400
     16 C16         1.7980   -0.8450   -6.1910 c3        1 D6M     -0.077400
     17 C17         0.8250   -0.4280   -7.2740 c3        1 D6M     -0.079400
     18 C18         1.4490   -0.5430   -8.6480 c3        1 D6M     -0.078400
     19 C19         0.4760   -0.1260   -9.7300 c3        1 D6M     -0.079400
     20 C20         1.0990   -0.2400  -11.1050 c3        1 D6M     -0.078400
     21 C21         0.1260    0.1770  -12.1870 c3        1 D6M     -0.079400
     22 C22         0.7490    0.0620  -13.5610 c3        1 D6M     -0.078400
     23 C23        -0.2240    0.4800  -14.6430 c3        1 D6M     -0.079400
     24 C24         0.3980    0.3650  -16.0170 c3        1 D6M     -0.079400
     25 C25        -0.5740    0.7820  -17.1000 c3        1 D6M     -0.080400
     26 C26         0.0410    0.6690  -18.4710 c3        1 D6M     -0.092100
     27 OXT         4.1450    0.0860    2.9470 oh        1 D6M     -0.604100
     28 H03         3.6090    0.2400    2.1550 ho        1 D6M      0.444000
     29 H121        3.3900   -0.7580   -1.2990 hc        1 D6M      0.057200
     30 H122        2.8480   -2.4790   -1.4610 hc        1 D6M      0.057200
     31 H04        -0.0360   -0.9510    1.7740 h1        1 D6M      0.063700
     32 H051        1.8150    1.2480    2.9510 hc        1 D6M      0.064200
     33 H052        0.3090    0.6030    3.7070 hc        1 D6M      0.064200
     34 H061        1.4630   -1.1540    4.5880 hc        1 D6M      0.087700
     35 H062        1.9290   -1.7070    2.9260 hc        1 D6M      0.087700
     36 H131        0.6040   -1.6730   -2.3060 hc        1 D6M      0.061200
     37 H132        1.1750    0.0360   -2.1990 hc        1 D6M      0.061200
     38 H141        2.4710   -2.2040   -3.9070 hc        1 D6M      0.033700
     39 H142        3.0630   -0.5020   -3.7860 hc        1 D6M      0.033700
     40 H151        0.8440    0.3300   -4.6400 hc        1 D6M      0.045700
     41 H152        0.2550   -1.3720   -4.7650 hc        1 D6M      0.045700
     42 H161        2.1260   -1.9030   -6.3680 hc        1 D6M      0.035700
     43 H162        2.7150   -0.2010   -6.2430 hc        1 D6M      0.035700
     44 H171        0.4970    0.6300   -7.0960 hc        1 D6M      0.041200
     45 H172       -0.0930   -1.0710   -7.2220 hc        1 D6M      0.041200
     46 H181        1.7770   -1.6010   -8.8250 hc        1 D6M      0.037200
     47 H182        2.3670    0.1010   -8.7000 hc        1 D6M      0.037200
     48 H191        0.1480    0.9320   -9.5530 hc        1 D6M      0.040200
     49 H192       -0.4420   -0.7690   -9.6780 hc        1 D6M      0.040200
     50 H201        2.0170    0.4030  -11.1560 hc        1 D6M      0.038200
     51 H202        1.4270   -1.2990  -11.2820 hc        1 D6M      0.038200
     52 H211       -0.7920   -0.4660  -12.1350 hc        1 D6M      0.039700
     53 H212       -0.2020    1.2350  -12.0090 hc        1 D6M      0.039700
     54 H221        1.6670    0.7050  -13.6130 hc        1 D6M      0.038700
     55 H222        1.0770   -0.9960  -13.7380 hc        1 D6M      0.038700
     56 H231       -0.5520    1.5380  -14.4650 hc        1 D6M      0.039200
     57 H232       -1.1420   -0.1630  -14.5910 hc        1 D6M      0.039200
     58 H241        1.3160    1.0080  -16.0690 hc        1 D6M      0.038700
     59 H242        0.7260   -0.6930  -16.1950 hc        1 D6M      0.038700
     60 H251       -0.9020    1.8400  -16.9200 hc        1 D6M      0.038200
     61 H252       -1.4920    0.1390  -17.0450 hc        1 D6M      0.038200
     62 H261        0.9440    1.3230  -18.5520 hc        1 D6M      0.031033
     63 H262       -0.6920    0.9820  -19.2530 hc        1 D6M      0.031033
     64 H263        0.3520   -0.3830  -18.6780 hc        1 D6M      0.031033
     65 H032        1.5030    0.6120   -0.0430 hn        1 D6M      0.321500
@<TRIPOS>BOND
     1    1    2 2   
     2    2    3 1   
     3    2   12 1   
     4    3    4 1   
     5    3   65 1   
     6    4    5 1   
     7    4    9 1   
     8    4   31 1   
     9    5    6 1   
    10    5   32 1   
    11    5   33 1   
    12    6    7 1   
    13    6   34 1   
    14    6   35 1   
    15    7    8 2   
    16    7   27 1   
    17    9   10 1   
    18    9   11 1   
    19   12   13 1   
    20   12   29 1   
    21   12   30 1   
    22   13   14 1   
    23   13   36 1   
    24   13   37 1   
    25   14   15 1   
    26   14   38 1   
    27   14   39 1   
    28   15   16 1   
    29   15   40 1   
    30   15   41 1   
    31   16   17 1   
    32   16   42 1   
    33   16   43 1   
    34   17   18 1   
    35   17   44 1   
    36   17   45 1   
    37   18   19 1   
    38   18   46 1   
    39   18   47 1   
    40   19   20 1   
    41   19   48 1   
    42   19   49 1   
    43   20   21 1   
    44   20   50 1   
    45   20   51 1   
    46   21   22 1   
    47   21   52 1   
    48   21   53 1   
    49   22   23 1   
    50   22   54 1   
    51   22   55 1   
    52   23   24 1   
    53   23   56 1   
    54   23   57 1   
    55   24   25 1   
    56   24   58 1   
    57   24   59 1   
    58   25   26 1   
    59   25   60 1   
    60   25   61 1   
    61   26   62 1   
    62   26   63 1   
    63   26   64 1   
    64   27   28 1   
@<TRIPOS>SUBSTRUCTURE
     1 D6M         1 TEMP              0 ****  ****    0 ROOT
