@<TRIPOS>MOLECULE
D6M
   64    62     1     0     0
SMALL
bcc


@<TRIPOS>ATOM
      1 O01         0.8970   -0.4530    5.8620 o         1 D6M     -0.414000
      2 C02         1.8190    0.2500    5.5010 c1        1 D6M      0.288000
      3 N03         2.1620    1.4230    6.2520 n2        1 D6M     -0.280000
      4 C04         1.3320    1.8430    7.3550 c3        1 D6M     -0.079000
      5 C05         2.1570    2.6620    8.3250 c3        1 D6M     -0.128000
      6 C06         1.4800    2.6620    9.6950 c3        1 D6M     -0.209000
      7 C07         2.0870    3.7790   10.5670 c2        1 D6M      0.323000
      8 O08         3.0620    3.5260   11.3290 o         1 D6M     -0.610500
      9 C09         0.1880    2.6780    6.8350 c2        1 D6M      0.317000
     10 O10         0.4210    3.7140    6.1670 o         1 D6M     -0.592500
     11 O11        -0.9940    2.3590    7.1040 o         1 D6M     -0.592500
     12 C12         2.6830   -0.1720    4.2910 c3        1 D6M     -0.190000
     13 C13         1.9300   -1.2450    3.4710 c3        1 D6M     -0.183000
     14 C14         2.5270   -1.3220    2.0490 c3        1 D6M     -0.147000
     15 C15         1.6770   -2.2620    1.1900 c3        1 D6M     -0.162000
     16 C16         1.9910   -2.0160   -0.3150 c3        1 D6M     -0.155000
     17 C17         0.9380   -2.7380   -1.1890 c3        1 D6M     -0.159000
     18 C18         0.9820   -2.1610   -2.6320 c3        1 D6M     -0.157000
     19 C19        -0.3320   -2.5290   -3.3850 c3        1 D6M     -0.158000
     20 C20        -0.3800   -1.7790   -4.7100 c3        1 D6M     -0.157000
     21 C21        -1.8430   -1.6510   -5.1810 c3        1 D6M     -0.158000
     22 C22        -1.8920   -0.8390   -6.4920 c3        1 D6M     -0.157000
     23 C23        -3.2340   -0.1400   -6.6020 c3        1 D6M     -0.158000
     24 C24        -3.3930    0.4850   -8.0530 c3        1 D6M     -0.158000
     25 C25        -4.5400    1.5410   -8.0410 c3        1 D6M     -0.159000
     26 C26        -4.8400    1.9850   -9.4690 c3        1 D6M     -0.209000
     27 OXT         1.6220    4.9560   10.5030 o         1 D6M     -0.610500
     28 H03         2.8810    1.9320    6.0020 hn        1 D6M      0.200000
     29 H121        3.5340   -0.5410    4.6100 hc        1 D6M      0.079000
     30 H122        2.8560    0.6050    3.7290 hc        1 D6M      0.079000
     31 H04         0.9750    1.0500    7.8180 h1        1 D6M      0.107000
     32 H051        2.2300    3.5720    8.0000 hc        1 D6M      0.089500
     33 H052        3.0430    2.2740    8.4030 hc        1 D6M      0.089500
     34 H061        1.6210    1.7920   10.1300 hc        1 D6M      0.059500
     35 H062        0.5130    2.8210    9.5830 hc        1 D6M      0.059500
     36 H131        2.0220   -2.1220    3.9150 hc        1 D6M      0.122000
     37 H132        0.9820   -1.0060    3.4150 hc        1 D6M      0.122000
     38 H141        3.4430   -1.6640    2.0980 hc        1 D6M      0.061500
     39 H142        2.5320   -0.4380    1.6520 hc        1 D6M      0.061500
     40 H151        0.7280   -2.0890    1.3570 hc        1 D6M      0.090000
     41 H152        1.8860   -3.1940    1.4200 hc        1 D6M      0.090000
     42 H161        2.8850   -2.3640   -0.5240 hc        1 D6M      0.069500
     43 H162        1.9640   -1.0510   -0.5010 hc        1 D6M      0.069500
     44 H171        1.1340   -3.6910   -1.2140 hc        1 D6M      0.081500
     45 H172        0.0470   -2.5980   -0.8070 hc        1 D6M      0.081500
     46 H181        1.7520   -2.5400   -3.1140 hc        1 D6M      0.074000
     47 H182        1.0720   -1.1780   -2.5910 hc        1 D6M      0.074000
     48 H191       -1.0990   -2.2790   -2.8430 hc        1 D6M      0.079500
     49 H192       -0.3520   -3.4910   -3.5550 hc        1 D6M      0.079500
     50 H201        0.1370   -2.2680   -5.3790 hc        1 D6M      0.076000
     51 H202        0.0010   -0.8910   -4.5930 hc        1 D6M      0.076000
     52 H211       -2.2210   -2.5580   -5.3380 hc        1 D6M      0.078500
     53 H212       -2.3700   -1.1910   -4.4910 hc        1 D6M      0.078500
     54 H221       -1.1860   -0.1810   -6.4890 hc        1 D6M      0.077000
     55 H222       -1.7750   -1.4350   -7.2470 hc        1 D6M      0.077000
     56 H231       -3.2870    0.5720   -5.9320 hc        1 D6M      0.078500
     57 H232       -3.9570   -0.7920   -6.4450 hc        1 D6M      0.078500
     58 H241       -3.6130   -0.2300   -8.6960 hc        1 D6M      0.077500
     59 H242       -2.5470    0.9200   -8.3210 hc        1 D6M      0.077500
     60 H251       -5.3460    1.1440   -7.6460 hc        1 D6M      0.077500
     61 H252       -4.2640    2.3160   -7.5100 hc        1 D6M      0.077500
     62 H261       -4.0350    2.3400   -9.8730 hc        1 D6M      0.069333
     63 H262       -5.1580    1.2120   -9.9940 hc        1 D6M      0.069333
     64 H263       -5.5350    2.6820   -9.4570 hc        1 D6M      0.069333
@<TRIPOS>BOND
     1    1    2 1   
     2    2   12 1   
     3    3    4 1   
     4    3   28 1   
     5    4    5 1   
     6    4    9 1   
     7    4   31 1   
     8    5    6 1   
     9    5   32 1   
    10    5   33 1   
    11    6    7 1   
    12    6   34 1   
    13    6   35 1   
    14    7    8 1   
    15    7   27 1   
    16    9   10 1   
    17    9   11 1   
    18   12   13 1   
    19   12   29 1   
    20   12   30 1   
    21   13   14 1   
    22   13   36 1   
    23   13   37 1   
    24   14   15 1   
    25   14   38 1   
    26   14   39 1   
    27   15   16 1   
    28   15   40 1   
    29   15   41 1   
    30   16   17 1   
    31   16   42 1   
    32   16   43 1   
    33   17   18 1   
    34   17   44 1   
    35   17   45 1   
    36   18   19 1   
    37   18   46 1   
    38   18   47 1   
    39   19   20 1   
    40   19   48 1   
    41   19   49 1   
    42   20   21 1   
    43   20   50 1   
    44   20   51 1   
    45   21   22 1   
    46   21   52 1   
    47   21   53 1   
    48   22   23 1   
    49   22   54 1   
    50   22   55 1   
    51   23   24 1   
    52   23   56 1   
    53   23   57 1   
    54   24   25 1   
    55   24   58 1   
    56   24   59 1   
    57   25   26 1   
    58   25   60 1   
    59   25   61 1   
    60   26   62 1   
    61   26   63 1   
    62   26   64 1   
@<TRIPOS>SUBSTRUCTURE
     1 D6M         1 TEMP              0 ****  ****    0 ROOT
