@<TRIPOS>MOLECULE
D6P
   28    27     1     0     0
SMALL
bcc


@<TRIPOS>ATOM
      1 C1          0.0980   -0.4940    5.1190 c3        1 D6P      0.130400
      2 C2          0.5630   -0.5740    3.6780 c3        1 D6P     -0.106400
      3 C3         -0.4320    0.1380    2.7640 c3        1 D6P      0.144100
      4 C4         -0.0020    0.0090    1.2920 c3        1 D6P      0.101100
      5 C5         -1.1830    0.3370    0.3470 c3        1 D6P      0.154300
      6 C6         -0.7050    0.5510   -1.0490 c2        1 D6P     -0.314200
      7 O1          1.0760   -1.1280    5.9350 oh        1 D6P     -0.611800
      8 O3         -0.5700    1.4930    3.1640 oh        1 D6P     -0.630800
      9 O4          1.0870    0.9000    1.1150 oh        1 D6P     -0.651800
     10 O5         -2.1300   -0.7240    0.4650 oh        1 D6P     -0.649800
     11 C7         -0.1420   -0.3660   -1.8210 c2        1 D6P     -0.178600
     12 P           0.4830    0.1570   -3.4160 p5        1 D6P      1.202100
     13 O1P         1.9700    0.1450   -3.1360 o         1 D6P     -0.947500
     14 O2P        -0.0190   -0.9230   -4.3450 o         1 D6P     -0.947500
     15 O3P        -0.1120    1.5300   -3.6310 o         1 D6P     -0.947500
     16 H11        -0.8870   -1.0190    5.2470 h1        1 D6P      0.020700
     17 H12        -0.0230    0.5810    5.4240 h1        1 D6P      0.020700
     18 H21         1.5700   -0.0960    3.5740 hc        1 D6P      0.060700
     19 H22         0.6580   -1.6450    3.3670 hc        1 D6P      0.060700
     20 H3         -1.4600   -0.3080    2.8800 h1        1 D6P      0.069700
     21 H4          0.3430   -1.0430    1.0900 h1        1 D6P      0.045700
     22 H5         -1.7150    1.2470    0.7460 h1        1 D6P      0.039700
     23 H6         -0.8350    1.5670   -1.4680 ha        1 D6P      0.170000
     24 HO1         0.8140   -0.9600    6.8460 ho        1 D6P      0.377000
     25 HO3         0.0890    2.0050    2.6760 ho        1 D6P      0.423000
     26 HO4         1.2280    0.9830    0.1530 ho        1 D6P      0.469000
     27 HO5        -2.0230   -1.2780   -0.3190 ho        1 D6P      0.416000
     28 H7          0.0250   -1.4060   -1.5330 ha        1 D6P      0.081000
@<TRIPOS>BOND
     1    1    2 1   
     2    1    7 1   
     3    1   16 1   
     4    1   17 1   
     5    2    3 1   
     6    2   18 1   
     7    2   19 1   
     8    3    4 1   
     9    3    8 1   
    10    3   20 1   
    11    4    5 1   
    12    4    9 1   
    13    4   21 1   
    14    5    6 1   
    15    5   10 1   
    16    5   22 1   
    17    6   11 2   
    18    6   23 1   
    19    7   24 1   
    20    8   25 1   
    21    9   26 1   
    22   10   27 1   
    23   11   12 1   
    24   11   28 1   
    25   12   13 1   
    26   12   14 1   
    27   12   15 1   
@<TRIPOS>SUBSTRUCTURE
     1 D6P         1 TEMP              0 ****  ****    0 ROOT
