@<TRIPOS>MOLECULE
D6P
   28    27     1     0     0
SMALL
bcc


@<TRIPOS>ATOM
      1 C1          0.1490    0.6030    0.1410 c3        1 D6P      0.129400
      2 C2          1.4240   -0.2030    0.0020 c3        1 D6P     -0.083400
      3 C3          2.3350    0.0300    1.2090 c3        1 D6P      0.149100
      4 C4          3.6320   -0.7850    1.0800 c3        1 D6P      0.039100
      5 C5          4.6660   -0.4520    2.2330 c3        1 D6P      0.375000
      6 C6          5.1470    0.9750    2.0590 c2        1 D6P     -0.089200
      7 O1         -0.6590    0.3690   -1.0110 oh        1 D6P     -0.622800
      8 O3          1.6000   -0.3240    2.3700 oh        1 D6P     -0.677800
      9 O4          3.3140   -2.1670    1.1660 oh        1 D6P     -0.646800
     10 O5          4.1170   -0.7560    3.4080 o         1 D6P     -0.900500
     11 C7          6.1210    1.6500    2.6590 c2        1 D6P     -0.429600
     12 P           7.2450    1.2820    3.8380 p5        1 D6P      1.383000
     13 O1P         7.6700    2.5620    4.4790 o         1 D6P     -0.903000
     14 O2P         6.4050    0.4540    4.9720 oh        1 D6P     -0.818400
     15 O3P         8.2980    0.3710    3.3080 o         1 D6P     -0.903000
     16 H11         0.3790    1.7010    0.2060 h1        1 D6P      0.024700
     17 H12        -0.4000    0.2910    1.0690 h1        1 D6P      0.024700
     18 H21         1.9650    0.0930   -0.9320 hc        1 D6P      0.046700
     19 H22         1.1810   -1.2940   -0.0660 hc        1 D6P      0.046700
     20 H3          2.5860    1.1270    1.2750 h1        1 D6P      0.020700
     21 H4          4.0760   -0.6360    0.0630 h1        1 D6P      0.022700
     22 H5          5.5570   -1.1210    1.9840 h1        1 D6P     -0.035300
     23 H6          4.5800    1.5140    1.2690 ha        1 D6P      0.032000
     24 HO1        -1.5140    0.7680   -0.8210 ho        1 D6P      0.372000
     25 HO3         2.2600   -0.4770    3.0790 ho        1 D6P      0.473000
     26 HO4         3.3100   -2.3670    2.1170 ho        1 D6P      0.424000
     27 HO5         5.7070   -0.0970    4.6200 ho        1 D6P      0.457000
     28 H7          6.2560    2.6980    2.3260 ha        1 D6P      0.093000
@<TRIPOS>BOND
     1    1    2 1   
     2    1    7 1   
     3    1   16 1   
     4    1   17 1   
     5    2    3 1   
     6    2   18 1   
     7    2   19 1   
     8    3    4 1   
     9    3    8 1   
    10    3   20 1   
    11    4    5 1   
    12    4    9 1   
    13    4   21 1   
    14    5    6 1   
    15    5   10 1   
    16    5   22 1   
    17    6   11 2   
    18    6   23 1   
    19    7   24 1   
    20    8   25 1   
    21    9   26 1   
    22   11   12 1   
    23   11   28 1   
    24   12   13 1   
    25   12   14 1   
    26   12   15 1   
    27   14   27 1   
@<TRIPOS>SUBSTRUCTURE
     1 D6P         1 TEMP              0 ****  ****    0 ROOT
