@<TRIPOS>MOLECULE
D6P
   28    26     1     0     0
SMALL
bcc


@<TRIPOS>ATOM
      1 C1         -3.0270   -0.3530   -2.0050 c3        1 D6P     -0.022000
      2 C2         -1.5000   -0.3930   -2.0260 c3        1 D6P     -0.212000
      3 C3         -0.9830   -0.4080   -0.6170 c3        1 D6P      0.028000
      4 C4          0.4950   -0.0640   -0.6130 c3        1 D6P      0.054000
      5 C5          0.9040    0.3780    0.7660 c3        1 D6P      0.018000
      6 C6          2.3370    0.7990    0.7490 c2        1 D6P     -0.226000
      7 O1         -3.5190   -0.3540   -3.3340 oh        1 D6P     -0.370000
      8 O3         -1.1710   -1.7080   -0.0560 oh        1 D6P     -0.393000
      9 O4          1.2310   -1.1790   -0.9750 oh        1 D6P     -0.405000
     10 O5          0.0840    1.4790    1.1760 oh        1 D6P     -0.375000
     11 C7          3.0680    0.7880    1.9070 c1        1 D6P     -0.636000
     12 P           2.3060    0.2690    3.4350 p3        1 D6P      2.612000
     13 O1P         1.8490   -1.1940    3.3090 o         1 D6P     -1.263667
     14 O2P         1.1310    1.1330    3.7210 o         1 D6P     -1.263667
     15 O3P         3.2920    0.3880    4.5480 o         1 D6P     -1.263667
     16 H11        -3.3680   -1.1370   -1.5320 h1        1 D6P      0.084000
     17 H12        -3.3220    0.4470   -1.5540 h1        1 D6P      0.084000
     18 H21        -1.1920   -1.2260   -2.5070 hc        1 D6P      0.083000
     19 H22        -1.1570    0.4020   -2.4930 hc        1 D6P      0.083000
     20 H3         -1.4840    0.2670   -0.0720 h1        1 D6P      0.065000
     21 H4          0.6640    0.6600   -1.2490 h1        1 D6P      0.062000
     22 H5          0.7940   -0.3440    1.3770 h1        1 D6P      0.149000
     23 H6          2.7530    1.0830   -0.0900 ha        1 D6P      0.041000
     24 HO1        -4.4270   -0.3420   -3.3200 ho        1 D6P      0.192000
     25 HO3        -1.8980   -1.7110    0.4410 ho        1 D6P      0.300000
     26 HO4         1.7100   -0.9950   -1.7510 ho        1 D6P      0.299000
     27 HO5         0.4450    2.2580    0.8700 ho        1 D6P      0.189000
     28 H7          3.9850    1.0580    1.8960 ha        1 D6P      0.087000
@<TRIPOS>BOND
     1    1    2 1   
     2    1    7 1   
     3    1   16 1   
     4    1   17 1   
     5    2    3 1   
     6    2   18 1   
     7    2   19 1   
     8    3    4 1   
     9    3    8 1   
    10    3   20 1   
    11    4    5 1   
    12    4    9 1   
    13    4   21 1   
    14    5    6 1   
    15    5   10 1   
    16    5   22 1   
    17    6   11 1   
    18    6   23 1   
    19    7   24 1   
    20    8   25 1   
    21    9   26 1   
    22   10   27 1   
    23   11   28 1   
    24   12   13 1   
    25   12   14 1   
    26   12   15 1   
@<TRIPOS>SUBSTRUCTURE
     1 D6P         1 TEMP              0 ****  ****    0 ROOT
