@<TRIPOS>MOLECULE
D6P
   28    27     1     0     0
SMALL
bcc


@<TRIPOS>ATOM
      1 C1          0.1230    0.4810    0.1760 c3        1 D6P      0.129400
      2 C2          1.4560   -0.2080   -0.0310 c3        1 D6P     -0.083400
      3 C3          2.3510   -0.0140    1.1940 c3        1 D6P      0.149100
      4 C4          3.7070   -0.7110    0.9950 c3        1 D6P      0.039100
      5 C5          4.7180   -0.4030    2.1750 c3        1 D6P      0.375000
      6 C6          5.0870    1.0670    2.1290 c2        1 D6P     -0.089200
      7 O1         -0.6700    0.2880   -0.9930 oh        1 D6P     -0.622800
      8 O3          1.6520   -0.5260    2.3170 oh        1 D6P     -0.677800
      9 O4          3.4980   -2.1160    0.9580 oh        1 D6P     -0.646800
     10 O5          4.2000   -0.8510    3.3170 o         1 D6P     -0.900500
     11 C7          6.0070    1.7600    2.7890 c2        1 D6P     -0.429600
     12 P           7.1630    1.3780    3.9330 p5        1 D6P      1.383000
     13 O1P         7.4900    2.6240    4.6870 o         1 D6P     -0.903000
     14 O2P         6.3950    0.3900    4.9880 oh        1 D6P     -0.818400
     15 O3P         8.2810    0.6010    3.3280 o         1 D6P     -0.903000
     16 H11         0.2670    1.5830    0.3400 h1        1 D6P      0.024700
     17 H12        -0.3960    0.0450    1.0720 h1        1 D6P      0.024700
     18 H21         1.2980   -1.3040   -0.1970 hc        1 D6P      0.046700
     19 H22         1.9670    0.2100   -0.9340 hc        1 D6P      0.046700
     20 H3          2.5180    1.0890    1.3570 h1        1 D6P      0.020700
     21 H4          4.1330   -0.4390   -0.0040 h1        1 D6P      0.022700
     22 H5          5.6570   -0.9760    1.8690 h1        1 D6P     -0.035300
     23 H6          4.4750    1.6280    1.3890 ha        1 D6P      0.032000
     24 HO1        -1.5520    0.6010   -0.7700 ho        1 D6P      0.372000
     25 HO3         2.3260   -0.6900    3.0110 ho        1 D6P      0.473000
     26 HO4         3.5140   -2.4000    1.8870 ho        1 D6P      0.424000
     27 HO5         5.7400   -0.1810    4.5870 ho        1 D6P      0.457000
     28 H7          6.0600    2.8410    2.5510 ha        1 D6P      0.093000
@<TRIPOS>BOND
     1    1    2 1   
     2    1    7 1   
     3    1   16 1   
     4    1   17 1   
     5    2    3 1   
     6    2   18 1   
     7    2   19 1   
     8    3    4 1   
     9    3    8 1   
    10    3   20 1   
    11    4    5 1   
    12    4    9 1   
    13    4   21 1   
    14    5    6 1   
    15    5   10 1   
    16    5   22 1   
    17    6   11 2   
    18    6   23 1   
    19    7   24 1   
    20    8   25 1   
    21    9   26 1   
    22   11   12 1   
    23   11   28 1   
    24   12   13 1   
    25   12   14 1   
    26   12   15 1   
    27   14   27 1   
@<TRIPOS>SUBSTRUCTURE
     1 D6P         1 TEMP              0 ****  ****    0 ROOT
