@<TRIPOS>MOLECULE
D71
   41    42     1     0     0
SMALL
bcc


@<TRIPOS>ATOM
      1 C1          1.2300   -0.9800   -0.8930 c1        1 D71     -0.719000
      2 C2          1.5040    0.3750   -0.5300 c3        1 D71      0.060000
      3 C3          2.1580    0.1850    0.8480 c2        1 D71      0.290000
      4 C5          0.4850   -0.9560    2.0950 c2        1 D71      0.042000
      5 C6          1.0000   -2.1440   -1.2190 c1        1 D71     -0.109000
      6 C14         4.3950    0.4070   -0.1840 c2        1 D71      0.450000
      7 O56         4.5990    2.9040    4.9600 o         1 D71     -0.480200
      8 O58         6.5430    2.2800    5.4770 o         1 D71     -0.480200
      9 C40         5.3250    0.8880    4.0790 c2        1 D71     -0.169000
     10 C39         3.9500    0.7230    3.4430 c3        1 D71     -0.071000
     11 C41         6.3410   -0.0160    3.9660 c2        1 D71     -0.024000
     12 C42         6.0020   -1.2890    3.3080 c2        1 D71     -0.087000
     13 C43         5.0180   -1.1080    2.4410 c1        1 D71     -0.054000
     14 C22         4.1160   -0.1500    2.2100 c2        1 D71     -0.008000
     15 N13         3.5060    0.1870    0.9760 n         1 D71     -0.140000
     16 N4          1.3090    0.0100    1.9330 n2        1 D71     -0.228000
     17 O52         5.6120    0.4130    0.0410 o         1 D71     -0.288000
     18 N15         3.8320    0.7900   -1.4220 n         1 D71     -0.284000
     19 C16         2.4300    1.0210   -1.5470 c2        1 D71      0.309000
     20 O50         2.0070    1.7020   -2.4830 o         1 D71     -0.252000
     21 C24         4.5210    0.2420   -2.5820 c3        1 D71     -0.022000
     22 C26         4.4780   -1.3100   -2.6510 c3        1 D71     -0.071000
     23 C32         3.3950   -1.7690   -3.5580 c2        1 D71     -0.519000
     24 C31         3.4740   -2.1540   -4.8090 c1        1 D71      0.225000
     25 N30         3.3480   -4.1080   -0.8240 n2        1 D71     -0.221000
     26 C29         4.2910   -3.2610   -0.9850 c2        1 D71     -0.105000
     27 C28         4.3350   -1.8710   -1.3100 c1        1 D71     -0.055000
     28 H1          0.5780    1.0130   -0.4430 hc        1 D71      0.159000
     29 H5          0.3970   -1.8410    1.4230 h4        1 D71      0.171000
     30 H6         -0.1950   -0.8940    2.9690 h4        1 D71      0.171000
     31 H39         3.5320    1.7240    3.1470 hc        1 D71      0.149000
     32 H41         3.2520    0.2740    4.1990 hc        1 D71      0.149000
     33 H42         7.3350    0.1210    4.4210 ha        1 D71      0.188000
     34 H43         6.4610   -2.2280    3.6320 ha        1 D71      0.189000
     35 H24         5.5970    0.5710   -2.5200 h1        1 D71      0.132000
     36 H24A        4.0460    0.6830   -3.5020 h1        1 D71      0.132000
     37 H32         5.4840   -1.6450   -3.0590 hc        1 D71      0.141000
     38 H31         2.3710   -1.7880   -3.0940 ha        1 D71      0.244000
     39 H29         2.4130   -3.8070   -1.0420 hn        1 D71      0.193000
     40 H28         5.3260   -3.6100   -0.7210 h4        1 D71      0.162000
     41 N54         5.5030    2.1150    4.8980 no        1 D71      0.831400
@<TRIPOS>BOND
     1    1    2 1   
     2    1    5 1   
     3    2    3 1   
     4    2   19 1   
     5    2   28 1   
     6    3   15 1   
     7    3   16 1   
     8    4   16 1   
     9    4   29 1   
    10    4   30 1   
    11    6   15 1   
    12    6   17 1   
    13    6   18 1   
    14    7   41 2   
    15    8   41 2   
    16    9   10 1   
    17    9   11 1   
    18    9   41 1   
    19   10   14 1   
    20   10   31 1   
    21   10   32 1   
    22   11   12 1   
    23   11   33 1   
    24   12   13 1   
    25   12   34 1   
    26   13   14 1   
    27   14   15 1   
    28   18   19 1   
    29   18   21 1   
    30   19   20 1   
    31   21   22 1   
    32   21   35 1   
    33   21   36 1   
    34   22   23 1   
    35   22   27 1   
    36   22   37 1   
    37   23   24 1   
    38   23   38 1   
    39   25   26 1   
    40   25   39 1   
    41   26   27 1   
    42   26   40 1   
@<TRIPOS>SUBSTRUCTURE
     1 D71         1 TEMP              0 ****  ****    0 ROOT
