@<TRIPOS>MOLECULE
D71
   41    42     1     0     0
SMALL
bcc


@<TRIPOS>ATOM
      1 C1          1.2580   -1.4710   -0.6010 c1        1 D71     -0.752000
      2 C2          1.3330   -0.0480   -0.6020 c3        1 D71      0.091000
      3 C3          1.6740    0.2610    0.8650 c2        1 D71      0.325000
      4 C5          0.1180   -0.2730    2.6000 c2        1 D71      0.121000
      5 C6          1.1780   -2.7000   -0.6440 c1        1 D71     -0.054000
      6 C14         4.0640    0.1510    0.2720 c2        1 D71      0.421000
      7 O56         7.0190    1.6490    4.0260 o         1 D71     -0.451200
      8 O58         6.7230    0.4270    5.7220 o         1 D71     -0.451200
      9 C40         4.8000    1.0690    4.5230 c3        1 D71     -0.100000
     10 C39         4.4740    1.0010    3.0670 c2        1 D71     -0.058000
     11 C41         4.0490    0.1020    5.3780 c2        1 D71     -0.052000
     12 C42         2.9270   -0.4880    4.9090 c2        1 D71     -0.192000
     13 C43         2.4680   -0.3270    3.5710 c1        1 D71     -0.075000
     14 C22         3.3520    0.3480    2.6380 c2        1 D71     -0.037000
     15 N13         2.9890    0.3100    1.2520 n         1 D71     -0.187000
     16 N4          0.6350    0.5050    1.7240 n2        1 D71     -0.241000
     17 O52         5.2140   -0.0280    0.7060 o         1 D71     -0.315000
     18 N15         3.7710    0.2920   -1.0850 n         1 D71     -0.306000
     19 C16         2.4310    0.4170   -1.5460 c2        1 D71      0.312000
     20 O50         2.2120    0.8270   -2.6890 o         1 D71     -0.273000
     21 C24         4.8120   -0.0110   -2.0560 c3        1 D71     -0.003000
     22 C26         4.5640   -1.3170   -2.8530 c3        1 D71     -0.052000
     23 C32         4.3700   -2.4830   -1.9600 c2        1 D71     -0.544000
     24 C31         5.2110   -3.3540   -1.4620 c1        1 D71      0.208000
     25 N30         5.7720   -3.1610   -5.6530 n2        1 D71     -0.229000
     26 C29         6.0670   -2.5460   -4.5660 c2        1 D71     -0.084000
     27 C28         5.5350   -1.4050   -3.9120 c1        1 D71     -0.075000
     28 H1          0.3710    0.4580   -0.9010 hc        1 D71      0.161000
     29 H5          0.3620   -1.3470    2.7340 h4        1 D71      0.160000
     30 H6         -0.6850    0.1560    3.2340 h4        1 D71      0.160000
     31 H39         5.1750    1.5290    2.3890 ha        1 D71      0.203000
     32 H41         4.4950    2.1170    4.8670 h1        1 D71      0.191000
     33 H42         4.4290   -0.0540    6.4040 ha        1 D71      0.184000
     34 H43         2.3240   -1.1480    5.5590 ha        1 D71      0.177000
     35 H24         5.8040   -0.0820   -1.5290 h1        1 D71      0.136000
     36 H24A        4.8390    0.8440   -2.7920 h1        1 D71      0.136000
     37 H32         3.5990   -1.1620   -3.4620 hc        1 D71      0.183000
     38 H31         3.2980   -2.6530   -1.6410 ha        1 D71      0.252000
     39 H29         4.9290   -2.8710   -6.1050 hn        1 D71      0.133000
     40 H28         7.0240   -2.8640   -4.0680 h4        1 D71      0.175000
     41 N54         6.3220    1.0310    4.7730 no        1 D71      0.803400
@<TRIPOS>BOND
     1    1    2 1   
     2    1    5 1   
     3    2    3 1   
     4    2   19 1   
     5    2   28 1   
     6    3   15 1   
     7    3   16 1   
     8    4   16 1   
     9    4   29 1   
    10    4   30 1   
    11    6   15 1   
    12    6   17 1   
    13    6   18 1   
    14    7   41 2   
    15    8   41 2   
    16    9   10 1   
    17    9   11 1   
    18    9   32 1   
    19    9   41 1   
    20   10   14 1   
    21   10   31 1   
    22   11   12 1   
    23   11   33 1   
    24   12   13 1   
    25   12   34 1   
    26   13   14 1   
    27   14   15 1   
    28   18   19 1   
    29   18   21 1   
    30   19   20 1   
    31   21   22 1   
    32   21   35 1   
    33   21   36 1   
    34   22   23 1   
    35   22   27 1   
    36   22   37 1   
    37   23   24 1   
    38   23   38 1   
    39   25   26 1   
    40   25   39 1   
    41   26   27 1   
    42   26   40 1   
@<TRIPOS>SUBSTRUCTURE
     1 D71         1 TEMP              0 ****  ****    0 ROOT
