@<TRIPOS>MOLECULE
D71
   41    35     1     0     0
SMALL
bcc


@<TRIPOS>ATOM
      1 C1         -3.4720    0.5280   -0.2300 c1        1 D71     -0.111000
      2 C2         -2.0920    0.4870   -0.2530 c1        1 D71     -0.229000
      3 C3         -1.3830    0.4540    0.9420 c1        1 D71      0.170000
      4 C5         -3.4170    0.5020    2.1780 c1        1 D71      0.002000
      5 C6         -4.1400    0.5360    0.9770 c1        1 D71     -0.111000
      6 C14         0.8000    0.3980   -0.3460 c1        1 D71      0.416000
      7 O56         2.1740    3.8030    4.0000 o         1 D71     -0.301700
      8 N54         2.4640    2.7190    4.4870 n2        1 D71      0.515700
      9 O58         3.4300    2.6430    5.4690 os        1 D71     -0.356000
     10 C40         1.9120    1.5350    3.9560 c2        1 D71     -0.128000
     11 C39         1.2390    1.5680    2.7360 c1        1 D71     -0.046000
     12 C41         2.1400    0.3030    4.6000 c2        1 D71     -0.062000
     13 C42         1.6890   -0.8900    4.0130 c1        1 D71     -0.135000
     14 C43         1.0170   -0.8570    2.7950 c1        1 D71     -0.064000
     15 C22         0.7890    0.3730    2.1500 c2        1 D71      0.055000
     16 N13         0.0760    0.4090    0.9300 n2        1 D71     -0.226000
     17 N4         -2.0610    0.4610    2.1560 n2        1 D71     -0.178000
     18 O52         1.9880    0.4660   -0.3520 o         1 D71     -0.347000
     19 N15         0.0670    0.4800   -1.5930 n2        1 D71     -0.311000
     20 C16        -1.3480    0.5170   -1.5770 c2        1 D71      0.371000
     21 O50        -1.9720    0.6480   -2.6290 o         1 D71     -0.330000
     22 C24         0.7740    0.4650   -2.8550 c3        1 D71      0.013000
     23 C26         0.5420   -0.8640   -3.5450 c2        1 D71     -0.080000
     24 C32         1.5090   -1.8200   -3.5190 c2        1 D71     -0.159000
     25 C31         1.3630   -2.9870   -4.2820 c1        1 D71     -0.078500
     26 N30         0.2450   -3.1630   -5.0530 n2        1 D71     -0.131000
     27 C29        -0.7290   -2.1960   -5.0770 c1        1 D71     -0.078500
     28 C28        -0.5800   -1.0420   -4.3210 c2        1 D71     -0.159000
     29 H1         -4.0010    0.5540   -1.1100 ha        1 D71      0.166000
     30 H5         -3.8990    0.5070    3.0470 ha        1 D71      0.175000
     31 H6         -5.1500    0.5660    0.9950 ha        1 D71      0.166000
     32 H39         1.0770    2.4290    2.2830 DU        1 D71      0.168000
     33 H41         2.6320    0.2790    5.4850 ha        1 D71      0.174000
     34 H42         1.8480   -1.7560    4.4660 ha        1 D71      0.154000
     35 H43         0.6960   -1.7070    2.3770 ha        1 D71      0.160000
     36 H24         1.7310    0.5910   -2.6970 h1        1 D71      0.129000
     37 H24A        0.4520    1.1590   -3.4000 h1        1 D71      0.129000
     38 H32         2.3100   -1.6930   -2.9640 ha        1 D71      0.160500
     39 H31         2.1020   -3.7190   -4.2620 DU        1 D71      0.168000
     40 H29        -1.5510   -2.3230   -5.6430 DU        1 D71      0.168000
     41 H28        -1.2690   -0.3600   -4.3370 ha        1 D71      0.160500
@<TRIPOS>BOND
     1    1    5 1   
     2    1   29 1   
     3    2    3 1   
     4    2   20 1   
     5    3   17 1   
     6    4   17 1   
     7    4   30 1   
     8    5   31 1   
     9    6   16 1   
    10    6   18 1   
    11    7    8 2   
    12    8   10 1   
    13   10   11 1   
    14   10   12 1   
    15   11   15 1   
    16   12   13 1   
    17   12   33 1   
    18   13   34 1   
    19   14   15 1   
    20   14   35 1   
    21   15   16 1   
    22   19   20 1   
    23   19   22 1   
    24   20   21 1   
    25   22   23 1   
    26   22   36 1   
    27   22   37 1   
    28   23   24 1   
    29   23   28 1   
    30   24   25 1   
    31   24   38 1   
    32   25   26 1   
    33   26   27 1   
    34   27   28 1   
    35   28   41 1   
@<TRIPOS>SUBSTRUCTURE
     1 D71         1 TEMP              0 ****  ****    0 ROOT
