@<TRIPOS>MOLECULE
D71
   41    44     1     0     0
SMALL
bcc


@<TRIPOS>ATOM
      1 C1          0.9060    3.6780    0.1350 ca        1 D71      0.000000
      2 C2          0.7740    2.2890    0.2850 ca        1 D71     -0.314900
      3 C3         -0.4240    1.6550   -0.1620 ca        1 D71      0.578200
      4 C5         -1.2780    3.6930   -0.8630 ca        1 D71      0.467200
      5 C6         -0.1290    4.3990   -0.4450 ca        1 D71     -0.287300
      6 C14         0.5120   -0.5200    0.5190 c         1 D71      0.825500
      7 O56        -5.4800    0.5440    1.1760 o         1 D71     -0.206000
      8 O58        -6.4520   -0.8560   -0.0570 o         1 D71     -0.206000
      9 C40        -4.1470   -0.6990   -0.2630 ca        1 D71     -0.173200
     10 C39        -2.9820   -0.0420    0.1590 ca        1 D71     -0.046000
     11 C41        -4.1040   -1.7190   -1.2270 ca        1 D71     -0.062000
     12 C42        -2.8730   -2.0780   -1.7680 ca        1 D71     -0.135000
     13 C43        -1.7020   -1.4360   -1.3760 ca        1 D71     -0.064000
     14 C22        -1.7490   -0.4070   -0.4130 ca        1 D71      0.047600
     15 N13        -0.5520    0.2610   -0.0110 n         1 D71     -0.365500
     16 N4         -1.4460    2.3720   -0.7380 nb        1 D71     -0.704000
     17 O52         0.3980   -1.7620    0.5750 o         1 D71     -0.622500
     18 N15         1.6770    0.1200    0.9930 n         1 D71     -0.482400
     19 C16         1.8670    1.5110    0.8870 c         1 D71      0.734100
     20 O50         2.9200    2.0270    1.3020 o         1 D71     -0.605500
     21 C24         2.7390   -0.7150    1.5350 c3        1 D71      0.136300
     22 C26         3.7240   -1.1980    0.5110 ca        1 D71     -0.087300
     23 C32         4.8490   -0.4310    0.1900 ca        1 D71     -0.224300
     24 C31         5.7650   -0.9470   -0.7450 ca        1 D71      0.386700
     25 N30         5.6170   -2.1410   -1.3520 nb        1 D71     -0.657000
     26 C29         4.5240   -2.8620   -1.0370 ca        1 D71      0.386700
     27 C28         3.5480   -2.4360   -0.1170 ca        1 D71     -0.224300
     28 H1          1.8320    4.1670    0.4820 ha        1 D71      0.172000
     29 H5         -2.1290    4.2260   -1.3310 h4        1 D71      0.038100
     30 H6         -0.0650    5.4860   -0.5790 ha        1 D71      0.160000
     31 H39        -3.0460    0.7560    0.9210 ha        1 D71      0.181000
     32 H41        -5.0310   -2.2260   -1.5450 ha        1 D71      0.174000
     33 H42        -2.8250   -2.8830   -2.5190 ha        1 D71      0.154000
     34 H43        -0.7350   -1.7510   -1.8030 ha        1 D71      0.160000
     35 H24         3.2830   -0.1000    2.3110 h1        1 D71      0.089700
     36 H24A        2.2610   -1.6040    2.0410 h1        1 D71      0.089700
     37 H32         5.0060    0.5550    0.6520 ha        1 D71      0.160500
     38 H31         6.6680   -0.3750   -1.0240 h4        1 D71      0.024600
     39 H29         4.4250   -3.8350   -1.5510 h4        1 D71      0.024600
     40 H28         2.6650   -3.0540    0.0990 ha        1 D71      0.160500
     41 N54        -5.4550   -0.3080    0.3290 no        1 D71      0.315200
@<TRIPOS>BOND
     1    1    2 ar  
     2    1    5 ar  
     3    1   28 1   
     4    2    3 ar  
     5    2   19 1   
     6    3   15 1   
     7    3   16 ar  
     8    4    5 ar  
     9    4   16 ar  
    10    4   29 1   
    11    5   30 1   
    12    6   15 1   
    13    6   17 2   
    14    6   18 1   
    15    7   41 1   
    16    8   41 1   
    17    9   10 ar  
    18    9   11 ar  
    19    9   41 1   
    20   10   14 ar  
    21   10   31 1   
    22   11   12 ar  
    23   11   32 1   
    24   12   13 ar  
    25   12   33 1   
    26   13   14 ar  
    27   13   34 1   
    28   14   15 1   
    29   18   19 1   
    30   18   21 1   
    31   19   20 2   
    32   21   22 1   
    33   21   35 1   
    34   21   36 1   
    35   22   23 ar  
    36   22   27 ar  
    37   23   24 ar  
    38   23   37 1   
    39   24   25 ar  
    40   24   38 1   
    41   25   26 ar  
    42   26   27 ar  
    43   26   39 1   
    44   27   40 1   
@<TRIPOS>SUBSTRUCTURE
     1 D71         1 TEMP              0 ****  ****    0 ROOT
