@<TRIPOS>MOLECULE
D72
   36    37     1     0     0
SMALL
bcc


@<TRIPOS>ATOM
      1 C1         -0.0650    0.1600   -0.0080 ca        1 D72     -0.091000
      2 C2          1.3130   -0.1330    2.4350 ca        1 D72     -0.013600
      3 C3          1.3150   -0.0400   -0.0160 ca        1 D72     -0.072800
      4 C4         -0.7600    0.2250    1.2010 ca        1 D72     -0.017600
      5 C5         -0.0800    0.0770    2.4210 ca        1 D72      0.105100
      6 C6          2.0030   -0.1980    1.2100 ca        1 D72      0.140100
      7 C7          2.0890   -0.0600   -1.2410 ce        1 D72     -0.118200
      8 CL8        -2.4440    0.4850    1.1560 cl        1 D72     -0.102400
      9 O9         -0.7950    0.0380    3.6100 os        1 D72     -0.331900
     10 O10         3.3740   -0.3550    1.2600 os        1 D72     -0.306900
     11 C11         3.3890   -0.4010   -1.2110 cf        1 D72     -0.175400
     12 C12         4.3030   -0.2650   -2.4300 c         1 D72      0.918800
     13 C13         4.0340   -0.7990    0.0680 c3        1 D72      0.163300
     14 C14         4.2210   -2.3610    0.2100 c3        1 D72      0.604900
     15 O15         5.5310   -0.1050   -2.1920 o         1 D72     -0.807300
     16 O16         3.7650   -0.2850   -3.5670 o         1 D72     -0.807300
     17 C17        -0.9260    1.3340    4.2230 c3        1 D72      0.131400
     18 C18        -1.7300    1.1220    5.5030 c3        1 D72     -0.069700
     19 C19        -0.8820    0.4530    6.5620 c3        1 D72     -0.090100
     20 C20        -2.2610    2.4520    5.9920 c3        1 D72     -0.090100
     21 F21         3.0700   -3.1070    0.1690 f         1 D72     -0.242633
     22 F22         5.0390   -2.9310   -0.7260 f         1 D72     -0.242633
     23 F23         4.7960   -2.7120    1.4110 f         1 D72     -0.242633
     24 CL24        2.1370   -0.3070    3.9110 cl        1 D72     -0.068400
     25 H1         -0.5990    0.2710   -0.9650 ha        1 D72      0.154000
     26 H7          1.6040    0.2300   -2.1860 ha        1 D72      0.166000
     27 H13         5.0690   -0.3420    0.1360 h1        1 D72      0.151700
     28 H17         0.0930    1.7450    4.4460 h1        1 D72      0.041200
     29 H17A       -1.4670    2.0190    3.5190 h1        1 D72      0.041200
     30 H18        -2.5980    0.4460    5.2580 hc        1 D72      0.064700
     31 H19        -1.5020    0.2110    7.4590 hc        1 D72      0.035033
     32 H19A       -0.0450    1.1210    6.8780 hc        1 D72      0.035033
     33 H19B       -0.4480   -0.4930    6.1560 hc        1 D72      0.035033
     34 H20        -2.9390    2.9080    5.2310 hc        1 D72      0.035033
     35 H20A       -1.4220    3.1620    6.1890 hc        1 D72      0.035033
     36 H20B       -2.8340    2.3090    6.9400 hc        1 D72      0.035033
@<TRIPOS>BOND
     1    1    3 ar  
     2    1    4 ar  
     3    1   25 1   
     4    2    5 ar  
     5    2    6 ar  
     6    2   24 1   
     7    3    6 ar  
     8    3    7 1   
     9    4    5 ar  
    10    4    8 1   
    11    5    9 1   
    12    6   10 1   
    13    7   11 2   
    14    7   26 1   
    15    9   17 1   
    16   10   13 1   
    17   11   12 1   
    18   11   13 1   
    19   12   15 1   
    20   12   16 1   
    21   13   14 1   
    22   13   27 1   
    23   14   21 1   
    24   14   22 1   
    25   14   23 1   
    26   17   18 1   
    27   17   28 1   
    28   17   29 1   
    29   18   19 1   
    30   18   20 1   
    31   18   30 1   
    32   19   31 1   
    33   19   32 1   
    34   19   33 1   
    35   20   34 1   
    36   20   35 1   
    37   20   36 1   
@<TRIPOS>SUBSTRUCTURE
     1 D72         1 TEMP              0 ****  ****    0 ROOT
