@<TRIPOS>MOLECULE
D72
   36    37     1     0     0
SMALL
bcc


@<TRIPOS>ATOM
      1 C1         -0.0660    0.1580   -0.0090 ca        1 D72     -0.091000
      2 C2          1.3130   -0.1280    2.4340 ca        1 D72     -0.013600
      3 C3          1.3140   -0.0380   -0.0170 ca        1 D72     -0.072800
      4 C4         -0.7620    0.2220    1.2000 ca        1 D72     -0.017600
      5 C5         -0.0800    0.0780    2.4210 ca        1 D72      0.105100
      6 C6          2.0030   -0.1920    1.2090 ca        1 D72      0.140100
      7 C7          2.0880   -0.0570   -1.2420 ce        1 D72     -0.118200
      8 Cl8        -2.4460    0.4760    1.1560 cl        1 D72     -0.102400
      9 O9         -0.7950    0.0380    3.6100 os        1 D72     -0.331900
     10 O10         3.3740   -0.3450    1.2590 os        1 D72     -0.306900
     11 C11         3.3890   -0.3940   -1.2110 cf        1 D72     -0.175400
     12 C12         4.3020   -0.2570   -2.4320 c         1 D72      0.918800
     13 C13         4.0350   -0.7880    0.0670 c3        1 D72      0.163300
     14 C14         4.2280   -2.3500    0.2120 c3        1 D72      0.604900
     15 O15         5.5300   -0.0930   -2.1940 o         1 D72     -0.807300
     16 O16         3.7640   -0.2790   -3.5680 o         1 D72     -0.807300
     17 C17        -0.9300    1.3340    4.2220 c3        1 D72      0.131400
     18 C18        -1.7320    1.1210    5.5020 c3        1 D72     -0.069700
     19 C19        -0.8820    0.4560    6.5620 c3        1 D72     -0.090100
     20 C20        -2.2680    2.4500    5.9900 c3        1 D72     -0.090100
     21 F21         3.0790   -3.0990    0.1730 f         1 D72     -0.242633
     22 F22         5.0460   -2.9180   -0.7240 f         1 D72     -0.242633
     23 F23         4.8040   -2.6970    1.4120 f         1 D72     -0.242633
     24 Cl24        2.1380   -0.2980    3.9110 cl        1 D72     -0.068400
     25 H1         -0.6010    0.2660   -0.9650 ha        1 D72      0.154000
     26 H7          1.6020    0.2300   -2.1870 ha        1 D72      0.166000
     27 H13         5.0690   -0.3280    0.1350 h1        1 D72      0.151700
     28 H17        -1.4730    2.0160    3.5170 h1        1 D72      0.041200
     29 H17A        0.0880    1.7490    4.4430 h1        1 D72      0.041200
     30 H18        -2.5980    0.4420    5.2590 hc        1 D72      0.064700
     31 H19        -0.0470    1.1280    6.8770 hc        1 D72      0.035033
     32 H19A       -0.4440   -0.4880    6.1570 hc        1 D72      0.035033
     33 H19B       -1.4990    0.2140    7.4600 hc        1 D72      0.035033
     34 H20        -2.9480    2.9020    5.2290 hc        1 D72      0.035033
     35 H20A       -2.8390    2.3070    6.9380 hc        1 D72      0.035033
     36 H20B       -1.4310    3.1630    6.1860 hc        1 D72      0.035033
@<TRIPOS>BOND
     1    1    3 ar  
     2    1    4 ar  
     3    1   25 1   
     4    2    5 ar  
     5    2    6 ar  
     6    2   24 1   
     7    3    6 ar  
     8    3    7 1   
     9    4    5 ar  
    10    4    8 1   
    11    5    9 1   
    12    6   10 1   
    13    7   11 2   
    14    7   26 1   
    15    9   17 1   
    16   10   13 1   
    17   11   12 1   
    18   11   13 1   
    19   12   15 1   
    20   12   16 1   
    21   13   14 1   
    22   13   27 1   
    23   14   21 1   
    24   14   22 1   
    25   14   23 1   
    26   17   18 1   
    27   17   28 1   
    28   17   29 1   
    29   18   19 1   
    30   18   20 1   
    31   18   30 1   
    32   19   31 1   
    33   19   32 1   
    34   19   33 1   
    35   20   34 1   
    36   20   35 1   
    37   20   36 1   
@<TRIPOS>SUBSTRUCTURE
     1 D72         1 TEMP              0 ****  ****    0 ROOT
