@<TRIPOS>MOLECULE
D72
   36    33     1     0     0
SMALL
bcc


@<TRIPOS>ATOM
      1 C1         -0.7150   -0.1900   -2.0060 c1        1 D72     -0.091000
      2 C2          0.6430   -0.1770    0.4270 c1        1 D72     -0.092000
      3 C3          0.6870   -0.2330   -1.9860 c1        1 D72     -0.061000
      4 C4         -1.4270   -0.1410   -0.8120 c1        1 D72     -0.095000
      5 C5         -0.7470   -0.1340    0.4060 c1        1 D72      0.060000
      6 C6          1.3620   -0.2260   -0.7770 c1        1 D72      0.095000
      7 C7          1.4370   -0.4760   -3.2560 c2        1 D72     -0.130000
      8 CL8        -3.1660   -0.0280   -0.8390 cl        1 D72     -0.024000
      9 O9         -1.4670   -0.1790    1.6110 os        1 D72     -0.215000
     10 O10         2.8320   -0.1560   -0.7560 os        1 D72     -0.190000
     11 C11         2.8810   -0.7280   -3.2110 c1        1 D72     -0.152000
     12 C12         3.6220   -1.1030   -4.4750 c1        1 D72      0.369000
     13 C13         3.6130   -0.7230   -1.8670 c3        1 D72      0.048000
     14 C14         4.1410   -2.1520   -1.5100 c3        1 D72      0.391000
     15 O15         3.6250   -2.2980   -4.8730 o         1 D72     -0.542000
     16 O16         4.2560   -0.2250   -5.1170 o         1 D72     -0.542000
     17 C17        -1.9680    1.0700    2.0220 c3        1 D72     -0.019000
     18 C18        -3.0000    0.8670    3.1080 c3        1 D72     -0.110000
     19 C19        -2.6270    1.6930    4.3190 c3        1 D72     -0.207500
     20 C20        -4.3580    1.2990    2.6010 c3        1 D72     -0.207500
     21 F21         3.1850   -3.0560   -1.7610 f         1 D72     -0.171333
     22 F22         5.2210   -2.4270   -2.2520 f         1 D72     -0.171333
     23 F23         4.4670   -2.1960   -0.2120 f         1 D72     -0.171333
     24 CL24        1.4940   -0.1120    1.9470 cl        1 D72      0.010000
     25 H1         -1.1920   -0.2040   -2.8570 ha        1 D72      0.154000
     26 H7          0.9830   -0.3880   -4.1160 ha        1 D72      0.166000
     27 H13         4.4570   -0.2370   -1.9560 h1        1 D72      0.191000
     28 H17        -1.2330    1.6190    2.3670 h1        1 D72      0.080500
     29 H17A       -2.3820    1.5230    1.2580 h1        1 D72      0.080500
     30 H18        -3.0300   -0.0770    3.3560 hc        1 D72      0.106000
     31 H19        -3.3300    1.6150    4.9970 hc        1 D72      0.073833
     32 H19A       -1.7790    1.3680    4.6880 hc        1 D72      0.073833
     33 H19B       -2.5300    2.6330    4.0560 hc        1 D72      0.073833
     34 H20        -5.0240    1.1810    3.3100 hc        1 D72      0.073833
     35 H20A       -4.6060    0.7540    1.8260 hc        1 D72      0.073833
     36 H20B       -4.3230    2.2430    2.3390 hc        1 D72      0.073833
@<TRIPOS>BOND
     1    1    4 1   
     2    1   25 1   
     3    2    5 1   
     4    2   24 1   
     5    3    6 1   
     6    3    7 1   
     7    4    8 1   
     8    5    9 1   
     9    6   10 1   
    10    7   11 1   
    11    7   26 1   
    12    9   17 1   
    13   10   13 1   
    14   11   13 1   
    15   12   15 1   
    16   12   16 1   
    17   13   14 1   
    18   13   27 1   
    19   14   21 1   
    20   14   22 1   
    21   14   23 1   
    22   17   18 1   
    23   17   28 1   
    24   17   29 1   
    25   18   19 1   
    26   18   20 1   
    27   18   30 1   
    28   19   31 1   
    29   19   32 1   
    30   19   33 1   
    31   20   34 1   
    32   20   35 1   
    33   20   36 1   
@<TRIPOS>SUBSTRUCTURE
     1 D72         1 TEMP              0 ****  ****    0 ROOT
