@<TRIPOS>MOLECULE
D72
   36    37     1     0     0
SMALL
bcc


@<TRIPOS>ATOM
      1 C1          0.2690    2.1930    0.0890 ca        1 D72     -0.091000
      2 C2          0.9500   -0.5370   -0.1000 ca        1 D72     -0.013600
      3 C3         -0.7220    1.2550   -0.1960 ca        1 D72     -0.072800
      4 C4          1.5930    1.7870    0.2700 ca        1 D72     -0.017600
      5 C5          1.9380    0.4280    0.1790 ca        1 D72      0.105100
      6 C6         -0.3810   -0.1150   -0.2790 ca        1 D72      0.140100
      7 C7         -2.0990    1.6320   -0.4450 ce        1 D72     -0.118200
      8 CL8         2.7690    2.9740    0.6030 cl        1 D72     -0.102400
      9 O9          3.2350    0.0240    0.4650 os        1 D72     -0.331900
     10 O10        -1.3150   -1.0790   -0.6010 os        1 D72     -0.306900
     11 C11        -3.0440    0.6860   -0.5700 cf        1 D72     -0.175400
     12 C12        -4.4740    1.0050   -1.0150 c         1 D72      0.918800
     13 C13        -2.6980   -0.7510   -0.4140 c3        1 D72      0.163300
     14 C14        -3.1160   -1.3430    0.9900 c3        1 D72      0.604900
     15 O15        -5.1020    0.0720   -1.5850 o         1 D72     -0.807300
     16 O16        -4.8990    2.1710   -0.8150 o         1 D72     -0.807300
     17 C17         4.0710   -0.0300   -0.7070 c3        1 D72      0.131400
     18 C18         5.4470   -0.4820   -0.2280 c3        1 D72     -0.069700
     19 C19         5.4380   -1.9560    0.1140 c3        1 D72     -0.090100
     20 C20         6.4780   -0.1780   -1.2940 c3        1 D72     -0.090100
     21 F21        -2.5500   -0.7400    2.0850 f         1 D72     -0.242633
     22 F22        -4.4600   -1.3310    1.2430 f         1 D72     -0.242633
     23 F23        -2.7650   -2.6660    1.1260 f         1 D72     -0.242633
     24 CL24        1.3680   -2.1800   -0.2150 cl        1 D72     -0.068400
     25 H1         -0.0020    3.2580    0.1650 ha        1 D72      0.154000
     26 H7         -2.3500    2.6990   -0.5540 ha        1 D72      0.166000
     27 H13        -3.2390   -1.3660   -1.1980 h1        1 D72      0.151700
     28 H17         3.6360   -0.7570   -1.4400 h1        1 D72      0.041200
     29 H17A        4.1210    0.9910   -1.1660 h1        1 D72      0.041200
     30 H18         5.6980    0.1000    0.7040 hc        1 D72      0.064700
     31 H19         4.6260   -2.1670    0.8520 hc        1 D72      0.035033
     32 H19A        5.2560   -2.5710   -0.8000 hc        1 D72      0.035033
     33 H19B        6.4180   -2.2580    0.5550 hc        1 D72      0.035033
     34 H20         6.5260    0.9200   -1.4920 hc        1 D72      0.035033
     35 H20A        7.4860   -0.5240   -0.9610 hc        1 D72      0.035033
     36 H20B        6.2220   -0.6990   -2.2480 hc        1 D72      0.035033
@<TRIPOS>BOND
     1    1    3 ar  
     2    1    4 ar  
     3    1   25 1   
     4    2    5 ar  
     5    2    6 ar  
     6    2   24 1   
     7    3    6 ar  
     8    3    7 1   
     9    4    5 ar  
    10    4    8 1   
    11    5    9 1   
    12    6   10 1   
    13    7   11 2   
    14    7   26 1   
    15    9   17 1   
    16   10   13 1   
    17   11   12 1   
    18   11   13 1   
    19   12   15 1   
    20   12   16 1   
    21   13   14 1   
    22   13   27 1   
    23   14   21 1   
    24   14   22 1   
    25   14   23 1   
    26   17   18 1   
    27   17   28 1   
    28   17   29 1   
    29   18   19 1   
    30   18   20 1   
    31   18   30 1   
    32   19   31 1   
    33   19   32 1   
    34   19   33 1   
    35   20   34 1   
    36   20   35 1   
    37   20   36 1   
@<TRIPOS>SUBSTRUCTURE
     1 D72         1 TEMP              0 ****  ****    0 ROOT
