@<TRIPOS>MOLECULE
D75
   48    51     1     0     0
SMALL
bcc


@<TRIPOS>ATOM
      1 C1          0.0170   -0.0260    0.0550 c3        1 D75      0.336900
      2 C2          1.5440    0.0350   -0.1640 c3        1 D75      0.121100
      3 O2          1.9140   -1.1540   -0.8450 oh        1 D75     -0.603800
      4 C3          2.2560    0.1120    1.1970 c3        1 D75      0.099100
      5 O3          3.6300    0.3500    0.9200 oh        1 D75     -0.628800
      6 C4          1.6450    1.2220    2.0680 c3        1 D75      0.115100
      7 O4          2.3060    1.1470    3.3180 oh        1 D75     -0.652800
      8 C5          0.1360    0.9910    2.1890 c3        1 D75     -0.024900
      9 O5         -0.4330    1.0270    0.8800 os        1 D75     -0.400600
     10 C6         -0.5980    2.0790    3.0340 c         1 D75      0.939600
     11 O10        -0.5800    0.2870   -1.2040 os        1 D75     -0.322900
     12 C11        -2.3570   -0.3370   -2.5920 ca        1 D75     -0.196000
     13 C12        -1.9390    0.0790   -1.3170 ca        1 D75      0.189100
     14 C13        -2.8700    0.3250   -0.2900 ca        1 D75     -0.188000
     15 C14        -4.2220    0.1410   -0.5390 ca        1 D75     -0.029000
     16 C15        -4.6810   -0.2800   -1.8010 ca        1 D75     -0.250600
     17 C16        -3.7290   -0.5010   -2.8090 ca        1 D75      0.139100
     18 C17        -6.1100   -0.4730   -2.0630 c         1 D75      0.603900
     19 C18        -6.4190   -0.9260   -3.4350 cc        1 D75     -0.219400
     20 C19        -5.4180   -1.0990   -4.3330 cd        1 D75      0.084100
     21 O20        -4.0850   -0.9050   -4.0930 os        1 D75     -0.222200
     22 C21        -7.8000   -1.1890   -3.8280 ca        1 D75     -0.054800
     23 C22        -8.0960   -2.2570   -4.6900 ca        1 D75     -0.080000
     24 C23        -9.4000   -2.5120   -5.0960 ca        1 D75     -0.188500
     25 C24       -10.4330   -1.6850   -4.6280 ca        1 D75      0.115100
     26 C25       -10.1590   -0.6200   -3.7590 ca        1 D75     -0.188500
     27 C26        -8.8470   -0.3800   -3.3620 ca        1 D75     -0.080000
     28 O27        -6.9810   -0.2710   -1.2030 o         1 D75     -0.561100
     29 O28       -11.7060   -1.9770   -5.0670 oh        1 D75     -0.505100
     30 O6A         0.1280    2.7660    3.8080 o         1 D75     -0.813800
     31 O6B        -1.8450    2.1520    2.9270 o         1 D75     -0.813800
     32 H1         -0.3150   -1.0300    0.4300 h2        1 D75      0.056700
     33 H2          1.8040    0.9310   -0.7910 h1        1 D75      0.072700
     34 H3          2.1700   -0.8780    1.7280 h1        1 D75      0.051700
     35 H4          1.8360    2.2290    1.6050 h1        1 D75      0.060700
     36 H5         -0.0620   -0.0080    2.6650 h1        1 D75      0.036700
     37 H22        -7.2860   -2.9150   -5.0430 ha        1 D75      0.146000
     38 H13        -2.5310    0.6970    0.6990 ha        1 D75      0.221000
     39 H23        -9.6350   -3.3470   -5.7690 ha        1 D75      0.137500
     40 H14        -4.9650    0.3350    0.2540 ha        1 D75      0.165000
     41 H25       -10.9730    0.0170   -3.3870 ha        1 D75      0.137500
     42 H26        -8.6270    0.4420   -2.6610 ha        1 D75      0.146000
     43 HO28      -12.3140   -1.3570   -4.6380 ho        1 D75      0.415000
     44 HO2         2.8800   -1.1510   -0.8760 ho        1 D75      0.413000
     45 HO3         4.0110    0.7080    1.7330 ho        1 D75      0.427000
     46 HO4         1.8400    1.7630    3.9130 ho        1 D75      0.467000
     47 H19        -5.5470   -1.4150   -5.3830 h4        1 D75      0.170000
     48 H11        -1.6290   -0.5170   -3.3930 ha        1 D75      0.162000
@<TRIPOS>BOND
     1    1    2 1   
     2    1    9 1   
     3    1   11 1   
     4    1   32 1   
     5    2    3 1   
     6    2    4 1   
     7    2   33 1   
     8    3   44 1   
     9    4    5 1   
    10    4    6 1   
    11    4   34 1   
    12    5   45 1   
    13    6    7 1   
    14    6    8 1   
    15    6   35 1   
    16    7   46 1   
    17    8    9 1   
    18    8   10 1   
    19    8   36 1   
    20   10   30 1   
    21   10   31 1   
    22   11   13 1   
    23   12   13 ar  
    24   12   17 ar  
    25   12   48 1   
    26   13   14 ar  
    27   14   15 ar  
    28   14   38 1   
    29   15   16 ar  
    30   15   40 1   
    31   16   17 ar  
    32   16   18 1   
    33   17   21 1   
    34   18   19 1   
    35   18   28 2   
    36   19   20 2   
    37   19   22 1   
    38   20   21 1   
    39   20   47 1   
    40   22   23 ar  
    41   22   27 ar  
    42   23   24 ar  
    43   23   37 1   
    44   24   25 ar  
    45   24   39 1   
    46   25   26 ar  
    47   25   29 1   
    48   26   27 ar  
    49   26   41 1   
    50   27   42 1   
    51   29   43 1   
@<TRIPOS>SUBSTRUCTURE
     1 D75         1 TEMP              0 ****  ****    0 ROOT
