@<TRIPOS>MOLECULE
D76
   60    64     1     0     0
SMALL
bcc


@<TRIPOS>ATOM
      1 CZ7        -0.3440   -1.3730    0.6560 c3        1 D76      0.153100
      2 NZ2         0.8940   -0.9610    1.2810 n3        1 D76     -0.726600
      3 CZ3         1.9550   -1.9450    1.0920 c3        1 D76      0.240100
      4 CZ4         1.2890    0.3910    0.9150 c3        1 D76      0.168800
      5 CZ5         2.4690    0.9150    1.7400 c3        1 D76     -0.105700
      6 CZ6         3.5470   -0.1050    1.8180 cc        1 D76      0.345600
      7 CZ2         3.2900   -1.4640    1.5310 cd        1 D76     -0.223700
      8 NZ1         4.8400    0.1590    2.1990 nc        1 D76     -0.692000
      9 CZ1         5.5440   -0.9990    2.2000 cd        1 D76      0.239900
     10 SZ1         4.6450   -2.3710    1.7590 ss        1 D76      0.203700
     11 CC1         6.9530   -1.1450    2.6430 c         1 D76      0.600600
     12 OC1         7.3700   -2.2480    3.0340 o         1 D76     -0.536100
     13 NP2         7.8500   -0.0610    2.5990 n         1 D76     -0.440800
     14 CP3         8.9890   -0.1080    3.5110 c3        1 D76      0.050000
     15 CP4        10.1320    0.8830    3.1820 c3        1 D76      0.211800
     16 CP2         7.4600    1.2310    2.1200 c3        1 D76      0.055700
     17 CC2         6.6730    2.0120    3.1970 c         1 D76      0.531100
     18 OC2         6.4950    1.7240    4.3680 o         1 D76     -0.404100
     19 NC2         6.0340    3.3060    2.7600 n4        1 D76     -0.759400
     20 CP1         8.7060    2.0690    1.6810 c3        1 D76      0.218800
     21 NP1         9.6650    2.1740    2.7380 n3        1 D76     -0.814500
     22 S1          9.9160    3.6060    3.5140 sy        1 D76      1.537200
     23 O1         10.3420    3.3640    4.8290 o         1 D76     -0.676800
     24 O2          8.6620    4.2890    3.3640 o         1 D76     -0.676800
     25 CN1        11.0930    4.3680    2.6430 ca        1 D76     -0.430500
     26 CN2        10.7630    5.0910    1.4620 ca        1 D76     -0.053000
     27 CN3        11.7170    5.7570    0.7420 ca        1 D76     -0.117000
     28 CN4        13.0780    5.7440    1.1610 ca        1 D76      0.032000
     29 CN5        14.0870    6.4240    0.4320 ca        1 D76     -0.139000
     30 CN9        13.4250    5.0350    2.3410 ca        1 D76     -0.082000
     31 C10        12.4140    4.3570    3.0610 ca        1 D76      0.059000
     32 CN8        14.7810    5.0270    2.7740 ca        1 D76     -0.085000
     33 CN7        15.7460    5.6910    2.0590 ca        1 D76     -0.119000
     34 CN6        15.3930    6.3950    0.8760 ca        1 D76      0.059400
     35 CL1        16.6060    7.2020    0.0150 cl        1 D76     -0.047400
     36 HZ71       -1.1510   -0.6520    0.9510 h1        1 D76      0.045033
     37 HZ72       -0.6180   -2.3930    1.0350 h1        1 D76      0.045033
     38 HZ73       -0.2850   -1.4100   -0.4660 h1        1 D76      0.045033
     39 HZ31        1.6610   -2.8530    1.6980 h1        1 D76      0.060700
     40 HZ32        2.0380   -2.2680    0.0090 h1        1 D76      0.060700
     41 HZ41        0.4060    1.0670    1.0990 h1        1 D76      0.045200
     42 HZ42        1.5560    0.4660   -0.1800 h1        1 D76      0.045200
     43 HZ51        2.8400    1.8610    1.2670 hc        1 D76      0.058700
     44 HZ52        2.1250    1.1560    2.7830 hc        1 D76      0.058700
     45 HP31        9.4160   -1.1530    3.4770 h1        1 D76      0.089200
     46 HP32        8.6200    0.0920    4.5590 h1        1 D76      0.089200
     47 HP41       10.7460    1.0120    4.1200 h1        1 D76      0.081700
     48 HP42       10.7860    0.4320    2.3810 h1        1 D76      0.081700
     49 HP2         6.8040    1.1210    1.2060 h1        1 D76      0.117700
     50 HC21        5.5990    3.1960    1.8440 hn        1 D76      0.473133
     51 HC22        5.3240    3.5920    3.4440 hn        1 D76      0.473133
     52 HP11        9.1620    1.5400    0.7920 h1        1 D76      0.077200
     53 HP12        8.3710    3.0890    1.3440 h1        1 D76      0.077200
     54 HN2         9.7070    5.1230    1.1470 ha        1 D76      0.130000
     55 HN3        11.4510    6.3190   -0.1680 ha        1 D76      0.153000
     56 HN5        13.8090    6.9710   -0.4830 ha        1 D76      0.162000
     57 H10        12.6950    3.8210    3.9890 ha        1 D76      0.162000
     58 HN8        15.0430    4.4810    3.6950 ha        1 D76      0.152000
     59 HN7        16.7970    5.6880    2.3920 ha        1 D76      0.167000
     60 HC23        6.7640    4.0410    2.7240 hn        1 D76      0.473133
@<TRIPOS>BOND
     1    1    2 1   
     2    1   36 1   
     3    1   37 1   
     4    1   38 1   
     5    2    3 1   
     6    2    4 1   
     7    3    7 1   
     8    3   39 1   
     9    3   40 1   
    10    4    5 1   
    11    4   41 1   
    12    4   42 1   
    13    5    6 1   
    14    5   43 1   
    15    5   44 1   
    16    6    7 2   
    17    6    8 1   
    18    7   10 1   
    19    8    9 2   
    20    9   10 1   
    21    9   11 1   
    22   11   12 2   
    23   11   13 1   
    24   13   14 1   
    25   13   16 1   
    26   14   15 1   
    27   14   45 1   
    28   14   46 1   
    29   15   21 1   
    30   15   47 1   
    31   15   48 1   
    32   16   17 1   
    33   16   20 1   
    34   16   49 1   
    35   17   18 2   
    36   17   19 1   
    37   19   50 1   
    38   19   51 1   
    39   19   60 1   
    40   20   21 1   
    41   20   52 1   
    42   20   53 1   
    43   21   22 1   
    44   22   23 2   
    45   22   24 2   
    46   22   25 1   
    47   25   26 ar  
    48   25   31 ar  
    49   26   27 ar  
    50   26   54 1   
    51   27   28 ar  
    52   27   55 1   
    53   28   29 ar  
    54   28   30 ar  
    55   29   34 ar  
    56   29   56 1   
    57   30   31 ar  
    58   30   32 ar  
    59   31   57 1   
    60   32   33 ar  
    61   32   58 1   
    62   33   34 ar  
    63   33   59 1   
    64   34   35 1   
@<TRIPOS>SUBSTRUCTURE
     1 D76         1 TEMP              0 ****  ****    0 ROOT
