@<TRIPOS>MOLECULE
D76
   59    63     1     0     0
SMALL
bcc


@<TRIPOS>ATOM
      1 CZ7        -8.1000    3.5480    1.0690 c3        1 D76      0.157100
      2 NZ2        -6.8470    2.9330    0.6920 n3        1 D76     -0.728600
      3 CZ3        -6.8950    1.4800    0.8300 c3        1 D76      0.251100
      4 CZ4        -6.3710    3.3890   -0.6070 c3        1 D76      0.168800
      5 CZ5        -4.9710    2.8800   -0.9600 c3        1 D76     -0.104700
      6 CZ6        -4.8690    1.4230   -0.6930 cc        1 D76      0.346600
      7 CZ2        -5.7770    0.7740    0.1590 cd        1 D76     -0.219700
      8 NZ1        -3.8900    0.6060   -1.2280 nc        1 D76     -0.604000
      9 CZ1        -4.0750   -0.6440   -0.7710 cd        1 D76      0.300900
     10 SZ1        -5.4030   -0.8430    0.2820 ss        1 D76      0.056700
     11 CC1        -3.2590   -1.7940   -1.2510 c         1 D76      0.609600
     12 OC1        -3.7270   -2.5820   -2.0940 o         1 D76     -0.575100
     13 NP2        -1.9820   -1.9930   -0.7370 n         1 D76     -0.455800
     14 CP3        -1.1510   -3.0260   -1.3190 c3        1 D76      0.070000
     15 CP4         0.2880   -2.5530   -1.6210 c3        1 D76      0.196800
     16 CP2        -1.3970   -1.1490    0.2740 c3        1 D76      0.025700
     17 CC2        -1.5350   -1.7190    1.7080 c         1 D76      0.624100
     18 OC2        -2.1800   -1.0640    2.5530 o         1 D76     -0.617100
     19 NC2        -0.9790   -2.9250    2.0250 n         1 D76     -0.634000
     20 CP1         0.0950   -0.7910    0.0060 c3        1 D76      0.222800
     21 NP1         0.8910   -1.8720   -0.5020 n3        1 D76     -0.824500
     22 S1          2.2700   -2.4120    0.1900 sy        1 D76      1.516200
     23 O1          2.9680   -3.2240   -0.7280 o         1 D76     -0.658300
     24 O2          1.9490   -3.0130    1.4270 o         1 D76     -0.658300
     25 CN1         3.1430   -1.0030    0.4690 ca        1 D76     -0.386500
     26 CN2         3.0740   -0.3670    1.7390 ca        1 D76     -0.049000
     27 CN3         3.8020    0.7630    2.0080 ca        1 D76     -0.130000
     28 CN4         4.6500    1.3260    1.0150 ca        1 D76      0.021000
     29 CN5         5.4130    2.4990    1.2650 ca        1 D76     -0.132000
     30 CN9         4.7380    0.6960   -0.2530 ca        1 D76     -0.078000
     31 C10         3.9720   -0.4710   -0.4980 ca        1 D76      0.039000
     32 CN8         5.5930    1.2480   -1.2480 ca        1 D76     -0.088000
     33 CN7         6.3240    2.3800   -0.9910 ca        1 D76     -0.130000
     34 CN6         6.2290    3.0090    0.2800 ca        1 D76      0.045400
     35 CL1         7.1440    4.4100    0.5660 cl        1 D76     -0.076400
     36 HZ71       -8.9470    3.3000    0.3710 h1        1 D76      0.034700
     37 HZ72       -8.3750    3.2050    2.1000 h1        1 D76      0.034700
     38 HZ73       -7.9630    4.6610    1.0840 h1        1 D76      0.034700
     39 HZ31       -6.8640    1.2670    1.9390 h1        1 D76      0.048200
     40 HZ32       -7.8680    1.0580    0.4290 h1        1 D76      0.048200
     41 HZ41       -7.0790    3.0910   -1.4350 h1        1 D76      0.036700
     42 HZ42       -6.3360    4.5150   -0.5770 h1        1 D76      0.036700
     43 HZ51       -4.7680    3.1070   -2.0390 hc        1 D76      0.069200
     44 HZ52       -4.1990    3.4160   -0.3430 hc        1 D76      0.069200
     45 HP31       -1.1200   -3.9070   -0.6150 h1        1 D76      0.073700
     46 HP32       -1.6090   -3.3770   -2.2890 h1        1 D76      0.073700
     47 HP41        0.9060   -3.4560   -1.8960 h1        1 D76      0.071700
     48 HP42        0.2670   -1.8590   -2.5100 h1        1 D76      0.071700
     49 HP2        -1.9450   -0.1570    0.3100 h1        1 D76      0.114700
     50 HC21       -0.3000   -3.3460    1.4400 hn        1 D76      0.316500
     51 HC22       -0.9910   -3.2130    2.9750 hn        1 D76      0.316500
     52 HP11        0.5400   -0.4180    0.9730 h1        1 D76      0.064200
     53 HP12        0.1060    0.0580   -0.7400 h1        1 D76      0.064200
     54 HN2         2.4330   -0.8180    2.5180 ha        1 D76      0.159000
     55 HN3         3.7460    1.2490    2.9940 ha        1 D76      0.148000
     56 HN5         5.3370    2.9820    2.2520 ha        1 D76      0.156000
     57 H10         4.0600   -0.9650   -1.4830 ha        1 D76      0.155000
     58 HN8         5.6580    0.7490   -2.2270 ha        1 D76      0.146000
     59 HN7         6.9870    2.8110   -1.7580 ha        1 D76      0.155000
@<TRIPOS>BOND
     1    1    2 1   
     2    1   36 1   
     3    1   37 1   
     4    1   38 1   
     5    2    3 1   
     6    2    4 1   
     7    3    7 1   
     8    3   39 1   
     9    3   40 1   
    10    4    5 1   
    11    4   41 1   
    12    4   42 1   
    13    5    6 1   
    14    5   43 1   
    15    5   44 1   
    16    6    7 2   
    17    6    8 1   
    18    7   10 1   
    19    8    9 2   
    20    9   10 1   
    21    9   11 1   
    22   11   12 2   
    23   11   13 1   
    24   13   14 1   
    25   13   16 1   
    26   14   15 1   
    27   14   45 1   
    28   14   46 1   
    29   15   21 1   
    30   15   47 1   
    31   15   48 1   
    32   16   17 1   
    33   16   20 1   
    34   16   49 1   
    35   17   18 2   
    36   17   19 1   
    37   19   50 1   
    38   19   51 1   
    39   20   21 1   
    40   20   52 1   
    41   20   53 1   
    42   21   22 1   
    43   22   23 2   
    44   22   24 2   
    45   22   25 1   
    46   25   26 ar  
    47   25   31 ar  
    48   26   27 ar  
    49   26   54 1   
    50   27   28 ar  
    51   27   55 1   
    52   28   29 ar  
    53   28   30 ar  
    54   29   34 ar  
    55   29   56 1   
    56   30   31 ar  
    57   30   32 ar  
    58   31   57 1   
    59   32   33 ar  
    60   32   58 1   
    61   33   34 ar  
    62   33   59 1   
    63   34   35 1   
@<TRIPOS>SUBSTRUCTURE
     1 D76         1 TEMP              0 ****  ****    0 ROOT
