@<TRIPOS>MOLECULE
D76
   59    58     1     0     0
SMALL
bcc


@<TRIPOS>ATOM
      1 CZ7        -4.5070   -2.3610   -7.4280 c3        1 D76     -0.119000
      2 NZ2        -3.9080   -2.4710   -6.1150 n3        1 D76     -0.254000
      3 CZ3        -2.5470   -2.6310   -6.2430 c3        1 D76      0.006000
      4 CZ4        -4.3740   -1.4230   -5.2970 c3        1 D76     -0.067000
      5 CZ5        -3.8460   -1.3670   -3.9490 c3        1 D76     -0.089000
      6 CZ6        -2.3780   -1.7820   -3.7810 c2        1 D76     -0.081000
      7 CZ2        -1.6840   -2.3460   -4.9650 c2        1 D76     -0.422000
      8 NZ1        -1.3430   -1.6660   -2.6110 n2        1 D76     -0.099000
      9 CZ1        -0.0620   -2.1480   -3.0820 c1        1 D76     -0.360000
     10 SZ1        -0.2320   -2.5920   -4.5770 ss        1 D76      0.649000
     11 CC1         1.2220   -2.1980   -2.2760 c1        1 D76      0.382000
     12 OC1         2.2410   -2.6270   -2.7820 o         1 D76     -0.350000
     13 NP2         1.2500   -1.6720   -0.9440 n3        1 D76     -0.297000
     14 CP3         2.4320   -1.6210   -0.1610 c3        1 D76     -0.048000
     15 CP4         2.7060   -0.2480    0.3850 c3        1 D76     -0.023000
     16 CP2         0.0750   -1.1470   -0.2850 c3        1 D76      0.014000
     17 CC2        -0.4310   -2.1010    0.8010 c2        1 D76      0.280000
     18 OC2         0.3340   -2.8900    1.3180 o         1 D76     -0.360000
     19 NC2        -1.8360   -2.1490    1.1160 n         1 D76     -0.402000
     20 CP1         0.4030    0.2800    0.2670 c3        1 D76     -0.011000
     21 NP1         1.6000    0.3100    1.0520 n3        1 D76     -0.824000
     22 S1          1.5100    0.2530    2.7180 s4        1 D76      2.069800
     23 O1          2.1920   -0.8970    3.2370 o         1 D76     -0.531900
     24 O2          0.1680    0.0040    3.1590 o         1 D76     -0.531900
     25 CN1         2.1670    1.7860    3.4360 c1        1 D76     -0.812000
     26 CN2         3.4340    1.6290    3.9990 c2        1 D76     -0.042000
     27 CN3         3.8340    2.4460    5.0610 c1        1 D76     -0.135000
     28 CN4         2.9560    3.4310    5.5660 c1        1 D76      0.015000
     29 CN5         3.3730    4.2760    6.6220 c2        1 D76     -0.129000
     30 CN9         1.7050    3.5880    5.0120 c1        1 D76     -0.075000
     31 C10         1.2990    2.7600    3.9340 c1        1 D76      0.022000
     32 CN8         0.8400    4.5930    5.4980 c2        1 D76     -0.091000
     33 CN7         1.2510    5.4240    6.5370 c1        1 D76     -0.132000
     34 CN6         2.5210    5.2640    7.0990 c1        1 D76     -0.038000
     35 CL1         3.0030    6.3120    8.4110 cl        1 D76     -0.005000
     36 HZ71       -5.4610   -2.5930   -7.3740 h1        1 D76      0.075667
     37 HZ72       -4.4120   -1.4420   -7.7560 h1        1 D76      0.075667
     38 HZ73       -4.0570   -2.9750   -8.0440 h1        1 D76      0.075667
     39 HZ31       -2.2390   -2.0350   -6.9540 h1        1 D76      0.087500
     40 HZ32       -2.3760   -3.5580   -6.5240 h1        1 D76      0.087500
     41 HZ41       -5.3410   -1.5360   -5.2170 h1        1 D76      0.077000
     42 HZ42       -4.1180   -0.5870   -5.7350 h1        1 D76      0.077000
     43 HZ51       -3.9140   -0.4350   -3.6540 hc        1 D76      0.107500
     44 HZ52       -4.3780   -1.9820   -3.4100 hc        1 D76      0.107500
     45 HP31        2.3430   -2.2460    0.5860 h1        1 D76      0.126500
     46 HP32        3.1920   -1.8970   -0.7170 h1        1 D76      0.126500
     47 HP41        3.4570   -0.3030    1.0130 h1        1 D76      0.099500
     48 HP42        2.9570    0.3420   -0.3560 h1        1 D76      0.099500
     49 HP2        -0.6940   -1.1190   -0.8880 h1        1 D76      0.119000
     50 HC21       -2.4210   -1.5780    0.6970 hn        1 D76      0.221000
     51 HC22       -2.1520   -2.7790    1.7030 hn        1 D76      0.221000
     52 HP11        0.5070    0.8950   -0.4900 h1        1 D76      0.104500
     53 HP12       -0.3460    0.5840    0.8200 h1        1 D76      0.104500
     54 HN2         4.0660    1.0000    3.6060 ha        1 D76      0.150000
     55 HN3         4.7210    2.3350    5.4560 ha        1 D76      0.143000
     56 HN5         4.2590    4.1650    7.0140 ha        1 D76      0.153000
     57 H10         0.4350    2.9020    3.5110 ha        1 D76      0.156000
     58 HN8        -0.0450    4.7040    5.1070 ha        1 D76      0.143000
     59 HN7         0.6510    6.1200    6.8740 ha        1 D76      0.152000
@<TRIPOS>BOND
     1    1    2 1   
     2    1   36 1   
     3    1   37 1   
     4    1   38 1   
     5    2    3 1   
     6    2    4 1   
     7    3    7 1   
     8    3   39 1   
     9    3   40 1   
    10    4    5 1   
    11    4   41 1   
    12    4   42 1   
    13    5    6 1   
    14    5   43 1   
    15    5   44 1   
    16    6    7 1   
    17    6    8 1   
    18    7   10 1   
    19    8    9 1   
    20    9   10 1   
    21   11   12 1   
    22   11   13 1   
    23   13   14 1   
    24   13   16 1   
    25   14   15 1   
    26   14   45 1   
    27   14   46 1   
    28   15   21 1   
    29   15   47 1   
    30   15   48 1   
    31   16   17 1   
    32   16   20 1   
    33   16   49 1   
    34   17   18 1   
    35   17   19 1   
    36   19   50 1   
    37   19   51 1   
    38   20   21 1   
    39   20   52 1   
    40   20   53 1   
    41   21   22 1   
    42   22   23 1   
    43   22   24 1   
    44   25   26 1   
    45   25   31 1   
    46   26   27 1   
    47   26   54 1   
    48   27   55 1   
    49   28   29 1   
    50   28   30 1   
    51   29   34 1   
    52   29   56 1   
    53   30   32 1   
    54   31   57 1   
    55   32   33 1   
    56   32   58 1   
    57   33   59 1   
    58   34   35 1   
@<TRIPOS>SUBSTRUCTURE
     1 D76         1 TEMP              0 ****  ****    0 ROOT
