@<TRIPOS>MOLECULE
D76
   60    64     1     0     0
SMALL
bcc


@<TRIPOS>ATOM
      1 CZ7        -0.3740   -1.3280    0.7220 c3        1 D76      0.153100
      2 NZ2         0.8540   -0.8820    1.3440 n3        1 D76     -0.726600
      3 CZ3         1.8970   -1.9010    1.2830 c3        1 D76      0.240100
      4 CZ4         1.2900    0.4200    0.8650 c3        1 D76      0.168800
      5 CZ5         2.4570    0.9970    1.6740 c3        1 D76     -0.105700
      6 CZ6         3.5090   -0.0320    1.8820 cc        1 D76      0.345600
      7 CZ2         3.2300   -1.4070    1.7170 cd        1 D76     -0.223700
      8 NZ1         4.7960    0.2410    2.2780 nc        1 D76     -0.692000
      9 CZ1         5.4730   -0.9250    2.4110 cd        1 D76      0.239900
     10 SZ1         4.5570   -2.3150    2.0730 ss        1 D76      0.203700
     11 CC1         6.8640   -1.0570    2.9100 c         1 D76      0.600600
     12 OC1         7.2440   -2.1250    3.4170 o         1 D76     -0.536100
     13 NP2         7.7870    0.0010    2.7930 n         1 D76     -0.440800
     14 CP3         8.8960    0.0180    3.7410 c3        1 D76      0.050000
     15 CP4        10.0700    0.9510    3.3580 c3        1 D76      0.211800
     16 CP2         7.4410    1.2490    2.1820 c3        1 D76      0.055700
     17 CC2         6.6390    2.1440    3.1540 c         1 D76      0.531100
     18 OC2         6.4190    1.9730    4.3400 o         1 D76     -0.404100
     19 NC2         6.0420    3.4030    2.5760 nz        1 D76     -0.759400
     20 CP1         8.7170    2.0160    1.7060 c3        1 D76      0.218800
     21 NP1         9.6460    2.2030    2.7790 n3        1 D76     -0.814500
     22 S1          9.9060    3.6970    3.4240 sy        1 D76      1.537200
     23 O1         10.2860    3.5720    4.7690 o         1 D76     -0.676800
     24 O2          8.6730    4.3870    3.1690 o         1 D76     -0.676800
     25 CN1        11.1260    4.3490    2.5230 ca        1 D76     -0.430500
     26 CN2        10.8480    4.9640    1.2700 ca        1 D76     -0.053000
     27 CN3        11.8380    5.5400    0.5210 ca        1 D76     -0.117000
     28 CN4        13.1850    5.5400    0.9830 ca        1 D76      0.032000
     29 CN5        14.2310    6.1280    0.2260 ca        1 D76     -0.139000
     30 CN9        13.4800    4.9390    2.2360 ca        1 D76     -0.082000
     31 C10        12.4320    4.3520    2.9830 ca        1 D76      0.059000
     32 CN8        14.8220    4.9450    2.7110 ca        1 D76     -0.085000
     33 CN7        15.8230    5.5190    1.9680 ca        1 D76     -0.119000
     34 CN6        15.5230    6.1140    0.7130 ca        1 D76      0.059400
     35 Cl1        16.7790    6.8120   -0.1800 cl        1 D76     -0.047400
     36 HZ71       -1.1720   -0.5660    0.9220 h1        1 D76      0.045033
     37 HZ72       -0.6820   -2.3010    1.1870 h1        1 D76      0.045033
     38 HZ73       -0.2820   -1.4720   -0.3890 h1        1 D76      0.045033
     39 HZ31        1.5660   -2.7410    1.9630 h1        1 D76      0.060700
     40 HZ32        2.0050   -2.3280    0.2380 h1        1 D76      0.060700
     41 HZ41        0.4180    1.1280    0.9560 h1        1 D76      0.045200
     42 HZ42        1.5920    0.3850   -0.2240 h1        1 D76      0.045200
     43 HZ51        2.0880    1.3430    2.6770 hc        1 D76      0.058700
     44 HZ52        2.8630    1.8860    1.1250 hc        1 D76      0.058700
     45 HP31        8.5010    0.3240    4.7540 h1        1 D76      0.089200
     46 HP32        9.3000   -1.0330    3.8200 h1        1 D76      0.089200
     47 HP41       10.7380    0.4130    2.6240 h1        1 D76      0.081700
     48 HP42       10.6580    1.1560    4.2990 h1        1 D76      0.081700
     49 HP2         6.8100    1.0650    1.2610 h1        1 D76      0.117700
     50 HC21        5.3190    3.7670    3.2070 hn        1 D76      0.473133
     51 HC22        5.6330    3.2150    1.6620 hn        1 D76      0.473133
     52 HP11        9.1880    1.3970    0.8850 h1        1 D76      0.077200
     53 HP12        8.4160    3.0060    1.2640 h1        1 D76      0.077200
     54 HN2         9.8030    4.9870    0.9190 ha        1 D76      0.130000
     55 HN3        11.6130    6.0180   -0.4460 ha        1 D76      0.153000
     56 HN5        13.9930    6.5910   -0.7440 ha        1 D76      0.162000
     57 H10        12.6730    3.9010    3.9650 ha        1 D76      0.162000
     58 HN8        15.0430    4.4830    3.6870 ha        1 D76      0.152000
     59 HN7        16.8630    5.5260    2.3340 ha        1 D76      0.167000
     60 HC23        6.7900    4.1170    2.4940 hn        1 D76      0.473133
@<TRIPOS>BOND
     1    1    2 1   
     2    1   36 1   
     3    1   37 1   
     4    1   38 1   
     5    2    3 1   
     6    2    4 1   
     7    3    7 1   
     8    3   39 1   
     9    3   40 1   
    10    4    5 1   
    11    4   41 1   
    12    4   42 1   
    13    5    6 1   
    14    5   43 1   
    15    5   44 1   
    16    6    7 2   
    17    6    8 1   
    18    7   10 1   
    19    8    9 2   
    20    9   10 1   
    21    9   11 1   
    22   11   12 2   
    23   11   13 1   
    24   13   14 1   
    25   13   16 1   
    26   14   15 1   
    27   14   45 1   
    28   14   46 1   
    29   15   21 1   
    30   15   47 1   
    31   15   48 1   
    32   16   17 1   
    33   16   20 1   
    34   16   49 1   
    35   17   18 2   
    36   17   19 1   
    37   19   50 1   
    38   19   51 1   
    39   19   60 1   
    40   20   21 1   
    41   20   52 1   
    42   20   53 1   
    43   21   22 1   
    44   22   23 2   
    45   22   24 2   
    46   22   25 1   
    47   25   26 ar  
    48   25   31 ar  
    49   26   27 ar  
    50   26   54 1   
    51   27   28 ar  
    52   27   55 1   
    53   28   29 ar  
    54   28   30 ar  
    55   29   34 ar  
    56   29   56 1   
    57   30   31 ar  
    58   30   32 ar  
    59   31   57 1   
    60   32   33 ar  
    61   32   58 1   
    62   33   34 ar  
    63   33   59 1   
    64   34   35 1   
@<TRIPOS>SUBSTRUCTURE
     1 D76         1 TEMP              0 ****  ****    0 ROOT
