@<TRIPOS>MOLECULE
D76
   60    64     1     0     0
SMALL
bcc


@<TRIPOS>ATOM
      1 CZ7        -0.3310   -1.4050    0.6480 c3        1 D76      0.153100
      2 NZ2         0.9040   -0.9850    1.2750 n3        1 D76     -0.726600
      3 CZ3         1.9690   -1.9670    1.0950 c3        1 D76      0.240100
      4 CZ4         1.2960    0.3660    0.9030 c3        1 D76      0.168800
      5 CZ5         2.4730    0.8970    1.7300 c3        1 D76     -0.105700
      6 CZ6         3.5540   -0.1180    1.8160 cc        1 D76      0.345600
      7 CZ2         3.3020   -1.4800    1.5350 cd        1 D76     -0.223700
      8 NZ1         4.8450    0.1510    2.2000 nc        1 D76     -0.692000
      9 CZ1         5.5520   -1.0040    2.2090 cd        1 D76      0.239900
     10 SZ1         4.6590   -2.3810    1.7720 ss        1 D76      0.203700
     11 CC1         6.9600   -1.1440    2.6560 c         1 D76      0.600600
     12 OC1         7.3800   -2.2430    3.0550 o         1 D76     -0.536100
     13 NP2         7.8540   -0.0570    2.6110 n         1 D76     -0.440800
     14 CP3         8.9890   -0.0960    3.5260 c3        1 D76      0.050000
     15 CP4        10.1300    0.8970    3.1970 c3        1 D76      0.211800
     16 CP2         7.4620    1.2310    2.1240 c3        1 D76      0.055700
     17 CC2         6.6670    2.0150    3.1940 c         1 D76      0.531100
     18 OC2         6.4860    1.7330    4.3660 o         1 D76     -0.404100
     19 NC2         6.0260    3.3050    2.7480 n4        1 D76     -0.759400
     20 CP1         8.7060    2.0710    1.6850 c3        1 D76      0.218800
     21 NP1         9.6610    2.1840    2.7450 n3        1 D76     -0.814500
     22 S1          9.9040    3.6210    3.5150 sy        1 D76      1.537200
     23 O1         10.3260    3.3870    4.8320 o         1 D76     -0.676800
     24 O2          8.6490    4.2990    3.3570 o         1 D76     -0.676800
     25 CN1        11.0820    4.3830    2.6450 ca        1 D76     -0.430500
     26 CN2        10.7540    5.0990    1.4590 ca        1 D76     -0.053000
     27 CN3        11.7090    5.7640    0.7390 ca        1 D76     -0.117000
     28 CN4        13.0690    5.7580    1.1630 ca        1 D76      0.032000
     29 CN5        14.0780    6.4380    0.4350 ca        1 D76     -0.139000
     30 CN9        13.4130    5.0570    2.3490 ca        1 D76     -0.082000
     31 C10        12.4010    4.3780    3.0680 ca        1 D76      0.059000
     32 CN8        14.7670    5.0550    2.7870 ca        1 D76     -0.085000
     33 CN7        15.7330    5.7180    2.0730 ca        1 D76     -0.119000
     34 CN6        15.3830    6.4150    0.8840 ca        1 D76      0.059400
     35 CL1        16.5960    7.2220    0.0250 cl        1 D76     -0.047400
     36 HZ71       -0.6020   -2.4230    1.0320 h1        1 D76      0.045033
     37 HZ72       -0.2680   -1.4470   -0.4730 h1        1 D76      0.045033
     38 HZ73       -1.1400   -0.6840    0.9380 h1        1 D76      0.045033
     39 HZ31        1.6770   -2.8730    1.7040 h1        1 D76      0.060700
     40 HZ32        2.0560   -2.2950    0.0130 h1        1 D76      0.060700
     41 HZ41        0.4110    1.0400    1.0820 h1        1 D76      0.045200
     42 HZ42        1.5660    0.4360   -0.1910 h1        1 D76      0.045200
     43 HZ51        2.8410    1.8420    1.2520 hc        1 D76      0.058700
     44 HZ52        2.1240    1.1430    2.7700 hc        1 D76      0.058700
     45 HP31        9.4200   -1.1390    3.4990 h1        1 D76      0.089200
     46 HP32        8.6170    0.1080    4.5730 h1        1 D76      0.089200
     47 HP41       10.7890    0.4450    2.4010 h1        1 D76      0.081700
     48 HP42       10.7410    1.0330    4.1370 h1        1 D76      0.081700
     49 HP2         6.8090    1.1140    1.2080 h1        1 D76      0.117700
     50 HC21        5.3130    3.5920    3.4280 hn        1 D76      0.473133
     51 HC22        5.5950    3.1890    1.8320 hn        1 D76      0.473133
     52 HP11        9.1670    1.5400    0.8000 h1        1 D76      0.077200
     53 HP12        8.3690    3.0880    1.3420 h1        1 D76      0.077200
     54 HN2         9.6990    5.1260    1.1400 ha        1 D76      0.130000
     55 HN3        11.4440    6.3210   -0.1740 ha        1 D76      0.153000
     56 HN5        13.8020    6.9790   -0.4830 ha        1 D76      0.162000
     57 H10        12.6800    3.8480    3.9990 ha        1 D76      0.162000
     58 HN8        15.0270    4.5140    3.7120 ha        1 D76      0.152000
     59 HN7        16.7820    5.7200    2.4100 ha        1 D76      0.167000
     60 HC23        6.7540    4.0420    2.7110 hn        1 D76      0.473133
@<TRIPOS>BOND
     1    1    2 1   
     2    1   36 1   
     3    1   37 1   
     4    1   38 1   
     5    2    3 1   
     6    2    4 1   
     7    3    7 1   
     8    3   39 1   
     9    3   40 1   
    10    4    5 1   
    11    4   41 1   
    12    4   42 1   
    13    5    6 1   
    14    5   43 1   
    15    5   44 1   
    16    6    7 2   
    17    6    8 1   
    18    7   10 1   
    19    8    9 2   
    20    9   10 1   
    21    9   11 1   
    22   11   12 2   
    23   11   13 1   
    24   13   14 1   
    25   13   16 1   
    26   14   15 1   
    27   14   45 1   
    28   14   46 1   
    29   15   21 1   
    30   15   47 1   
    31   15   48 1   
    32   16   17 1   
    33   16   20 1   
    34   16   49 1   
    35   17   18 2   
    36   17   19 1   
    37   19   50 1   
    38   19   51 1   
    39   19   60 1   
    40   20   21 1   
    41   20   52 1   
    42   20   53 1   
    43   21   22 1   
    44   22   23 2   
    45   22   24 2   
    46   22   25 1   
    47   25   26 ar  
    48   25   31 ar  
    49   26   27 ar  
    50   26   54 1   
    51   27   28 ar  
    52   27   55 1   
    53   28   29 ar  
    54   28   30 ar  
    55   29   34 ar  
    56   29   56 1   
    57   30   31 ar  
    58   30   32 ar  
    59   31   57 1   
    60   32   33 ar  
    61   32   58 1   
    62   33   34 ar  
    63   33   59 1   
    64   34   35 1   
@<TRIPOS>SUBSTRUCTURE
     1 D76         1 TEMP              0 ****  ****    0 ROOT
