@<TRIPOS>MOLECULE
D78
   82    77     1     0     0
SMALL
bcc


@<TRIPOS>ATOM
      1 O9         -2.7570   -1.7410   -2.2330 o         1 D78     -0.934000
      2 S8         -2.6360   -0.3370   -2.4810 ss        1 D78      2.857000
      3 O10        -1.2100   -0.2030   -2.6400 o         1 D78     -0.934000
      4 C5         -3.5120    0.1400   -3.9920 c1        1 D78     -0.860000
      5 C4         -2.8050    0.6700   -5.0640 c2        1 D78      0.013000
      6 C3         -3.4580    0.9320   -6.2700 c1        1 D78     -0.186000
      7 C2         -4.8100    0.6630   -6.3980 c1        1 D78      0.142000
      8 O19        -5.5150    1.0430   -7.6160 os        1 D78     -0.204000
      9 C18        -6.0390   -0.0780   -8.3680 c3        1 D78     -0.079000
     10 C7         -5.5160    0.1340   -5.3250 c1        1 D78     -0.236000
     11 C6         -4.8640   -0.1280   -4.1210 c1        1 D78      0.019000
     12 N11        -3.1990    0.5750   -1.1530 n2        1 D78     -0.815000
     13 C12        -4.6300    0.9120   -1.0490 c3        1 D78     -0.005000
     14 C13        -5.3300   -0.0520    0.0130 c3        1 D78     -0.137000
     15 C14        -6.2580    0.7970    0.9600 c3        1 D78     -0.215000
     16 C15        -6.1800   -1.1050   -0.7290 c3        1 D78     -0.215000
     17 C16        -2.2360    1.1530   -0.1970 c3        1 D78     -0.013000
     18 C17        -1.5650    0.0240    0.6020 c3        1 D78     -0.001000
     19 O18        -1.1770   -0.9850   -0.2640 oh        1 D78     -0.326000
     20 C19        -0.3500    0.5640    1.3230 c3        1 D78     -0.004000
     21 C32        -0.3770    2.0840    1.2970 c3        1 D78     -0.130000
     22 C38         0.5970    2.6460    2.3880 c2        1 D78     -0.088000
     23 C33         1.7980    3.2080    2.0110 c2        1 D78     -0.122000
     24 C34         2.7130    3.6140    2.9800 c1        1 D78     -0.122000
     25 C35         2.4160    3.4520    4.3270 c1        1 D78     -0.125500
     26 C36         1.2120    2.8880    4.7060 c1        1 D78     -0.125500
     27 C37         0.2990    2.4830    3.7400 c1        1 D78     -0.125000
     28 N20         0.8320    0.0970    0.6770 n         1 D78     -0.348000
     29 C21         1.9780   -0.3020    1.4690 c2        1 D78      0.306000
     30 O22         1.8140   -0.7310    2.6030 o         1 D78     -0.386000
     31 C29         3.3080   -0.3730    0.8430 c3        1 D78     -0.008000
     32 O28         4.1070    0.6840    1.3200 os        1 D78     -0.239000
     33 C26         4.8550    0.2060    2.4040 c2        1 D78      0.401000
     34 O27         5.3910    0.8840    3.2470 o         1 D78     -0.300000
     35 C25         4.0260   -1.6040    1.3330 c3        1 D78     -0.048000
     36 N24         5.0010   -1.1690    2.2500 n         1 D78     -0.292000
     37 C43         6.1050   -1.9520    2.7320 c2        1 D78      0.094000
     38 C44         5.9540   -2.7450    3.8690 c2        1 D78     -0.148000
     39 C45         6.9860   -3.5760    4.2780 c1        1 D78     -0.105000
     40 C40         8.1700   -3.6210    3.5560 c1        1 D78     -0.109000
     41 C42         7.2920   -1.9970    2.0080 c1        1 D78     -0.120000
     42 C41         8.3240   -2.8300    2.4180 c1        1 D78     -0.129000
     43 C46         9.6450   -2.8290    1.6710 c3        1 D78      0.466000
     44 F1         10.4870   -3.7160    2.2460 f         1 D78     -0.163667
     45 F2          9.4380   -3.1720    0.4000 f         1 D78     -0.163667
     46 F3         10.1860   -1.6020    1.7190 f         1 D78     -0.163667
     47 H4         -1.8680    0.8550   -4.9750 ha        1 D78      0.152000
     48 H3         -2.9600    1.3050   -7.0250 ha        1 D78      0.157000
     49 H18        -6.5960   -0.6310   -7.7840 h1        1 D78      0.089667
     50 H18A       -5.2960   -0.6150   -8.7140 h1        1 D78      0.089667
     51 H18B       -6.5880    0.2590   -9.1270 h1        1 D78      0.089667
     52 H7         -6.4480   -0.0520   -5.4120 ha        1 D78      0.145000
     53 H6         -5.3630   -0.5010   -3.3640 ha        1 D78      0.156000
     54 H12        -5.0570    0.7980   -1.9230 h1        1 D78      0.083000
     55 H12A       -4.7260    1.8400   -0.7580 h1        1 D78      0.083000
     56 H13        -4.6350   -0.5090    0.5540 hc        1 D78      0.120000
     57 H14        -6.7300    0.1920    1.5910 hc        1 D78      0.077333
     58 H14A       -6.9190    1.2860    0.4190 hc        1 D78      0.077333
     59 H14B       -5.7130    1.4370    1.4660 hc        1 D78      0.077333
     60 H15        -6.8310   -1.4930   -0.1110 hc        1 D78      0.077333
     61 H15A       -5.5990   -1.8080   -1.0720 hc        1 D78      0.077333
     62 H15B       -6.6520   -0.6770   -1.4750 hc        1 D78      0.077333
     63 H16        -1.5490    1.6610   -0.6910 h1        1 D78      0.100500
     64 H16A       -2.7110    1.7590    0.4240 h1        1 D78      0.100500
     65 H17        -2.1960   -0.3330    1.2530 h1        1 D78      0.084000
     66 HO18       -1.5050   -1.7640    0.0220 ho        1 D78      0.227000
     67 H19        -0.3580    0.2570    2.2420 h1        1 D78      0.121000
     68 H32        -0.0930    2.4040    0.4070 hc        1 D78      0.099000
     69 H32A       -1.2850    2.3960    1.4800 hc        1 D78      0.099000
     70 H33         2.0060    3.3230    1.0660 ha        1 D78      0.132000
     71 H34         3.5590    4.0100    2.7140 ha        1 D78      0.140000
     72 H35         3.0620    3.7380    5.0100 ha        1 D78      0.135000
     73 H36         1.0000    2.7730    5.6690 ha        1 D78      0.135000
     74 H37        -0.5440    2.0890    4.0050 ha        1 D78      0.130000
     75 HN20        0.8300   -0.0460   -0.2220 hn        1 D78      0.247000
     76 H29         3.0670   -0.3510   -0.0990 h1        1 D78      0.161000
     77 H25         3.3690   -2.1260    1.8480 h1        1 D78      0.128500
     78 H25A        4.5100   -1.9700    0.5650 h1        1 D78      0.128500
     79 H44         5.1190   -2.7150    4.3800 ha        1 D78      0.144000
     80 H45         6.8800   -4.1250    5.0660 ha        1 D78      0.146000
     81 H40         8.9070   -4.2170    3.8490 ha        1 D78      0.156000
     82 H42         7.3980   -1.4520    1.2260 ha        1 D78      0.186000
@<TRIPOS>BOND
     1    1    2 1   
     2    2    3 1   
     3    4    5 1   
     4    4   11 1   
     5    5    6 1   
     6    5   47 1   
     7    6   48 1   
     8    7    8 1   
     9    7   10 1   
    10    8    9 1   
    11    9   49 1   
    12    9   50 1   
    13    9   51 1   
    14   10   52 1   
    15   11   53 1   
    16   12   13 1   
    17   12   17 1   
    18   13   14 1   
    19   13   54 1   
    20   13   55 1   
    21   14   15 1   
    22   14   16 1   
    23   14   56 1   
    24   15   57 1   
    25   15   58 1   
    26   15   59 1   
    27   16   60 1   
    28   16   61 1   
    29   16   62 1   
    30   17   18 1   
    31   17   63 1   
    32   17   64 1   
    33   18   19 1   
    34   18   20 1   
    35   18   65 1   
    36   19   66 1   
    37   20   21 1   
    38   20   28 1   
    39   20   67 1   
    40   21   22 1   
    41   21   68 1   
    42   21   69 1   
    43   22   23 1   
    44   22   27 1   
    45   23   24 1   
    46   23   70 1   
    47   24   71 1   
    48   25   26 1   
    49   25   72 1   
    50   26   73 1   
    51   27   74 1   
    52   28   29 1   
    53   28   75 1   
    54   29   30 1   
    55   29   31 1   
    56   31   32 1   
    57   31   35 1   
    58   31   76 1   
    59   32   33 1   
    60   33   34 1   
    61   33   36 1   
    62   35   36 1   
    63   35   77 1   
    64   35   78 1   
    65   36   37 1   
    66   37   38 1   
    67   37   41 1   
    68   38   39 1   
    69   38   79 1   
    70   39   80 1   
    71   40   42 1   
    72   40   81 1   
    73   41   82 1   
    74   42   43 1   
    75   43   44 1   
    76   43   45 1   
    77   43   46 1   
@<TRIPOS>SUBSTRUCTURE
     1 D78         1 TEMP              0 ****  ****    0 ROOT
