@<TRIPOS>MOLECULE
D78
   84    86     1     0     0
SMALL
bcc


@<TRIPOS>ATOM
      1 O9          1.3770   -0.8190    0.4680 o         1 D78     -0.442400
      2 S8          0.9880   -1.7940   -0.3940 s4        1 D78      1.691300
      3 O10         1.8150   -2.8300   -0.7040 o         1 D78     -0.442400
      4 C5         -0.4730   -1.8700   -0.8290 ca        1 D78     -0.697500
      5 C4         -0.9570   -2.9540   -1.6370 ca        1 D78      0.065500
      6 C3         -2.2730   -3.0790   -1.9810 ca        1 D78     -0.214500
      7 C2         -3.2170   -2.1070   -1.5280 ca        1 D78      0.309100
      8 O19        -4.4870   -2.3210   -1.9030 os        1 D78     -0.260900
      9 C18        -5.5010   -1.3980   -1.4640 c3        1 D78      0.096700
     10 C7         -2.7720   -1.0140   -0.7380 ca        1 D78     -0.214500
     11 C6         -1.4450   -0.9080   -0.4110 ca        1 D78      0.065500
     12 N11         2.3090   -0.5910   -2.2610 n3        1 D78     -0.889200
     13 C12         1.6390    0.2870   -3.2210 c3        1 D78      0.121800
     14 C13         1.3020    1.7100   -2.7600 c3        1 D78     -0.065700
     15 C14         0.6240    2.4300   -3.9110 c3        1 D78     -0.106100
     16 C15         0.4220    1.7390   -1.5330 c3        1 D78     -0.106100
     17 C16         3.5050   -0.0500   -1.6350 c3        1 D78      0.109800
     18 C17         4.7570    0.0150   -2.5270 c3        1 D78      0.094100
     19 O18         4.6280    0.9180   -3.6050 oh        1 D78     -0.599800
     20 C19         6.0160    0.3610   -1.6860 c3        1 D78      0.099500
     21 C32         5.8240    1.6410   -0.8580 c3        1 D78     -0.049100
     22 C38         7.0750    2.0690   -0.1770 ca        1 D78     -0.177300
     23 C33         7.8460    3.1120   -0.7090 ca        1 D78     -0.132000
     24 C34         8.9970    3.5390   -0.0490 ca        1 D78     -0.107500
     25 C35         9.3840    2.9310    1.1470 ca        1 D78     -0.088000
     26 C36         8.6160    1.8960    1.6830 ca        1 D78     -0.107500
     27 C37         7.4640    1.4660    1.0250 ca        1 D78     -0.132000
     28 N20         7.2150    0.4910   -2.5880 n4        1 D78     -0.669800
     29 C21         7.8840   -0.8050   -2.9540 c         1 D78      0.531100
     30 O22         7.3070   -1.8480   -2.6890 o         1 D78     -0.417100
     31 C29         9.2190   -0.6820   -3.6790 c3        1 D78      0.062100
     32 O28         9.7680    0.6190   -3.4830 os        1 D78     -0.443900
     33 C26        10.9950    0.5210   -2.7670 c         1 D78      0.814600
     34 O27        11.4930    1.6010   -2.4900 o         1 D78     -0.508500
     35 C25        10.2770   -1.6760   -3.1160 c3        1 D78      0.057000
     36 N24        11.2620   -0.8220   -2.4600 n         1 D78     -0.345000
     37 C43        12.5780   -1.3040   -2.2160 ca        1 D78      0.020600
     38 C44        12.8440   -2.6900   -2.2630 ca        1 D78     -0.132000
     39 C45        14.1160   -3.1640   -1.9580 ca        1 D78     -0.101000
     40 C40        15.1410   -2.2860   -1.6040 ca        1 D78     -0.072000
     41 C42        13.6110   -0.4140   -1.8590 ca        1 D78     -0.100000
     42 C41        14.8750   -0.9180   -1.5570 ca        1 D78     -0.136300
     43 C46        15.9830    0.0680   -1.1810 c3        1 D78      0.689200
     44 F1         17.0310   -0.4930   -0.4970 f         1 D78     -0.223633
     45 F2         16.5610    0.6840   -2.2630 f         1 D78     -0.223633
     46 F3         15.5590    1.1010   -0.3820 f         1 D78     -0.223633
     47 H4         -0.2310   -3.7190   -1.9770 ha        1 D78      0.174500
     48 H3         -2.6350   -3.9220   -2.5960 ha        1 D78      0.193500
     49 H18        -6.4320   -1.8370   -1.9110 h1        1 D78      0.084700
     50 H18A       -5.2950   -0.3820   -1.8760 h1        1 D78      0.084700
     51 H18B       -5.5540   -1.3910   -0.3490 h1        1 D78      0.084700
     52 H7         -3.4950   -0.2590   -0.3850 ha        1 D78      0.193500
     53 H6         -1.1020   -0.0540    0.2090 ha        1 D78      0.174500
     54 H12         2.2640    0.3800   -4.1600 h1        1 D78      0.067700
     55 H12A        0.6770   -0.2310   -3.5030 h1        1 D78      0.067700
     56 H13         2.2590    2.2580   -2.5260 hc        1 D78      0.037700
     57 H14        -0.3390    1.9310   -4.1770 hc        1 D78      0.050200
     58 H14A        0.4040    3.4870   -3.6220 hc        1 D78      0.050200
     59 H14B        1.2800    2.4400   -4.8140 hc        1 D78      0.050200
     60 H15        -0.5260    1.1770   -1.7180 hc        1 D78      0.050200
     61 H15A        0.1540    2.7960   -1.2830 hc        1 D78      0.050200
     62 H15B        0.9420    1.2950   -0.6490 hc        1 D78      0.050200
     63 H16         3.2700    0.9770   -1.2340 h1        1 D78      0.088200
     64 H16A        3.7460   -0.7170   -0.7550 h1        1 D78      0.088200
     65 H17         4.9290   -0.9880   -3.0260 h1        1 D78      0.104700
     66 HO18        4.1840    1.7190   -3.2920 ho        1 D78      0.430000
     67 H19         6.2210   -0.5010   -0.9820 hx        1 D78      0.121700
     68 H32         5.0380    1.4200   -0.0840 hc        1 D78      0.080700
     69 H32A        5.4360    2.4630   -1.5170 hc        1 D78      0.080700
     70 H33         7.5280    3.6240   -1.6300 ha        1 D78      0.134500
     71 H34         9.5980    4.3630   -0.4680 ha        1 D78      0.163000
     72 H35        10.2910    3.2750    1.6720 ha        1 D78      0.167000
     73 H36         8.9130    1.4250    2.6340 ha        1 D78      0.163000
     74 H37         6.8510    0.6640    1.4640 ha        1 D78      0.134500
     75 HN20        6.9210    0.9570   -3.4610 hn        1 D78      0.488800
     76 H29         9.0300   -0.8230   -4.7800 h1        1 D78      0.147700
     77 H25         9.8320   -2.3810   -2.3620 h1        1 D78      0.104200
     78 H25A       10.7240   -2.2720   -3.9610 h1        1 D78      0.104200
     79 H44        12.0590   -3.4150   -2.5280 ha        1 D78      0.138000
     80 H45        14.3160   -4.2480   -1.9980 ha        1 D78      0.163000
     81 H40        16.1480   -2.6670   -1.3610 ha        1 D78      0.177000
     82 H42        13.4440    0.6770   -1.8070 ha        1 D78      0.182000
     83 H111        2.5640   -1.4380   -2.7550 hn        1 D78      0.386800
     84 H202        7.9230    1.1000   -2.1290 hn        1 D78      0.488800
@<TRIPOS>BOND
     1    1    2 1   
     2    2    3 1   
     3    2    4 1   
     4    4    5 ar  
     5    4   11 ar  
     6    5    6 ar  
     7    5   47 1   
     8    6    7 ar  
     9    6   48 1   
    10    7    8 1   
    11    7   10 ar  
    12    8    9 1   
    13    9   49 1   
    14    9   50 1   
    15    9   51 1   
    16   10   11 ar  
    17   10   52 1   
    18   11   53 1   
    19   12   13 1   
    20   12   17 1   
    21   12   83 1   
    22   13   14 1   
    23   13   54 1   
    24   13   55 1   
    25   14   15 1   
    26   14   16 1   
    27   14   56 1   
    28   15   57 1   
    29   15   58 1   
    30   15   59 1   
    31   16   60 1   
    32   16   61 1   
    33   16   62 1   
    34   17   18 1   
    35   17   63 1   
    36   17   64 1   
    37   18   19 1   
    38   18   20 1   
    39   18   65 1   
    40   19   66 1   
    41   20   21 1   
    42   20   28 1   
    43   20   67 1   
    44   21   22 1   
    45   21   68 1   
    46   21   69 1   
    47   22   23 ar  
    48   22   27 ar  
    49   23   24 ar  
    50   23   70 1   
    51   24   25 ar  
    52   24   71 1   
    53   25   26 ar  
    54   25   72 1   
    55   26   27 ar  
    56   26   73 1   
    57   27   74 1   
    58   28   29 1   
    59   28   75 1   
    60   28   84 1   
    61   29   30 2   
    62   29   31 1   
    63   31   32 1   
    64   31   35 1   
    65   31   76 1   
    66   32   33 1   
    67   33   34 2   
    68   33   36 1   
    69   35   36 1   
    70   35   77 1   
    71   35   78 1   
    72   36   37 1   
    73   37   38 ar  
    74   37   41 ar  
    75   38   39 ar  
    76   38   79 1   
    77   39   40 ar  
    78   39   80 1   
    79   40   42 ar  
    80   40   81 1   
    81   41   42 ar  
    82   41   82 1   
    83   42   43 1   
    84   43   44 1   
    85   43   45 1   
    86   43   46 1   
@<TRIPOS>SUBSTRUCTURE
     1 D78         1 TEMP              0 ****  ****    0 ROOT
