@<TRIPOS>MOLECULE
D78
   82    85     1     0     0
SMALL
bcc


@<TRIPOS>ATOM
      1 O9         -6.1130   -1.7140    1.8850 o         1 D78     -0.655800
      2 S8         -4.8100   -1.3700    1.4600 sy        1 D78      1.510200
      3 O10        -3.8980   -1.0250    2.4840 o         1 D78     -0.655800
      4 C5         -4.1950   -2.6480    0.5640 ca        1 D78     -0.433500
      5 C4         -2.8220   -2.7490    0.2850 ca        1 D78      0.019500
      6 C3         -2.3060   -3.8250   -0.4200 ca        1 D78     -0.210000
      7 C2         -3.1800   -4.8370   -0.8640 ca        1 D78      0.187100
      8 O19        -2.5790   -5.8610   -1.5570 os        1 D78     -0.321900
      9 C18        -3.4300   -6.9160   -1.9990 c3        1 D78      0.110700
     10 C7         -4.5550   -4.7600   -0.5960 ca        1 D78     -0.210000
     11 C6         -5.0430   -3.6690    0.1130 ca        1 D78      0.019500
     12 N11        -4.8770   -0.1410    0.3760 n3        1 D78     -0.799500
     13 C12        -5.8260   -0.1320   -0.7090 c3        1 D78      0.221800
     14 C13        -7.0030    0.8500   -0.5610 c3        1 D78     -0.081700
     15 C14        -7.5900    1.1200   -1.9310 c3        1 D78     -0.095600
     16 C15        -8.0640    0.3010    0.3670 c3        1 D78     -0.095600
     17 C16        -3.9260    0.9340    0.4020 c3        1 D78      0.190800
     18 C17        -2.8260    0.8510   -0.6820 c3        1 D78      0.091100
     19 O18        -3.2650    1.3790   -1.9170 oh        1 D78     -0.587800
     20 C19        -1.5310    1.5450   -0.1730 c3        1 D78      0.081700
     21 C32        -1.7590    3.0560    0.0030 c3        1 D78     -0.050100
     22 C38        -0.5850    3.7290    0.6200 ca        1 D78     -0.095300
     23 C33         0.3400    4.4110   -0.1790 ca        1 D78     -0.125500
     24 C34         1.4390    5.0420    0.4030 ca        1 D78     -0.123500
     25 C35         1.6200    4.9990    1.7850 ca        1 D78     -0.125000
     26 C36         0.6990    4.3220    2.5860 ca        1 D78     -0.123500
     27 C37        -0.3990    3.6890    2.0070 ca        1 D78     -0.125500
     28 N20        -0.3970    1.2730   -1.0300 n         1 D78     -0.531900
     29 C21         0.2270    0.0570   -1.0390 c         1 D78      0.652100
     30 O22        -0.1540   -0.9000   -0.3300 o         1 D78     -0.630100
     31 C29         1.4170   -0.1570   -1.9770 c3        1 D78      0.053100
     32 O28         1.9630    1.0910   -2.4590 os        1 D78     -0.400900
     33 C26         3.2880    1.2220   -2.0430 c         1 D78      0.832600
     34 O27         3.8620    2.2600   -2.3640 o         1 D78     -0.572500
     35 C25         2.5880   -0.8670   -1.2460 c3        1 D78      0.068000
     36 N24         3.7020    0.0650   -1.3640 n         1 D78     -0.387000
     37 C43         4.8620   -0.0520   -0.5820 ca        1 D78      0.082600
     38 C44         5.0810   -1.2140    0.1940 ca        1 D78     -0.148000
     39 C45         6.2450   -1.3480    0.9440 ca        1 D78     -0.105000
     40 C40         7.2130   -0.3460    0.9460 ca        1 D78     -0.108000
     41 C42         5.8460    0.9630   -0.5820 ca        1 D78     -0.119000
     42 C41         7.0010    0.8010    0.1800 ca        1 D78     -0.136300
     43 C46         8.0430    1.9160    0.1850 c3        1 D78      0.687200
     44 F1          9.3150    1.5050    0.5040 f         1 D78     -0.234300
     45 F2          8.1910    2.5670   -1.0140 f         1 D78     -0.234300
     46 F3          7.7820    2.9210    1.0850 f         1 D78     -0.234300
     47 H4         -2.1290   -1.9600    0.6370 ha        1 D78      0.163500
     48 H3         -1.2300   -3.8970   -0.6350 ha        1 D78      0.153000
     49 H18        -3.9210   -7.4150   -1.1290 h1        1 D78      0.050033
     50 H18A       -4.1940   -6.5290   -2.7160 h1        1 D78      0.050033
     51 H18B       -2.7240   -7.6180   -2.5130 h1        1 D78      0.050033
     52 H7         -5.2440   -5.5460   -0.9330 ha        1 D78      0.153000
     53 H6         -6.1230   -3.6070    0.3390 ha        1 D78      0.163500
     54 H12        -5.2760    0.1150   -1.6650 h1        1 D78      0.055200
     55 H12A       -6.2470   -1.1760   -0.8090 h1        1 D78      0.055200
     56 H13        -6.6260    1.8230   -0.1390 hc        1 D78      0.046700
     57 H14        -7.9230    0.1680   -2.4110 hc        1 D78      0.039700
     58 H14A       -8.4730    1.7970   -1.8410 hc        1 D78      0.039700
     59 H14B       -6.8350    1.6070   -2.5950 hc        1 D78      0.039700
     60 H15        -7.6220    0.0130    1.3530 hc        1 D78      0.039700
     61 H15A       -8.8580    1.0680    0.5390 hc        1 D78      0.039700
     62 H15B       -8.5420   -0.6060   -0.0760 hc        1 D78      0.039700
     63 H16        -4.4740    1.9130    0.2710 h1        1 D78      0.067200
     64 H16A       -3.4320    0.9490    1.4180 h1        1 D78      0.067200
     65 H17        -2.5830   -0.2280   -0.9220 h1        1 D78      0.100700
     66 HO18       -3.5770    2.2790   -1.7590 ho        1 D78      0.397000
     67 H19        -1.3010    1.0930    0.8420 h1        1 D78      0.085700
     68 H32        -1.9930    3.5260   -0.9900 hc        1 D78      0.058700
     69 H32A       -2.6590    3.1880    0.6620 hc        1 D78      0.058700
     70 H33         0.2020    4.4510   -1.2700 ha        1 D78      0.133000
     71 H34         2.1650    5.5720   -0.2320 ha        1 D78      0.138000
     72 H35         2.4870    5.4970    2.2430 ha        1 D78      0.136000
     73 H36         0.8390    4.2870    3.6760 ha        1 D78      0.138000
     74 H37        -1.1230    3.1540    2.6400 ha        1 D78      0.133000
     75 HN20       -0.0680    2.0030   -1.6190 hn        1 D78      0.338500
     76 H29         1.0660   -0.7260   -2.8790 h1        1 D78      0.112700
     77 H25         2.3270   -1.0770   -0.1720 h1        1 D78      0.086700
     78 H25A        2.8470   -1.8320   -1.7590 h1        1 D78      0.086700
     79 H44         4.3400   -2.0290    0.2130 ha        1 D78      0.143000
     80 H45         6.4010   -2.2590    1.5420 ha        1 D78      0.146000
     81 H40         8.1350   -0.4550    1.5380 ha        1 D78      0.157000
     82 H42         5.7160    1.8820   -1.1820 ha        1 D78      0.186000
@<TRIPOS>BOND
     1    1    2 2   
     2    2    3 2   
     3    2    4 1   
     4    2   12 1   
     5    4    5 ar  
     6    4   11 ar  
     7    5    6 ar  
     8    5   47 1   
     9    6    7 ar  
    10    6   48 1   
    11    7    8 1   
    12    7   10 ar  
    13    8    9 1   
    14    9   49 1   
    15    9   50 1   
    16    9   51 1   
    17   10   11 ar  
    18   10   52 1   
    19   11   53 1   
    20   12   13 1   
    21   12   17 1   
    22   13   14 1   
    23   13   54 1   
    24   13   55 1   
    25   14   15 1   
    26   14   16 1   
    27   14   56 1   
    28   15   57 1   
    29   15   58 1   
    30   15   59 1   
    31   16   60 1   
    32   16   61 1   
    33   16   62 1   
    34   17   18 1   
    35   17   63 1   
    36   17   64 1   
    37   18   19 1   
    38   18   20 1   
    39   18   65 1   
    40   19   66 1   
    41   20   21 1   
    42   20   28 1   
    43   20   67 1   
    44   21   22 1   
    45   21   68 1   
    46   21   69 1   
    47   22   23 ar  
    48   22   27 ar  
    49   23   24 ar  
    50   23   70 1   
    51   24   25 ar  
    52   24   71 1   
    53   25   26 ar  
    54   25   72 1   
    55   26   27 ar  
    56   26   73 1   
    57   27   74 1   
    58   28   29 1   
    59   28   75 1   
    60   29   30 2   
    61   29   31 1   
    62   31   32 1   
    63   31   35 1   
    64   31   76 1   
    65   32   33 1   
    66   33   34 2   
    67   33   36 1   
    68   35   36 1   
    69   35   77 1   
    70   35   78 1   
    71   36   37 1   
    72   37   38 ar  
    73   37   41 ar  
    74   38   39 ar  
    75   38   79 1   
    76   39   40 ar  
    77   39   80 1   
    78   40   42 ar  
    79   40   81 1   
    80   41   42 ar  
    81   41   82 1   
    82   42   43 1   
    83   43   44 1   
    84   43   45 1   
    85   43   46 1   
@<TRIPOS>SUBSTRUCTURE
     1 D78         1 TEMP              0 ****  ****    0 ROOT
