@<TRIPOS>MOLECULE
D78
   84    86     1     0     0
SMALL
bcc


@<TRIPOS>ATOM
      1 O9          2.3230   -1.9350   -0.2260 o         1 D78     -0.454900
      2 S8          1.8990   -1.9130   -1.5200 s4        1 D78      1.691300
      3 O10         2.7940   -1.9770   -2.5450 o         1 D78     -0.454900
      4 C5          0.4090   -2.1140   -1.8100 ca        1 D78     -0.694500
      5 C4         -0.0900   -2.2030   -3.1510 ca        1 D78      0.061500
      6 C3         -1.4070   -2.4430   -3.4270 ca        1 D78     -0.213000
      7 C2         -2.3340   -2.6140   -2.3530 ca        1 D78      0.307100
      8 O19        -3.6010   -2.8550   -2.7210 os        1 D78     -0.261900
      9 C18        -4.5890   -3.0610   -1.6940 c3        1 D78      0.096700
     10 C7         -1.8760   -2.5200   -1.0120 ca        1 D78     -0.213000
     11 C6         -0.5500   -2.2760   -0.7630 ca        1 D78      0.061500
     12 N11         1.9740    0.5220   -1.4980 n3        1 D78     -0.901200
     13 C12         1.5150    1.0770   -2.7700 c3        1 D78      0.108800
     14 C13         1.1040    2.5560   -2.7660 c3        1 D78     -0.082700
     15 C14         0.6700    2.9420   -4.1660 c3        1 D78     -0.103600
     16 C15        -0.0010    2.8310   -1.7710 c3        1 D78     -0.103600
     17 C16         3.2650    1.0260   -1.0270 c3        1 D78      0.102800
     18 C17         4.4470    0.7880   -1.9820 c3        1 D78      0.110100
     19 O18         4.4540    1.6570   -3.0950 oh        1 D78     -0.597800
     20 C19         5.7870    0.9210   -1.2030 c3        1 D78      0.095500
     21 C32         5.8880    2.2600   -0.4550 c3        1 D78     -0.049100
     22 C38         7.2240    2.4620    0.1660 ca        1 D78     -0.177300
     23 C33         8.1650    3.3000   -0.4470 ca        1 D78     -0.131500
     24 C34         9.4020    3.5230    0.1570 ca        1 D78     -0.108000
     25 C35         9.7050    2.9140    1.3770 ca        1 D78     -0.088000
     26 C36         8.7670    2.0830    1.9920 ca        1 D78     -0.108000
     27 C37         7.5300    1.8580    1.3910 ca        1 D78     -0.131500
     28 N20         6.9460    0.7600   -2.1510 n4        1 D78     -0.668800
     29 C21         7.3690   -0.6580   -2.4180 c         1 D78      0.531100
     30 O22         6.6770   -1.5620   -1.9750 o         1 D78     -0.417100
     31 C29         8.6200   -0.8270   -3.2710 c3        1 D78      0.062100
     32 O28         9.3510    0.3960   -3.3230 os        1 D78     -0.443900
     33 C26        10.6250    0.2220   -2.7110 c         1 D78      0.813600
     34 O27        11.2830    1.2480   -2.6410 o         1 D78     -0.506500
     35 C25         9.5970   -1.8770   -2.6650 c3        1 D78      0.057000
     36 N24        10.7490   -1.0920   -2.2330 n         1 D78     -0.345000
     37 C43        12.0110   -1.7190   -2.0410 ca        1 D78      0.019600
     38 C44        12.0900   -3.1230   -1.9040 ca        1 D78     -0.132000
     39 C45        13.3160   -3.7280   -1.6480 ca        1 D78     -0.101000
     40 C40        14.4780   -2.9650   -1.5230 ca        1 D78     -0.071000
     41 C42        13.1820   -0.9460   -1.9150 ca        1 D78     -0.100000
     42 C41        14.3970   -1.5800   -1.6560 ca        1 D78     -0.135300
     43 C46        15.6570   -0.7200   -1.5330 c3        1 D78      0.689200
     44 F1         16.6940   -1.3280   -0.8730 f         1 D78     -0.223633
     45 F2         16.1840   -0.3420   -2.7430 f         1 D78     -0.223633
     46 F3         15.4590    0.4600   -0.8590 f         1 D78     -0.223633
     47 H4          0.6280   -2.0850   -3.9860 ha        1 D78      0.172000
     48 H3         -1.7800   -2.5180   -4.4640 ha        1 D78      0.194000
     49 H18        -5.5200   -3.2480   -2.2930 h1        1 D78      0.084700
     50 H18A       -4.3210   -3.9530   -1.0780 h1        1 D78      0.084700
     51 H18B       -4.6890   -2.1410   -1.0700 h1        1 D78      0.084700
     52 H7         -2.5850   -2.6510   -0.1770 ha        1 D78      0.194000
     53 H6         -0.1980   -2.2150    0.2860 ha        1 D78      0.172000
     54 H12         0.6200    0.4620   -3.0800 h1        1 D78      0.078200
     55 H12A        2.3270    0.9290   -3.5400 h1        1 D78      0.078200
     56 H13         2.0030    3.1770   -2.4890 hc        1 D78      0.042700
     57 H14         0.4310    4.0330   -4.2030 hc        1 D78      0.051867
     58 H14A       -0.2430    2.3730   -4.4660 hc        1 D78      0.051867
     59 H14B        1.4810    2.7320   -4.9040 hc        1 D78      0.051867
     60 H15        -0.8510    2.1200   -1.9130 hc        1 D78      0.051867
     61 H15A       -0.3920    3.8690   -1.9130 hc        1 D78      0.051867
     62 H15B        0.3670    2.7480   -0.7200 hc        1 D78      0.051867
     63 H16         3.2020    2.1350   -0.8150 h1        1 D78      0.084200
     64 H16A        3.4830    0.4940   -0.0530 h1        1 D78      0.084200
     65 H17         4.3930   -0.2480   -2.4400 h1        1 D78      0.118700
     66 HO18        4.1920    2.5430   -2.8080 ho        1 D78      0.432000
     67 H19         5.8510    0.0770   -0.4510 hx        1 D78      0.124700
     68 H32         5.1010    2.2520    0.3490 hc        1 D78      0.081200
     69 H32A        5.6500    3.1050   -1.1570 hc        1 D78      0.081200
     70 H33         7.9210    3.8180   -1.3880 ha        1 D78      0.135000
     71 H34        10.1370    4.1880   -0.3250 ha        1 D78      0.164000
     72 H35        10.6800    3.0990    1.8570 ha        1 D78      0.167000
     73 H36         8.9990    1.6140    2.9620 ha        1 D78      0.164000
     74 H37         6.7870    1.2200    1.8930 ha        1 D78      0.135000
     75 HN20        6.6990    1.1960   -3.0540 hn        1 D78      0.489300
     76 H29         8.2930   -1.0860   -4.3180 h1        1 D78      0.148700
     77 H25         9.8690   -2.6380   -3.4490 h1        1 D78      0.103700
     78 H25A        9.1500   -2.4030   -1.7780 h1        1 D78      0.103700
     79 H44        11.1940   -3.7560   -1.9860 ha        1 D78      0.137000
     80 H45        13.3700   -4.8240   -1.5430 ha        1 D78      0.163000
     81 H40        15.4480   -3.4490   -1.3170 ha        1 D78      0.177000
     82 H42        13.1640    0.1550   -2.0110 ha        1 D78      0.182000
     83 H111        1.2940    0.7600   -0.7840 hn        1 D78      0.399800
     84 H202        7.7690    1.2700   -1.7720 hn        1 D78      0.489300
@<TRIPOS>BOND
     1    1    2 1   
     2    2    3 1   
     3    2    4 1   
     4    4    5 ar  
     5    4   11 ar  
     6    5    6 ar  
     7    5   47 1   
     8    6    7 ar  
     9    6   48 1   
    10    7    8 1   
    11    7   10 ar  
    12    8    9 1   
    13    9   49 1   
    14    9   50 1   
    15    9   51 1   
    16   10   11 ar  
    17   10   52 1   
    18   11   53 1   
    19   12   13 1   
    20   12   17 1   
    21   12   83 1   
    22   13   14 1   
    23   13   54 1   
    24   13   55 1   
    25   14   15 1   
    26   14   16 1   
    27   14   56 1   
    28   15   57 1   
    29   15   58 1   
    30   15   59 1   
    31   16   60 1   
    32   16   61 1   
    33   16   62 1   
    34   17   18 1   
    35   17   63 1   
    36   17   64 1   
    37   18   19 1   
    38   18   20 1   
    39   18   65 1   
    40   19   66 1   
    41   20   21 1   
    42   20   28 1   
    43   20   67 1   
    44   21   22 1   
    45   21   68 1   
    46   21   69 1   
    47   22   23 ar  
    48   22   27 ar  
    49   23   24 ar  
    50   23   70 1   
    51   24   25 ar  
    52   24   71 1   
    53   25   26 ar  
    54   25   72 1   
    55   26   27 ar  
    56   26   73 1   
    57   27   74 1   
    58   28   29 1   
    59   28   75 1   
    60   28   84 1   
    61   29   30 2   
    62   29   31 1   
    63   31   32 1   
    64   31   35 1   
    65   31   76 1   
    66   32   33 1   
    67   33   34 2   
    68   33   36 1   
    69   35   36 1   
    70   35   77 1   
    71   35   78 1   
    72   36   37 1   
    73   37   38 ar  
    74   37   41 ar  
    75   38   39 ar  
    76   38   79 1   
    77   39   40 ar  
    78   39   80 1   
    79   40   42 ar  
    80   40   81 1   
    81   41   42 ar  
    82   41   82 1   
    83   42   43 1   
    84   43   44 1   
    85   43   45 1   
    86   43   46 1   
@<TRIPOS>SUBSTRUCTURE
     1 D78         1 TEMP              0 ****  ****    0 ROOT
