@<TRIPOS>MOLECULE
D78
   84    86     1     0     0
SMALL
bcc


@<TRIPOS>ATOM
      1 O9          2.3520   -1.9460   -0.1710 o         1 D78     -0.454900
      2 S8          1.9040   -1.9220   -1.4570 s4        1 D78      1.691300
      3 O10         2.7810   -1.9830   -2.4980 o         1 D78     -0.454900
      4 C5          0.4090   -2.1240   -1.7200 ca        1 D78     -0.694500
      5 C4         -0.1150   -2.2120   -3.0510 ca        1 D78      0.061500
      6 C3         -1.4360   -2.4520   -3.3040 ca        1 D78     -0.213000
      7 C2         -2.3420   -2.6270   -2.2130 ca        1 D78      0.307100
      8 O19        -3.6160   -2.8690   -2.5570 os        1 D78     -0.261900
      9 C18        -4.5850   -3.0790   -1.5130 c3        1 D78      0.096700
     10 C7         -1.8600   -2.5350   -0.8810 ca        1 D78     -0.213000
     11 C6         -0.5300   -2.2910   -0.6550 ca        1 D78      0.061500
     12 N11         1.9770    0.5130   -1.4310 n7        1 D78     -0.901200
     13 C12         1.4920    1.0700   -2.6930 c3        1 D78      0.108800
     14 C13         1.0800    2.5480   -2.6780 c3        1 D78     -0.082700
     15 C14         0.6180    2.9360   -4.0680 c3        1 D78     -0.103600
     16 C15        -0.0060    2.8200   -1.6610 c3        1 D78     -0.103600
     17 C16         3.2760    1.0180   -0.9840 c3        1 D78      0.102800
     18 C17         4.4400    0.7830   -1.9620 c3        1 D78      0.110100
     19 O18         4.4240    1.6540   -3.0730 oh        1 D78     -0.597800
     20 C19         5.7950    0.9170   -1.2090 c3        1 D78      0.095500
     21 C32         5.9070    2.2550   -0.4600 c3        1 D78     -0.049100
     22 C38         7.2550    2.4580    0.1350 ca        1 D78     -0.177300
     23 C33         8.1830    3.2980   -0.4940 ca        1 D78     -0.131500
     24 C34         9.4310    3.5220    0.0860 ca        1 D78     -0.108000
     25 C35         9.7580    2.9110    1.2980 ca        1 D78     -0.088000
     26 C36         8.8340    2.0780    1.9310 ca        1 D78     -0.108000
     27 C37         7.5850    1.8520    1.3530 ca        1 D78     -0.131500
     28 N20         6.9350    0.7590   -2.1790 ny        1 D78     -0.668800
     29 C21         7.3550   -0.6580   -2.4570 c         1 D78      0.531100
     30 O22         6.6730   -1.5640   -2.0030 o         1 D78     -0.417100
     31 C29         8.5900   -0.8230   -3.3340 c3        1 D78      0.062100
     32 O28         9.3180    0.4020   -3.3980 os        1 D78     -0.443900
     33 C26        10.6030    0.2290   -2.8110 c         1 D78      0.813600
     34 O27        11.2610    1.2560   -2.7520 o         1 D78     -0.506500
     35 C25         9.5800   -1.8720   -2.7490 c3        1 D78      0.057000
     36 N24        10.7390   -1.0860   -2.3370 n         1 D78     -0.345000
     37 C43        12.0050   -1.7110   -2.1690 ca        1 D78      0.019600
     38 C44        12.0890   -3.1150   -2.0380 ca        1 D78     -0.132000
     39 C45        13.3210   -3.7180   -1.8050 ca        1 D78     -0.101000
     40 C40        14.4830   -2.9530   -1.6990 ca        1 D78     -0.071000
     41 C42        13.1770   -0.9360   -2.0630 ca        1 D78     -0.100000
     42 C41        14.3970   -1.5680   -1.8270 ca        1 D78     -0.135300
     43 C46        15.6580   -0.7060   -1.7250 c3        1 D78      0.689200
     44 F1         16.7070   -1.3130   -1.0850 f         1 D78     -0.223633
     45 F2         16.1620   -0.3240   -2.9430 f         1 D78     -0.223633
     46 F3         15.4690    0.4720   -1.0450 f         1 D78     -0.223633
     47 H4          0.5880   -2.0910   -3.9000 ha        1 D78      0.172000
     48 H3         -1.8280   -2.5260   -4.3340 ha        1 D78      0.194000
     49 H18        -4.6740   -2.1600   -0.8860 h1        1 D78      0.084700
     50 H18A       -5.5260   -3.2660   -2.0950 h1        1 D78      0.084700
     51 H18B       -4.3030   -3.9710   -0.9040 h1        1 D78      0.084700
     52 H7         -2.5530   -2.6690   -0.0330 ha        1 D78      0.194000
     53 H6         -0.1580   -2.2300    0.3870 ha        1 D78      0.172000
     54 H12         2.2900    0.9240   -3.4780 h1        1 D78      0.078200
     55 H12A        0.5920    0.4540   -2.9880 h1        1 D78      0.078200
     56 H13         1.9830    3.1700   -2.4180 hc        1 D78      0.042700
     57 H14         0.3770    4.0270   -4.0980 hc        1 D78      0.051867
     58 H14A       -0.3000    2.3670   -4.3520 hc        1 D78      0.051867
     59 H14B        1.4150    2.7290   -4.8220 hc        1 D78      0.051867
     60 H15        -0.8570    2.1080   -1.7880 hc        1 D78      0.051867
     61 H15A       -0.4010    3.8580   -1.7940 hc        1 D78      0.051867
     62 H15B        0.3830    2.7350   -0.6170 hc        1 D78      0.051867
     63 H16         3.2160    2.1260   -0.7680 h1        1 D78      0.084200
     64 H16A        3.5130    0.4840   -0.0160 h1        1 D78      0.084200
     65 H17         4.3790   -0.2520   -2.4210 h1        1 D78      0.118700
     66 HO18        4.1670    2.5400   -2.7790 ho        1 D78      0.432000
     67 H19         5.8740    0.0720   -0.4600 hx        1 D78      0.124700
     68 H32         5.6550    3.1000   -1.1560 hc        1 D78      0.081200
     69 H32A        5.1370    2.2430    0.3590 hc        1 D78      0.081200
     70 H33         7.9200    3.8170   -1.4290 ha        1 D78      0.135000
     71 H34        10.1560    4.1890   -0.4090 ha        1 D78      0.164000
     72 H35        10.7420    3.0970    1.7610 ha        1 D78      0.167000
     73 H36         9.0860    1.6070    2.8950 ha        1 D78      0.164000
     74 H37         6.8530    1.2110    1.8680 ha        1 D78      0.135000
     75 HN20        6.6700    1.1970   -3.0770 hn        1 D78      0.489300
     76 H29         8.2430   -1.0810   -4.3750 h1        1 D78      0.148700
     77 H25         9.1510   -2.4010   -1.8550 h1        1 D78      0.103700
     78 H25A        9.8390   -2.6320   -3.5390 h1        1 D78      0.103700
     79 H44        11.1930   -3.7500   -2.1050 ha        1 D78      0.137000
     80 H45        13.3790   -4.8140   -1.7040 ha        1 D78      0.163000
     81 H40        15.4580   -3.4350   -1.5120 ha        1 D78      0.177000
     82 H42        13.1540    0.1650   -2.1560 ha        1 D78      0.182000
     83 H111        1.3110    0.7480   -0.7040 hn        1 D78      0.398800
     84 H202        7.7640    1.2700   -1.8150 hn        1 D78      0.489300
@<TRIPOS>BOND
     1    1    2 1   
     2    2    3 1   
     3    2    4 1   
     4    4    5 ar  
     5    4   11 ar  
     6    5    6 ar  
     7    5   47 1   
     8    6    7 ar  
     9    6   48 1   
    10    7    8 1   
    11    7   10 ar  
    12    8    9 1   
    13    9   49 1   
    14    9   50 1   
    15    9   51 1   
    16   10   11 ar  
    17   10   52 1   
    18   11   53 1   
    19   12   13 1   
    20   12   17 1   
    21   12   83 1   
    22   13   14 1   
    23   13   54 1   
    24   13   55 1   
    25   14   15 1   
    26   14   16 1   
    27   14   56 1   
    28   15   57 1   
    29   15   58 1   
    30   15   59 1   
    31   16   60 1   
    32   16   61 1   
    33   16   62 1   
    34   17   18 1   
    35   17   63 1   
    36   17   64 1   
    37   18   19 1   
    38   18   20 1   
    39   18   65 1   
    40   19   66 1   
    41   20   21 1   
    42   20   28 1   
    43   20   67 1   
    44   21   22 1   
    45   21   68 1   
    46   21   69 1   
    47   22   23 ar  
    48   22   27 ar  
    49   23   24 ar  
    50   23   70 1   
    51   24   25 ar  
    52   24   71 1   
    53   25   26 ar  
    54   25   72 1   
    55   26   27 ar  
    56   26   73 1   
    57   27   74 1   
    58   28   29 1   
    59   28   75 1   
    60   28   84 1   
    61   29   30 2   
    62   29   31 1   
    63   31   32 1   
    64   31   35 1   
    65   31   76 1   
    66   32   33 1   
    67   33   34 2   
    68   33   36 1   
    69   35   36 1   
    70   35   77 1   
    71   35   78 1   
    72   36   37 1   
    73   37   38 ar  
    74   37   41 ar  
    75   38   39 ar  
    76   38   79 1   
    77   39   40 ar  
    78   39   80 1   
    79   40   42 ar  
    80   40   81 1   
    81   41   42 ar  
    82   41   82 1   
    83   42   43 1   
    84   43   44 1   
    85   43   45 1   
    86   43   46 1   
@<TRIPOS>SUBSTRUCTURE
     1 D78         1 TEMP              0 ****  ****    0 ROOT
