@<TRIPOS>MOLECULE
D7A
   45    46     1     0     0
SMALL
bcc


@<TRIPOS>ATOM
      1 CAB         6.2480    3.1440   -0.8260 c3        1 D7A      0.110700
      2 OAR         6.7480    1.8530   -0.5000 os        1 D7A     -0.303900
      3 CAX         5.8080    0.8460   -0.4100 ca        1 D7A      0.103100
      4 CAM         4.4380    1.0140   -0.6030 ca        1 D7A     -0.175000
      5 CAW         6.3260   -0.4400   -0.0950 ca        1 D7A      0.104100
      6 OAQ         7.6940   -0.5010    0.0760 os        1 D7A     -0.303900
      7 CAA         8.2230   -1.7820    0.3990 c3        1 D7A      0.110700
      8 CAL         5.4550   -1.5240    0.0180 ca        1 D7A     -0.177000
      9 CAG         4.0850   -1.3420   -0.1790 ca        1 D7A     -0.122000
     10 CAT         3.5710   -0.0830   -0.4870 ca        1 D7A     -0.085300
     11 CAO         2.1100    0.0950   -0.7050 c3        1 D7A     -0.056100
     12 CAN         1.3620    0.0130    0.6330 c3        1 D7A      0.088000
     13 NAP        -0.0610    0.1730    0.5240 n         1 D7A     -0.563900
     14 CAS        -0.9410   -0.8830    0.6400 c         1 D7A      0.661700
     15 OAD        -0.5570   -2.0300    0.9480 o         1 D7A     -0.593100
     16 CAU        -2.3910   -0.5820    0.4320 ca        1 D7A     -0.078600
     17 CAI        -2.8300    0.1740   -0.6580 ca        1 D7A     -0.123000
     18 CAK        -4.1920    0.4100   -0.8300 ca        1 D7A     -0.025500
     19 CAH        -3.3170   -1.0970    1.3460 ca        1 D7A     -0.123000
     20 CAJ        -4.6750   -0.8470    1.1660 ca        1 D7A     -0.025500
     21 CAV        -5.1300   -0.0960    0.0770 ca        1 D7A     -0.362500
     22 SAY        -6.7850    0.2210   -0.1260 sy        1 D7A      1.525200
     23 OAE        -7.3940    0.2010    1.1460 o         1 D7A     -0.655300
     24 OAF        -6.9120    1.3930   -0.9010 o         1 D7A     -0.655300
     25 NAC        -7.2930   -1.0340   -0.9760 n3        1 D7A     -1.026700
     26 H1          5.7520    3.1370   -1.8270 h1        1 D7A      0.043367
     27 H2          5.5400    3.5050   -0.0410 h1        1 D7A      0.043367
     28 H3          7.1700    3.7790   -0.8470 h1        1 D7A      0.043367
     29 H4          4.0280    2.0040   -0.8490 ha        1 D7A      0.138000
     30 H5          7.8050   -2.1510    1.3660 h1        1 D7A      0.044367
     31 H6          8.0180   -2.5130   -0.4210 h1        1 D7A      0.044367
     32 H7          9.3220   -1.5900    0.4910 h1        1 D7A      0.044367
     33 H8          5.8380   -2.5260    0.2600 ha        1 D7A      0.142000
     34 H9          3.4070   -2.2040   -0.0890 ha        1 D7A      0.141000
     35 H10         1.9090    1.0830   -1.1960 hc        1 D7A      0.051200
     36 H11         1.7380   -0.7070   -1.3970 hc        1 D7A      0.051200
     37 H12         1.5810   -0.9850    1.1110 h1        1 D7A      0.069200
     38 H13         1.7510    0.8240    1.3140 h1        1 D7A      0.069200
     39 H14        -0.4010    1.0490    0.2050 hn        1 D7A      0.311500
     40 H15        -2.1120    0.5730   -1.3910 ha        1 D7A      0.152000
     41 H16        -4.5390    1.0220   -1.6820 ha        1 D7A      0.157500
     42 H17        -2.9630   -1.7030    2.1960 ha        1 D7A      0.152000
     43 H18        -5.4040   -1.2320    1.9020 ha        1 D7A      0.157500
     44 H19        -7.6410   -1.8670   -0.5710 hn        1 D7A      0.449800
     45 H20        -7.3140   -1.0550   -1.9650 hn        1 D7A      0.449800
@<TRIPOS>BOND
     1    1    2 1   
     2    1   26 1   
     3    1   27 1   
     4    1   28 1   
     5    2    3 1   
     6    3    4 ar  
     7    3    5 ar  
     8    4   10 ar  
     9    4   29 1   
    10    5    6 1   
    11    5    8 ar  
    12    6    7 1   
    13    7   30 1   
    14    7   31 1   
    15    7   32 1   
    16    8    9 ar  
    17    8   33 1   
    18    9   10 ar  
    19    9   34 1   
    20   10   11 1   
    21   11   12 1   
    22   11   35 1   
    23   11   36 1   
    24   12   13 1   
    25   12   37 1   
    26   12   38 1   
    27   13   14 1   
    28   13   39 1   
    29   14   15 2   
    30   14   16 1   
    31   16   17 ar  
    32   16   19 ar  
    33   17   18 ar  
    34   17   40 1   
    35   18   21 ar  
    36   18   41 1   
    37   19   20 ar  
    38   19   42 1   
    39   20   21 ar  
    40   20   43 1   
    41   21   22 1   
    42   22   23 2   
    43   22   24 2   
    44   22   25 1   
    45   25   44 1   
    46   25   45 1   
@<TRIPOS>SUBSTRUCTURE
     1 D7A         1 TEMP              0 ****  ****    0 ROOT
