@<TRIPOS>MOLECULE
D7A
   47    48     1     0     0
SMALL
bcc


@<TRIPOS>ATOM
      1 CAB        -0.7640    0.2040    0.8180 c3        1 D7A      0.107700
      2 OAR         0.5050    0.8490    0.7620 os        1 D7A     -0.289900
      3 CAX         1.3980    0.5190    1.7550 ca        1 D7A      0.112100
      4 CAM         1.0500   -0.0320    2.9830 ca        1 D7A     -0.171000
      5 CAW         2.7650    0.8240    1.4720 ca        1 D7A      0.157100
      6 OAQ         2.9960    1.3730    0.2410 os        1 D7A     -0.284900
      7 CAA         4.3620    1.6100   -0.1080 c3        1 D7A      0.102700
      8 CAL         3.7410    0.5580    2.4340 ca        1 D7A     -0.188000
      9 CAG         3.3780    0.0010    3.6620 ca        1 D7A     -0.099000
     10 CAT         2.0440   -0.2890    3.9430 ca        1 D7A     -0.159300
     11 CAO         1.6700   -0.8970    5.2470 c3        1 D7A     -0.033100
     12 CAN         1.5620    0.2320    6.2760 c3        1 D7A      0.104800
     13 NAP         1.1850   -0.2730    7.6430 n4        1 D7A     -0.674800
     14 CAS         1.2140    0.8340    8.6590 c         1 D7A      0.539700
     15 OAD         2.3000    1.1080    9.1430 o         1 D7A     -0.356100
     16 CAU        -0.0740    1.5000    8.9720 ca        1 D7A     -0.077600
     17 CAI        -1.2010    0.7670    9.3610 ca        1 D7A     -0.098500
     18 CAK        -2.3680    1.4400    9.7150 ca        1 D7A      0.013000
     19 CAH        -0.1160    2.8990    8.9380 ca        1 D7A     -0.098500
     20 CAJ        -1.2940    3.5600    9.2860 ca        1 D7A      0.013000
     21 CAV        -2.4380    2.8460    9.6830 ca        1 D7A     -0.460500
     22 SAY        -3.8570    3.6230    9.9700 sy        1 D7A      1.462200
     23 OAE        -3.8730    4.9070    9.4790 o         1 D7A     -0.533800
     24 OAF        -4.9370    2.7720    9.9750 o         1 D7A     -0.533800
     25 NAC        -3.6580    3.9550   11.8150 n4        1 D7A     -0.801500
     26 H1         -1.3670    0.6120    1.6660 h1        1 D7A      0.051033
     27 H2         -1.2320    0.4750   -0.1640 h1        1 D7A      0.051033
     28 H3         -0.6500   -0.9030    0.9120 h1        1 D7A      0.051033
     29 H4          0.0020   -0.2890    3.1940 ha        1 D7A      0.135000
     30 H5          4.8140    2.3660    0.5780 h1        1 D7A      0.060033
     31 H6          4.9430    0.6570   -0.0920 h1        1 D7A      0.060033
     32 H7          4.2860    2.0140   -1.1510 h1        1 D7A      0.060033
     33 H8          4.8010    0.7710    2.2280 ha        1 D7A      0.162000
     34 H9          4.1630   -0.2210    4.4000 ha        1 D7A      0.132000
     35 H10         0.6920   -1.4410    5.1580 hc        1 D7A      0.071700
     36 H11         2.4530   -1.6370    5.5630 hc        1 D7A      0.071700
     37 H12         2.5580    0.7560    6.3680 hx        1 D7A      0.114200
     38 H13         0.7780    0.9740    5.9520 hx        1 D7A      0.114200
     39 H14         1.8690   -0.9970    7.9150 hn        1 D7A      0.466800
     40 H15        -1.1820   -0.3350    9.4190 ha        1 D7A      0.186500
     41 H16        -3.2620    0.8500   10.0070 ha        1 D7A      0.196000
     42 H17         0.7770    3.4830    8.6460 ha        1 D7A      0.186500
     43 H18        -1.3230    4.6680    9.2260 ha        1 D7A      0.196000
     44 H19        -2.7840    3.6130   12.2080 hn        1 D7A      0.471800
     45 H20        -4.4200    3.5180   12.3410 hn        1 D7A      0.471800
     46 HAP2        0.2560   -0.7020    7.6030 hn        1 D7A      0.466800
     47 HAC3       -3.7040    4.9600   12.0040 hn        1 D7A      0.471800
@<TRIPOS>BOND
     1    1    2 1   
     2    1   26 1   
     3    1   27 1   
     4    1   28 1   
     5    2    3 1   
     6    3    4 ar  
     7    3    5 ar  
     8    4   10 ar  
     9    4   29 1   
    10    5    6 1   
    11    5    8 ar  
    12    6    7 1   
    13    7   30 1   
    14    7   31 1   
    15    7   32 1   
    16    8    9 ar  
    17    8   33 1   
    18    9   10 ar  
    19    9   34 1   
    20   10   11 1   
    21   11   12 1   
    22   11   35 1   
    23   11   36 1   
    24   12   13 1   
    25   12   37 1   
    26   12   38 1   
    27   13   14 1   
    28   13   39 1   
    29   13   46 1   
    30   14   15 2   
    31   14   16 1   
    32   16   17 ar  
    33   16   19 ar  
    34   17   18 ar  
    35   17   40 1   
    36   18   21 ar  
    37   18   41 1   
    38   19   20 ar  
    39   19   42 1   
    40   20   21 ar  
    41   20   43 1   
    42   21   22 1   
    43   22   23 2   
    44   22   24 2   
    45   22   25 1   
    46   25   44 1   
    47   25   45 1   
    48   25   47 1   
@<TRIPOS>SUBSTRUCTURE
     1 D7A         1 TEMP              0 ****  ****    0 ROOT
