@<TRIPOS>MOLECULE
D7A
   47    48     1     0     0
SMALL
bcc


@<TRIPOS>ATOM
      1 CAB        -0.7960    0.0880    0.8470 c3        1 D7A      0.107700
      2 OAR         0.4590    0.7580    0.7700 os        1 D7A     -0.289900
      3 CAX         1.3670    0.4630    1.7600 ca        1 D7A      0.112100
      4 CAM         1.0400   -0.0750    3.0000 ca        1 D7A     -0.171000
      5 CAW         2.7250    0.7890    1.4600 ca        1 D7A      0.157100
      6 OAQ         2.9350    1.3230    0.2180 os        1 D7A     -0.284900
      7 CAA         4.2920    1.5810   -0.1470 c3        1 D7A      0.102700
      8 CAL         3.7140    0.5590    2.4180 ca        1 D7A     -0.188000
      9 CAG         3.3730    0.0160    3.6580 ca        1 D7A     -0.099000
     10 CAT         2.0480   -0.2960    3.9550 ca        1 D7A     -0.159300
     11 CAO         1.6970   -0.8900    5.2720 c3        1 D7A     -0.033100
     12 CAN         1.5810    0.2530    6.2840 c3        1 D7A      0.104800
     13 NAP         1.2270   -0.2360    7.6630 n4        1 D7A     -0.674800
     14 CAS         1.2470    0.8870    8.6620 c         1 D7A      0.539700
     15 OAD         2.3340    1.1820    9.1350 o         1 D7A     -0.356100
     16 CAU        -0.0460    1.5420    8.9720 ca        1 D7A     -0.077600
     17 CAI        -1.1620    0.8010    9.3800 ca        1 D7A     -0.098500
     18 CAK        -2.3350    1.4660    9.7310 ca        1 D7A      0.013000
     19 CAH        -0.1050    2.9400    8.9170 ca        1 D7A     -0.098500
     20 CAJ        -1.2890    3.5920    9.2620 ca        1 D7A      0.013000
     21 CAV        -2.4220    2.8700    9.6770 ca        1 D7A     -0.460500
     22 SAY        -3.8490    3.6340    9.9600 sy        1 D7A      1.462200
     23 OAE        -3.8840    4.9100    9.4510 o         1 D7A     -0.533800
     24 OAF        -4.9190    2.7710    9.9860 o         1 D7A     -0.533800
     25 NAC        -3.6430    3.9970   11.7990 n4        1 D7A     -0.801500
     26 H1         -0.6590   -1.0140    0.9580 h1        1 D7A      0.051033
     27 H2         -1.4000    0.4970    1.6940 h1        1 D7A      0.051033
     28 H3         -1.2770    0.3340   -0.1350 h1        1 D7A      0.051033
     29 H4         -0.0010   -0.3490    3.2240 ha        1 D7A      0.135000
     30 H5          4.7350    2.3570    0.5220 h1        1 D7A      0.060033
     31 H6          4.1990    1.9650   -1.1960 h1        1 D7A      0.060033
     32 H7          4.8930    0.6400   -0.1200 h1        1 D7A      0.060033
     33 H8          4.7680    0.7890    2.1980 ha        1 D7A      0.162000
     34 H9          4.1690   -0.1790    4.3920 ha        1 D7A      0.132000
     35 H10         2.4960   -1.6120    5.5910 hc        1 D7A      0.071700
     36 H11         0.7270   -1.4510    5.2020 hc        1 D7A      0.071700
     37 H12         0.7830    0.9770    5.9570 hx        1 D7A      0.114200
     38 H13         2.5700    0.7940    6.3580 hx        1 D7A      0.114200
     39 H14         0.3030   -0.6800    7.6390 hn        1 D7A      0.466800
     40 H15        -1.1290   -0.2990    9.4540 ha        1 D7A      0.186500
     41 H16        -3.2200    0.8700   10.0360 ha        1 D7A      0.196000
     42 H17         0.7790    3.5300    8.6110 ha        1 D7A      0.186500
     43 H18        -1.3330    4.6980    9.1850 ha        1 D7A      0.196000
     44 H19        -2.7630    3.6710   12.1920 hn        1 D7A      0.471800
     45 H20        -3.7000    5.0040   11.9730 hn        1 D7A      0.471800
     46 HAP2        1.9250   -0.9450    7.9390 hn        1 D7A      0.466800
     47 HAC3       -4.3960    3.5590   12.3370 hn        1 D7A      0.471800
@<TRIPOS>BOND
     1    1    2 1   
     2    1   26 1   
     3    1   27 1   
     4    1   28 1   
     5    2    3 1   
     6    3    4 ar  
     7    3    5 ar  
     8    4   10 ar  
     9    4   29 1   
    10    5    6 1   
    11    5    8 ar  
    12    6    7 1   
    13    7   30 1   
    14    7   31 1   
    15    7   32 1   
    16    8    9 ar  
    17    8   33 1   
    18    9   10 ar  
    19    9   34 1   
    20   10   11 1   
    21   11   12 1   
    22   11   35 1   
    23   11   36 1   
    24   12   13 1   
    25   12   37 1   
    26   12   38 1   
    27   13   14 1   
    28   13   39 1   
    29   13   46 1   
    30   14   15 2   
    31   14   16 1   
    32   16   17 ar  
    33   16   19 ar  
    34   17   18 ar  
    35   17   40 1   
    36   18   21 ar  
    37   18   41 1   
    38   19   20 ar  
    39   19   42 1   
    40   20   21 ar  
    41   20   43 1   
    42   21   22 1   
    43   22   23 2   
    44   22   24 2   
    45   22   25 1   
    46   25   44 1   
    47   25   45 1   
    48   25   47 1   
@<TRIPOS>SUBSTRUCTURE
     1 D7A         1 TEMP              0 ****  ****    0 ROOT
