@<TRIPOS>MOLECULE
D7A
   45    38     1     0     0
SMALL
bcc


@<TRIPOS>ATOM
      1 CAB        -5.1120    1.3850    4.0920 c3        1 D7A     -0.074000
      2 OAR        -4.8580    0.9910    2.7510 os        1 D7A     -0.213000
      3 CAX        -3.8340    1.7730    2.0950 c1        1 D7A      0.033000
      4 CAM        -2.5260    1.3050    2.0500 c1        1 D7A     -0.108000
      5 CAW        -4.1780    2.9470    1.4230 c1        1 D7A     -0.020500
      6 OAQ        -5.5390    3.3760    1.3840 o         1 D7A     -0.205000
      7 CAA        -6.1360    3.2700    0.0850 c3        1 D7A     -0.077000
      8 CAL        -3.2140    3.6500    0.7100 c1        1 D7A     -0.148000
      9 CAG        -1.9130    3.1860    0.6650 c1        1 D7A     -0.148000
     10 CAT        -1.5640    2.0110    1.3350 c1        1 D7A     -0.020500
     11 CAO        -0.0900    1.4920    1.2930 c2        1 D7A     -0.144000
     12 CAN         0.0300    0.4150    0.2250 c3        1 D7A     -0.029000
     13 NAP         1.4010    0.3240   -0.2240 n         1 D7A     -0.372000
     14 CAS         2.3140   -0.7130    0.3660 c2        1 D7A      0.332000
     15 OAD         2.5110   -0.7410    1.6290 o         1 D7A     -0.350000
     16 CAU         3.1580   -1.6030   -0.5620 c2        1 D7A     -0.058000
     17 CAI         3.3540   -2.9320   -0.2520 c2        1 D7A     -0.106000
     18 CAK         4.1380   -3.7380   -1.0860 c1        1 D7A     -0.026000
     19 CAH         3.7480   -1.0560   -1.7190 c1        1 D7A     -0.137000
     20 CAJ         4.5310   -1.8560   -2.5530 c1        1 D7A     -0.027000
     21 CAV         4.7280   -3.1940   -2.2410 c1        1 D7A     -0.807000
     22 SAY         5.7510   -4.2100   -3.2900 s4        1 D7A      2.080800
     23 OAE         6.8410   -3.4680   -3.8200 o         1 D7A     -0.541900
     24 OAF         6.4620   -5.2420   -2.5140 o         1 D7A     -0.541900
     25 NAC         4.8360   -4.8880   -4.4970 n2        1 D7A     -0.954000
     26 H1         -5.0230    0.5850    4.7050 h1        1 D7A      0.083333
     27 H2         -6.0530    1.7590    4.1600 h1        1 D7A      0.083333
     28 H3         -4.4850    2.0520    4.3500 h1        1 D7A      0.083333
     29 H4         -2.2800    0.4720    2.5250 ha        1 D7A      0.157000
     30 H5         -5.8030    2.4950   -0.3530 h1        1 D7A      0.084667
     31 H6         -5.9160    4.0560   -0.4360 h1        1 D7A      0.084667
     32 H7         -7.0790    3.2020    0.1700 h1        1 D7A      0.084667
     33 H8         -3.4450    4.4370    0.2620 ha        1 D7A      0.135500
     34 H9         -1.2060    3.7040    0.1380 ha        1 D7A      0.135500
     35 H10         0.1430    1.1290    2.1420 ha        1 D7A      0.091500
     36 H11         0.4800    2.1910    1.0890 ha        1 D7A      0.091500
     37 H12        -0.5630    0.6480   -0.5530 h1        1 D7A      0.109000
     38 H13        -0.2450   -0.4350    0.5950 h1        1 D7A      0.109000
     39 H14         1.7210    0.9190   -0.8460 hn        1 D7A      0.221000
     40 H15         2.9230   -3.3330    0.5910 ha        1 D7A      0.165000
     41 H16         4.2680   -4.6270   -0.8750 ha        1 D7A      0.158000
     42 H17         3.6080   -0.1070   -1.9400 ha        1 D7A      0.140000
     43 H18         4.9410   -1.4730   -3.3550 ha        1 D7A      0.158000
     44 H19         4.5130   -5.7630   -4.4040 hn        1 D7A      0.244000
     45 H20         4.6620   -4.3940   -5.3070 hn        1 D7A      0.244000
@<TRIPOS>BOND
     1    1    2 1   
     2    1   26 1   
     3    1   27 1   
     4    1   28 1   
     5    2    3 1   
     6    3    4 1   
     7    4   29 1   
     8    5    8 1   
     9    6    7 1   
    10    7   30 1   
    11    7   31 1   
    12    7   32 1   
    13    8   33 1   
    14    9   10 1   
    15    9   34 1   
    16   11   12 1   
    17   11   35 1   
    18   11   36 1   
    19   12   13 1   
    20   12   37 1   
    21   12   38 1   
    22   13   14 1   
    23   13   39 1   
    24   14   15 1   
    25   14   16 1   
    26   16   17 1   
    27   16   19 1   
    28   17   18 1   
    29   17   40 1   
    30   18   41 1   
    31   19   42 1   
    32   20   21 1   
    33   20   43 1   
    34   21   22 1   
    35   22   23 1   
    36   22   24 1   
    37   25   44 1   
    38   25   45 1   
@<TRIPOS>SUBSTRUCTURE
     1 D7A         1 TEMP              0 ****  ****    0 ROOT
