@<TRIPOS>MOLECULE
D7A
   47    48     1     0     0
SMALL
bcc


@<TRIPOS>ATOM
      1 CAB        -0.7950    0.2130    0.8180 c3        1 D7A      0.107700
      2 OAR         0.4740    0.8600    0.7580 os        1 D7A     -0.289900
      3 CAX         1.3710    0.5280    1.7460 ca        1 D7A      0.112100
      4 CAM         1.0290   -0.0270    2.9740 ca        1 D7A     -0.171000
      5 CAW         2.7370    0.8340    1.4580 ca        1 D7A      0.157100
      6 OAQ         2.9630    1.3870    0.2270 os        1 D7A     -0.284900
      7 CAA         4.3260    1.6260   -0.1270 c3        1 D7A      0.102700
      8 CAL         3.7170    0.5670    2.4150 ca        1 D7A     -0.188000
      9 CAG         3.3600    0.0060    3.6430 ca        1 D7A     -0.099000
     10 CAT         2.0280   -0.2860    3.9280 ca        1 D7A     -0.159300
     11 CAO         1.6600   -0.8980    5.2320 c3        1 D7A     -0.033100
     12 CAN         1.5600    0.2270    6.2660 c3        1 D7A      0.104800
     13 NAP         1.1910   -0.2820    7.6340 ny        1 D7A     -0.674800
     14 CAS         1.2290    0.8210    8.6550 c         1 D7A      0.539700
     15 OAD         2.3190    1.0890    9.1340 o         1 D7A     -0.356100
     16 CAU        -0.0550    1.4900    8.9760 ca        1 D7A     -0.077600
     17 CAI        -1.1830    0.7590    9.3670 ca        1 D7A     -0.098500
     18 CAK        -2.3460    1.4360    9.7290 ca        1 D7A      0.013000
     19 CAH        -0.0910    2.8890    8.9490 ca        1 D7A     -0.098500
     20 CAJ        -1.2650    3.5540    9.3050 ca        1 D7A      0.013000
     21 CAV        -2.4100    2.8420    9.7040 ca        1 D7A     -0.460500
     22 SAY        -3.8250    3.6230   10.0000 sy        1 D7A      1.462200
     23 OAE        -3.8380    4.9090    9.5160 o         1 D7A     -0.533800
     24 OAF        -4.9090    2.7770   10.0070 o         1 D7A     -0.533800
     25 NAC        -3.6160    3.9460   11.8460 nz        1 D7A     -0.801500
     26 H1         -0.6790   -0.8930    0.9080 h1        1 D7A      0.051033
     27 H2         -1.3940    0.6180    1.6690 h1        1 D7A      0.051033
     28 H3         -1.2660    0.4870   -0.1610 h1        1 D7A      0.051033
     29 H4         -0.0180   -0.2850    3.1880 ha        1 D7A      0.135000
     30 H5          4.7810    2.3810    0.5590 h1        1 D7A      0.060033
     31 H6          4.2450    2.0320   -1.1680 h1        1 D7A      0.060033
     32 H7          4.9080    0.6730   -0.1160 h1        1 D7A      0.060033
     33 H8          4.7760    0.7810    2.2040 ha        1 D7A      0.162000
     34 H9          4.1490   -0.2180    4.3770 ha        1 D7A      0.132000
     35 H10         2.4440   -1.6420    5.5410 hc        1 D7A      0.071700
     36 H11         0.6800   -1.4400    5.1470 hc        1 D7A      0.071700
     37 H12         0.7770    0.9720    5.9500 hx        1 D7A      0.114200
     38 H13         2.5580    0.7480    6.3540 hx        1 D7A      0.114200
     39 H14         0.2600   -0.7090    7.5980 hn        1 D7A      0.466800
     40 H15        -1.1670   -0.3430    9.4200 ha        1 D7A      0.186500
     41 H16        -3.2410    0.8480   10.0220 ha        1 D7A      0.196000
     42 H17         0.8030    3.4720    8.6550 ha        1 D7A      0.186500
     43 H18        -1.2900    4.6620    9.2490 ha        1 D7A      0.196000
     44 H19        -2.7420    3.5990   12.2330 hn        1 D7A      0.471800
     45 H20        -3.6570    4.9510   12.0400 hn        1 D7A      0.471800
     46 HAP2        1.8750   -1.0090    7.8990 hn        1 D7A      0.466800
     47 HAC3       -4.3780    3.5090   12.3740 hn        1 D7A      0.471800
@<TRIPOS>BOND
     1    1    2 1   
     2    1   26 1   
     3    1   27 1   
     4    1   28 1   
     5    2    3 1   
     6    3    4 ar  
     7    3    5 ar  
     8    4   10 ar  
     9    4   29 1   
    10    5    6 1   
    11    5    8 ar  
    12    6    7 1   
    13    7   30 1   
    14    7   31 1   
    15    7   32 1   
    16    8    9 ar  
    17    8   33 1   
    18    9   10 ar  
    19    9   34 1   
    20   10   11 1   
    21   11   12 1   
    22   11   35 1   
    23   11   36 1   
    24   12   13 1   
    25   12   37 1   
    26   12   38 1   
    27   13   14 1   
    28   13   39 1   
    29   13   46 1   
    30   14   15 2   
    31   14   16 1   
    32   16   17 ar  
    33   16   19 ar  
    34   17   18 ar  
    35   17   40 1   
    36   18   21 ar  
    37   18   41 1   
    38   19   20 ar  
    39   19   42 1   
    40   20   21 ar  
    41   20   43 1   
    42   21   22 1   
    43   22   23 2   
    44   22   24 2   
    45   22   25 1   
    46   25   44 1   
    47   25   45 1   
    48   25   47 1   
@<TRIPOS>SUBSTRUCTURE
     1 D7A         1 TEMP              0 ****  ****    0 ROOT
