@<TRIPOS>MOLECULE
D7E
   46    48     1     0     0
SMALL
bcc


@<TRIPOS>ATOM
      1 C1          0.6550   -0.8970   -0.8370 c3        1 D7E     -0.124100
      2 C2          2.0640   -0.6770   -0.3090 c3        1 D7E      0.033300
      3 N3          2.1550   -0.2820    1.0710 na        1 D7E     -0.125300
      4 C4          2.3070   -1.1480    2.1660 ca        1 D7E     -0.071200
      5 C5          2.5200   -2.5320    2.2520 ca        1 D7E     -0.075000
      6 C6          2.6550   -3.0680    3.5230 ca        1 D7E     -0.131300
      7 C7          2.5840   -2.2780    4.6900 ca        1 D7E     -0.097000
      8 C8          2.3780   -0.9120    4.6260 ca        1 D7E     -0.065000
      9 C9          2.2350   -0.3210    3.3580 ca        1 D7E      0.086400
     10 N10         2.0180    1.0120    2.9810 nc        1 D7E     -0.574100
     11 C11         1.9580    0.9990    1.6270 cd        1 D7E      0.331800
     12 C12         1.7150    2.2510    0.8170 c3        1 D7E      0.153200
     13 C14         0.2290    2.5950    0.8640 c3        1 D7E     -0.127100
     14 N15         2.5690    3.3670    1.3410 ny        1 D7E     -0.707900
     15 S16         2.8530    4.8140    0.1280 sy        1 D7E      1.486200
     16 O17         4.2120    4.6780   -0.0800 o         1 D7E     -0.574300
     17 O18         1.9490    4.5450   -0.8800 o         1 D7E     -0.574300
     18 C19         2.4370    6.0070    1.1130 ca        1 D7E     -0.554500
     19 C20         3.4010    6.6660    1.9100 ca        1 D7E      0.022000
     20 C21         3.0630    7.7450    2.7100 ca        1 D7E     -0.151000
     21 C22         1.7360    8.2060    2.7360 ca        1 D7E      0.131400
     22 C23         0.7590    7.5710    1.9480 ca        1 D7E     -0.151000
     23 C24         1.1100    6.4940    1.1530 ca        1 D7E      0.022000
     24 Cl25        1.3180    9.5140    3.7020 cl        1 D7E      0.016600
     25 C26         2.9060   -4.5700    3.6760 c3        1 D7E      0.687200
     26 F27         4.2330   -4.8950    3.8160 f         1 D7E     -0.226633
     27 F28         2.2950   -5.1330    4.7670 f         1 D7E     -0.226633
     28 F29         2.4790   -5.3260    2.6120 f         1 D7E     -0.226633
     29 H11C        0.1150   -1.6750   -0.2430 hc        1 D7E      0.059700
     30 H12C        0.7280   -1.2460   -1.8960 hc        1 D7E      0.059700
     31 H13C        0.0590    0.0460   -0.8130 hc        1 D7E      0.059700
     32 H21C        2.5770    0.1110   -0.9330 h1        1 D7E      0.071200
     33 H22C        2.6500   -1.6370   -0.4170 h1        1 D7E      0.071200
     34 H5          2.5720   -3.1670    1.3550 ha        1 D7E      0.167000
     35 H7          2.6930   -2.7740    5.6710 ha        1 D7E      0.169000
     36 H8          2.3220   -0.2990    5.5380 ha        1 D7E      0.165000
     37 H12         2.0260    2.0860   -0.2620 hx        1 D7E      0.112700
     38 H141        0.0040    3.4640    0.1980 hc        1 D7E      0.081367
     39 H142       -0.3480    1.7100    0.4930 hc        1 D7E      0.081367
     40 H143       -0.1090    2.8150    1.9060 hc        1 D7E      0.081367
     41 H15         2.1510    3.6950    2.2130 hn        1 D7E      0.459300
     42 H20         4.4540    6.3240    1.8770 ha        1 D7E      0.170500
     43 H24         0.3410    6.0120    0.5200 ha        1 D7E      0.170500
     44 H21         3.8370    8.2450    3.3190 ha        1 D7E      0.187000
     45 H23        -0.2830    7.9370    1.9570 ha        1 D7E      0.187000
     46 H152        3.4810    2.9740    1.5870 hn        1 D7E      0.459300
@<TRIPOS>BOND
     1    1    2 1   
     2    1   29 1   
     3    1   30 1   
     4    1   31 1   
     5    2    3 1   
     6    2   32 1   
     7    2   33 1   
     8    3    4 1   
     9    3   11 1   
    10    4    5 ar  
    11    4    9 ar  
    12    5    6 ar  
    13    5   34 1   
    14    6    7 ar  
    15    6   25 1   
    16    7    8 ar  
    17    7   35 1   
    18    8    9 ar  
    19    8   36 1   
    20    9   10 1   
    21   10   11 2   
    22   11   12 1   
    23   12   13 1   
    24   12   14 1   
    25   12   37 1   
    26   13   38 1   
    27   13   39 1   
    28   13   40 1   
    29   14   15 1   
    30   14   41 1   
    31   14   46 1   
    32   15   16 2   
    33   15   17 2   
    34   15   18 1   
    35   18   19 ar  
    36   18   23 ar  
    37   19   20 ar  
    38   19   42 1   
    39   20   21 ar  
    40   20   44 1   
    41   21   22 ar  
    42   21   24 1   
    43   22   23 ar  
    44   22   45 1   
    45   23   43 1   
    46   25   26 1   
    47   25   27 1   
    48   25   28 1   
@<TRIPOS>SUBSTRUCTURE
     1 D7E         1 TEMP              0 ****  ****    0 ROOT
