@<TRIPOS>MOLECULE
D7E
   46    48     1     0     0
SMALL
bcc


@<TRIPOS>ATOM
      1 C1          0.5880   -0.9250   -0.7760 c3        1 D7E     -0.124100
      2 C2          2.0080   -0.7000   -0.2830 c3        1 D7E      0.033300
      3 N3          2.1320   -0.2900    1.0900 na        1 D7E     -0.125300
      4 C4          2.3030   -1.1440    2.1910 ca        1 D7E     -0.071200
      5 C5          2.5110   -2.5280    2.2880 ca        1 D7E     -0.075000
      6 C6          2.6710   -3.0510    3.5620 ca        1 D7E     -0.131300
      7 C7          2.6300   -2.2470    4.7210 ca        1 D7E     -0.097000
      8 C8          2.4280   -0.8810    4.6460 ca        1 D7E     -0.065000
      9 C9          2.2600   -0.3030    3.3750 ca        1 D7E      0.086400
     10 N10         2.0420    1.0260    2.9870 nc        1 D7E     -0.574100
     11 C11         1.9530    0.9990    1.6350 cd        1 D7E      0.331800
     12 C12         1.6990    2.2420    0.8160 c3        1 D7E      0.153200
     13 C14         0.2150    2.5930    0.8900 c3        1 D7E     -0.127100
     14 N15         2.5670    3.3610    1.3100 n4        1 D7E     -0.707900
     15 S16         2.8330    4.7930    0.0750 sy        1 D7E      1.486200
     16 O17         4.1860    4.6460   -0.1610 o         1 D7E     -0.574300
     17 O18         1.9050    4.5170   -0.9090 o         1 D7E     -0.574300
     18 C19         2.4460    5.9980    1.0560 ca        1 D7E     -0.555500
     19 C20         3.4310    6.6600    1.8240 ca        1 D7E      0.022000
     20 C21         3.1180    7.7490    2.6190 ca        1 D7E     -0.151000
     21 C22         1.7930    8.2190    2.6710 ca        1 D7E      0.131400
     22 C23         0.7950    7.5810    1.9120 ca        1 D7E     -0.151000
     23 C24         1.1230    6.4940    1.1210 ca        1 D7E      0.022000
     24 CL25        1.4050    9.5390    3.6310 cl        1 D7E      0.016600
     25 C26         2.9190   -4.5520    3.7270 c3        1 D7E      0.687200
     26 F27         4.2470   -4.8810    3.8430 f         1 D7E     -0.226633
     27 F28         2.3280   -5.1000    4.8370 f         1 D7E     -0.226633
     28 F29         2.4660   -5.3180    2.6810 f         1 D7E     -0.226633
     29 H11C        0.0600   -1.6940   -0.1620 hc        1 D7E      0.059700
     30 H12C       -0.0070    0.0190   -0.7490 hc        1 D7E      0.059700
     31 H13C        0.6350   -1.2860   -1.8330 hc        1 D7E      0.059700
     32 H21C        2.5080    0.0800   -0.9280 h1        1 D7E      0.071200
     33 H22C        2.5900   -1.6630   -0.3940 h1        1 D7E      0.071200
     34 H5          2.5410   -3.1740    1.3970 ha        1 D7E      0.167000
     35 H7          2.7570   -2.7320    5.7050 ha        1 D7E      0.169000
     36 H8          2.3950   -0.2570    5.5520 ha        1 D7E      0.165000
     37 H12         1.9870    2.0640   -0.2660 hx        1 D7E      0.112700
     38 H141       -0.3730    1.7070    0.5400 hc        1 D7E      0.081367
     39 H142       -0.0200    3.4570    0.2190 hc        1 D7E      0.081367
     40 H143       -0.1010    2.8250    1.9360 hc        1 D7E      0.081367
     41 H15         2.1690    3.7000    2.1870 hn        1 D7E      0.459300
     42 H20         4.4810    6.3120    1.7720 ha        1 D7E      0.170500
     43 H24         0.3370    6.0090    0.5110 ha        1 D7E      0.170500
     44 H21         3.9070    8.2520    3.2060 ha        1 D7E      0.187000
     45 H23        -0.2440    7.9530    1.9410 ha        1 D7E      0.187000
     46 H152        3.4830    2.9660    1.5410 hn        1 D7E      0.459300
@<TRIPOS>BOND
     1    1    2 1   
     2    1   29 1   
     3    1   30 1   
     4    1   31 1   
     5    2    3 1   
     6    2   32 1   
     7    2   33 1   
     8    3    4 1   
     9    3   11 1   
    10    4    5 ar  
    11    4    9 ar  
    12    5    6 ar  
    13    5   34 1   
    14    6    7 ar  
    15    6   25 1   
    16    7    8 ar  
    17    7   35 1   
    18    8    9 ar  
    19    8   36 1   
    20    9   10 1   
    21   10   11 2   
    22   11   12 1   
    23   12   13 1   
    24   12   14 1   
    25   12   37 1   
    26   13   38 1   
    27   13   39 1   
    28   13   40 1   
    29   14   15 1   
    30   14   41 1   
    31   14   46 1   
    32   15   16 2   
    33   15   17 2   
    34   15   18 1   
    35   18   19 ar  
    36   18   23 ar  
    37   19   20 ar  
    38   19   42 1   
    39   20   21 ar  
    40   20   44 1   
    41   21   22 ar  
    42   21   24 1   
    43   22   23 ar  
    44   22   45 1   
    45   23   43 1   
    46   25   26 1   
    47   25   27 1   
    48   25   28 1   
@<TRIPOS>SUBSTRUCTURE
     1 D7E         1 TEMP              0 ****  ****    0 ROOT
