@<TRIPOS>MOLECULE
D7G
   72    73     1     0     0
SMALL
bcc


@<TRIPOS>ATOM
      1 O1         -4.3380   -0.0580   -1.9310 o         1 D7G     -0.500100
      2 C1         -4.1820    0.0350   -0.7140 c         1 D7G      0.485100
      3 C2         -5.2690   -0.4110    0.2630 c         1 D7G      0.575100
      4 O2         -5.4980    0.2470    1.2970 o         1 D7G     -0.591100
      5 N1         -5.9380   -1.5660   -0.0590 n         1 D7G     -0.516900
      6 C3         -6.9770   -2.0990    0.7510 cx        1 D7G      0.044700
      7 C4         -8.2430   -2.6710    0.1430 cx        1 D7G     -0.148400
      8 C5         -7.2500   -3.5890    0.7950 cx        1 D7G     -0.148400
      9 C6         -2.9330    0.6070   -0.0390 c3        1 D7G      0.029700
     10 N2         -1.7410    0.3930   -0.8160 n         1 D7G     -0.550900
     11 C7         -0.8860   -0.6600   -0.5850 c         1 D7G      0.632100
     12 O3         -1.0690   -1.4670    0.3480 o         1 D7G     -0.609100
     13 C8          0.3410   -0.8090   -1.5260 c3        1 D7G      0.042700
     14 N3          1.5620   -0.8730   -0.7550 n         1 D7G     -0.514900
     15 C9          2.3240    0.2730   -0.6020 c         1 D7G      0.735100
     16 O4          2.2930    1.3100   -1.2870 o         1 D7G     -0.589000
     17 O5          3.2490    0.1680    0.4140 os        1 D7G     -0.438900
     18 C10         4.1890    1.2560    0.4950 c3        1 D7G      0.148400
     19 C11         5.1740    0.8670    1.5890 c3        1 D7G      0.124400
     20 O6          6.3220    0.3340    0.9320 os        1 D7G     -0.426600
     21 C12         7.2610   -0.2220    1.8510 c3        1 D7G      0.127400
     22 C13         8.5100   -0.5540    1.0410 c3        1 D7G      0.123400
     23 O7          9.5160    0.3710    1.4500 os        1 D7G     -0.425600
     24 C14        10.6910    0.2810    0.6640 c3        1 D7G      0.117700
     25 C15         0.1260   -2.0830   -2.3620 c3        1 D7G     -0.085400
     26 C16        -0.9000   -1.8700   -3.4660 c3        1 D7G     -0.071700
     27 C17        -0.3040   -1.1190   -4.6390 c3        1 D7G     -0.092100
     28 C18        -1.4380   -3.2100   -3.9270 c3        1 D7G     -0.092100
     29 C19        -3.2160    2.0990    0.2420 c3        1 D7G     -0.046100
     30 C20        -2.1660    2.7070    1.1000 ca        1 D7G     -0.087300
     31 C21        -1.1890    3.5410    0.5470 ca        1 D7G     -0.119000
     32 C22        -0.2190    4.1230    1.3630 ca        1 D7G     -0.127500
     33 C23        -0.2190    3.8760    2.7350 ca        1 D7G     -0.128000
     34 C24        -1.1920    3.0450    3.2920 ca        1 D7G     -0.127500
     35 C25        -2.1620    2.4620    2.4790 ca        1 D7G     -0.119000
     36 HN1        -5.7680   -1.9920   -0.9410 hn        1 D7G      0.324500
     37 H3         -7.0730   -1.5230    1.7020 h1        1 D7G      0.121700
     38 H41        -9.2010   -2.4580    0.6500 hc        1 D7G      0.077200
     39 H42        -8.3590   -2.7090   -0.9540 hc        1 D7G      0.077200
     40 H51        -6.6650   -4.2760    0.1590 hc        1 D7G      0.077200
     41 H52        -7.4880   -4.0400    1.7750 hc        1 D7G      0.077200
     42 H6         -2.8090    0.0730    0.9560 h1        1 D7G      0.120700
     43 HN2        -1.5860    0.9970   -1.5880 hn        1 D7G      0.324500
     44 H8          0.4220    0.0780   -2.2250 h1        1 D7G      0.099700
     45 HN3         1.5870   -1.5440   -0.0170 hn        1 D7G      0.334500
     46 H101        3.6290    2.1880    0.7670 h1        1 D7G      0.070700
     47 H102        4.6960    1.3870   -0.4960 h1        1 D7G      0.070700
     48 H111        4.7290    0.1020    2.2780 h1        1 D7G      0.046700
     49 H112        5.4720    1.7770    2.1750 h1        1 D7G      0.046700
     50 H121        6.8250   -1.1510    2.3030 h1        1 D7G      0.044200
     51 H122        7.4970    0.5170    2.6620 h1        1 D7G      0.044200
     52 H131        8.3110   -0.4510   -0.0590 h1        1 D7G      0.043700
     53 H132        8.8570   -1.5970    1.2650 h1        1 D7G      0.043700
     54 H141       11.1400   -0.7400    0.7410 h1        1 D7G      0.033367
     55 H142       10.4690    0.5190   -0.4060 h1        1 D7G      0.033367
     56 H143       11.3790    1.0470    1.1010 h1        1 D7G      0.033367
     57 H151        1.0990   -2.3990   -2.8230 hc        1 D7G      0.066200
     58 H152       -0.2130   -2.9100   -1.6820 hc        1 D7G      0.066200
     59 H16        -1.7620   -1.2690   -3.0560 hc        1 D7G      0.052700
     60 H171        0.5360   -1.7000   -5.0910 hc        1 D7G      0.037367
     61 H172       -1.0820   -0.9560   -5.4240 hc        1 D7G      0.037367
     62 H173        0.0880   -0.1240   -4.3190 hc        1 D7G      0.037367
     63 H181       -1.9420   -3.7410   -3.0840 hc        1 D7G      0.037367
     64 H182       -2.1790   -3.0640   -4.7500 hc        1 D7G      0.037367
     65 H183       -0.6090   -3.8550   -4.3070 hc        1 D7G      0.037367
     66 H191       -3.3050    2.6580   -0.7270 hc        1 D7G      0.074200
     67 H192       -4.2100    2.1540    0.7680 hc        1 D7G      0.074200
     68 H21        -1.1830    3.7400   -0.5350 ha        1 D7G      0.136000
     69 H22         0.5470    4.7760    0.9200 ha        1 D7G      0.133500
     70 H23         0.5450    4.3360    3.3780 ha        1 D7G      0.131000
     71 H24        -1.1940    2.8480    4.3740 ha        1 D7G      0.133500
     72 H25        -2.9320    1.8080    2.9180 ha        1 D7G      0.136000
@<TRIPOS>BOND
     1    1    2 2   
     2    2    3 1   
     3    2    9 1   
     4    3    4 2   
     5    3    5 1   
     6    5    6 1   
     7    5   36 1   
     8    6    7 1   
     9    6    8 1   
    10    6   37 1   
    11    7    8 1   
    12    7   38 1   
    13    7   39 1   
    14    8   40 1   
    15    8   41 1   
    16    9   10 1   
    17    9   29 1   
    18    9   42 1   
    19   10   11 1   
    20   10   43 1   
    21   11   12 2   
    22   11   13 1   
    23   13   14 1   
    24   13   25 1   
    25   13   44 1   
    26   14   15 1   
    27   14   45 1   
    28   15   16 2   
    29   15   17 1   
    30   17   18 1   
    31   18   19 1   
    32   18   46 1   
    33   18   47 1   
    34   19   20 1   
    35   19   48 1   
    36   19   49 1   
    37   20   21 1   
    38   21   22 1   
    39   21   50 1   
    40   21   51 1   
    41   22   23 1   
    42   22   52 1   
    43   22   53 1   
    44   23   24 1   
    45   24   54 1   
    46   24   55 1   
    47   24   56 1   
    48   25   26 1   
    49   25   57 1   
    50   25   58 1   
    51   26   27 1   
    52   26   28 1   
    53   26   59 1   
    54   27   60 1   
    55   27   61 1   
    56   27   62 1   
    57   28   63 1   
    58   28   64 1   
    59   28   65 1   
    60   29   30 1   
    61   29   66 1   
    62   29   67 1   
    63   30   31 ar  
    64   30   35 ar  
    65   31   32 ar  
    66   31   68 1   
    67   32   33 ar  
    68   32   69 1   
    69   33   34 ar  
    70   33   70 1   
    71   34   35 ar  
    72   34   71 1   
    73   35   72 1   
@<TRIPOS>SUBSTRUCTURE
     1 D7G         1 TEMP              0 ****  ****    0 ROOT
