@<TRIPOS>MOLECULE
D7G
   75    76     1     0     0
SMALL
bcc


@<TRIPOS>ATOM
      1 O1         -0.0110    0.3740    0.2620 o         1 D7G     -0.432100
      2 C1          1.2030    0.2690    0.3960 c         1 D7G      0.498100
      3 C2          2.0940   -0.1880   -0.7570 c         1 D7G      0.442100
      4 O2          3.3070   -0.0580   -0.7610 o         1 D7G     -0.335100
      5 N1          1.4120   -0.8200   -1.9270 ny        1 D7G     -0.617800
      6 C3          1.9080   -0.2980   -3.2240 cx        1 D7G     -0.033500
      7 C4          1.2320   -0.7240   -4.5150 cx        1 D7G     -0.084900
      8 C5          1.0910    0.6860   -4.0360 cx        1 D7G     -0.084900
      9 C6          1.9590    0.5680    1.6830 c3        1 D7G      0.036500
     10 N2          1.1240    1.3020    2.7000 ny        1 D7G     -0.666800
     11 C7          0.9210    2.7620    2.4290 c         1 D7G      0.531100
     12 O3          1.4750    3.2640    1.4640 o         1 D7G     -0.393100
     13 C8          0.0050    3.5140    3.4110 c3        1 D7G      0.088500
     14 N3          0.6970    4.7440    3.9130 ny        1 D7G     -0.675800
     15 C9          1.9500    4.3960    4.6770 c         1 D7G      0.685100
     16 O4          2.3420    3.2350    4.6930 o         1 D7G     -0.485000
     17 O5          2.5610    5.4800    5.1750 os        1 D7G     -0.366900
     18 C10         2.9180    5.4140    6.5950 c3        1 D7G      0.150400
     19 C11         1.6570    5.6520    7.4150 c3        1 D7G      0.088400
     20 O6          0.6230    4.9060    6.7640 os        1 D7G     -0.518600
     21 C12        -0.6750    5.0940    7.3320 c3        1 D7G      0.124400
     22 C13        -1.3800    6.2910    6.7120 c3        1 D7G      0.090400
     23 O7         -1.5660    6.0110    5.3180 os        1 D7G     -0.524600
     24 C14        -2.3770    6.9960    4.6760 c3        1 D7G      0.110700
     25 C15        -1.3160    3.8490    2.7010 c3        1 D7G     -0.120400
     26 C16        -2.0750    2.5960    2.2840 c3        1 D7G     -0.066700
     27 C17        -2.4750    1.7430    3.4680 c3        1 D7G     -0.107600
     28 C18        -3.3100    3.0150    1.5050 c3        1 D7G     -0.107600
     29 C19         2.4790   -0.7690    2.2720 c3        1 D7G     -0.036100
     30 C20         3.1060   -0.5820    3.6040 ca        1 D7G     -0.202300
     31 C21         2.3610   -0.8290    4.7680 ca        1 D7G     -0.126000
     32 C22         2.9750   -0.7660    6.0160 ca        1 D7G     -0.105000
     33 C23         4.3350   -0.4580    6.1130 ca        1 D7G     -0.072000
     34 C24         5.0780   -0.2070    4.9590 ca        1 D7G     -0.105000
     35 C25         4.4670   -0.2700    3.7060 ca        1 D7G     -0.126000
     36 HN1         1.6020   -1.8370   -1.9110 hn        1 D7G      0.482800
     37 H3          3.0220   -0.2070   -3.1990 hx        1 D7G      0.167700
     38 H41         0.3490   -1.3930   -4.4950 hc        1 D7G      0.125200
     39 H42         1.8950   -0.9580   -5.3760 hc        1 D7G      0.125200
     40 H51         0.1040    1.0300   -3.6720 hc        1 D7G      0.125200
     41 H52         1.6430    1.5020   -4.5480 hc        1 D7G      0.125200
     42 H6          2.8520    1.2290    1.4360 hx        1 D7G      0.169700
     43 HN2         1.6220    1.2060    3.6200 hn        1 D7G      0.503800
     44 H8         -0.2180    2.8810    4.3280 hx        1 D7G      0.150700
     45 HN3         0.0530    5.2440    4.5890 hn        1 D7G      0.517800
     46 H101        3.3990    4.4270    6.8080 h1        1 D7G      0.124200
     47 H102        3.6510    6.2650    6.6830 h1        1 D7G      0.124200
     48 H111        1.8000    5.2730    8.4630 h1        1 D7G      0.091700
     49 H112        1.3830    6.7400    7.4360 h1        1 D7G      0.091700
     50 H121       -1.2150    4.1390    7.0910 h1        1 D7G      0.088700
     51 H122       -0.6110    5.2280    8.4440 h1        1 D7G      0.088700
     52 H131       -0.7720    7.2280    6.8130 h1        1 D7G      0.078200
     53 H132       -2.3800    6.4340    7.2030 h1        1 D7G      0.078200
     54 H141       -2.4380    6.6620    3.6110 h1        1 D7G      0.059700
     55 H142       -1.8970    8.0020    4.7520 h1        1 D7G      0.059700
     56 H143       -3.3950    7.0150    5.1400 h1        1 D7G      0.059700
     57 H151       -1.1150    4.4830    1.7960 hc        1 D7G      0.111200
     58 H152       -1.9600    4.4470    3.4110 hc        1 D7G      0.111200
     59 H16        -1.4170    1.9890    1.5950 hc        1 D7G      0.016700
     60 H171       -3.1400    0.9070    3.1310 hc        1 D7G      0.061533
     61 H172       -1.5820    1.2970    3.9710 hc        1 D7G      0.061533
     62 H173       -3.0440    2.3450    4.2190 hc        1 D7G      0.061533
     63 H181       -3.8570    2.1090    1.1440 hc        1 D7G      0.061533
     64 H182       -4.0040    3.6040    2.1530 hc        1 D7G      0.061533
     65 H183       -3.0300    3.6360    0.6210 hc        1 D7G      0.061533
     66 H191        1.6350   -1.5080    2.3380 hc        1 D7G      0.098200
     67 H192        3.2410   -1.1650    1.5440 hc        1 D7G      0.098200
     68 H21         1.3080   -1.1430    4.6980 ha        1 D7G      0.137500
     69 H22         2.3960   -0.9910    6.9280 ha        1 D7G      0.173000
     70 H23         4.8260   -0.4370    7.1020 ha        1 D7G      0.178000
     71 H24         6.1560    0.0170    5.0330 ha        1 D7G      0.173000
     72 H25         5.0700   -0.1060    2.7990 ha        1 D7G      0.137500
     73 H12         0.3930   -0.6740   -1.8590 hn        1 D7G      0.482800
     74 H221        0.1980    0.8490    2.7780 hn        1 D7G      0.503800
     75 H32         0.9180    5.3920    3.1450 hn        1 D7G      0.517800
@<TRIPOS>BOND
     1    1    2 2   
     2    2    3 1   
     3    2    9 1   
     4    3    4 2   
     5    3    5 1   
     6    5    6 1   
     7    5   36 1   
     8    5   73 1   
     9    6    7 1   
    10    6    8 1   
    11    6   37 1   
    12    7    8 1   
    13    7   38 1   
    14    7   39 1   
    15    8   40 1   
    16    8   41 1   
    17    9   10 1   
    18    9   29 1   
    19    9   42 1   
    20   10   11 1   
    21   10   43 1   
    22   10   74 1   
    23   11   12 2   
    24   11   13 1   
    25   13   14 1   
    26   13   25 1   
    27   13   44 1   
    28   14   15 1   
    29   14   45 1   
    30   14   75 1   
    31   15   16 2   
    32   15   17 1   
    33   17   18 1   
    34   18   19 1   
    35   18   46 1   
    36   18   47 1   
    37   19   20 1   
    38   19   48 1   
    39   19   49 1   
    40   20   21 1   
    41   21   22 1   
    42   21   50 1   
    43   21   51 1   
    44   22   23 1   
    45   22   52 1   
    46   22   53 1   
    47   23   24 1   
    48   24   54 1   
    49   24   55 1   
    50   24   56 1   
    51   25   26 1   
    52   25   57 1   
    53   25   58 1   
    54   26   27 1   
    55   26   28 1   
    56   26   59 1   
    57   27   60 1   
    58   27   61 1   
    59   27   62 1   
    60   28   63 1   
    61   28   64 1   
    62   28   65 1   
    63   29   30 1   
    64   29   66 1   
    65   29   67 1   
    66   30   31 ar  
    67   30   35 ar  
    68   31   32 ar  
    69   31   68 1   
    70   32   33 ar  
    71   32   69 1   
    72   33   34 ar  
    73   33   70 1   
    74   34   35 ar  
    75   34   71 1   
    76   35   72 1   
@<TRIPOS>SUBSTRUCTURE
     1 D7G         1 TEMP              0 ****  ****    0 ROOT
