@<TRIPOS>MOLECULE
D7G
   75    76     1     0     0
SMALL
bcc


@<TRIPOS>ATOM
      1 O1         -0.0930    0.3330    0.3160 o         1 D7G     -0.432100
      2 C1          1.1240    0.2230    0.4200 c         1 D7G      0.498100
      3 C2          1.9820   -0.2580   -0.7480 c         1 D7G      0.442100
      4 O2          3.1960   -0.1350   -0.7860 o         1 D7G     -0.335100
      5 N1          1.2660   -0.9060   -1.8890 n4        1 D7G     -0.617800
      6 C3          1.7310   -0.4070   -3.2060 cx        1 D7G     -0.033500
      7 C4          1.0180   -0.8500   -4.4730 cx        1 D7G     -0.084900
      8 C5          0.8970    0.5680   -4.0130 cx        1 D7G     -0.084900
      9 C6          1.9150    0.5390    1.6810 c3        1 D7G      0.036500
     10 N2          1.1110    1.2950    2.7070 n4        1 D7G     -0.666800
     11 C7          0.9080    2.7510    2.4170 c         1 D7G      0.531100
     12 O3          1.4380    3.2340    1.4280 o         1 D7G     -0.393100
     13 C8          0.0230    3.5250    3.4100 c3        1 D7G      0.088500
     14 N3          0.7340    4.7610    3.8720 n4        1 D7G     -0.675800
     15 C9          2.0060    4.4190    4.6060 c         1 D7G      0.685100
     16 O4          2.3930    3.2560    4.6320 o         1 D7G     -0.485000
     17 O5          2.6360    5.5090    5.0670 os        1 D7G     -0.366900
     18 C10         3.0320    5.4660    6.4780 c3        1 D7G      0.150400
     19 C11         1.7960    5.7270    7.3280 c3        1 D7G      0.088400
     20 O6          0.7410    4.9740    6.7190 os        1 D7G     -0.518600
     21 C12        -0.5400    5.1800    7.3200 c3        1 D7G      0.124400
     22 C13        -1.2570    6.3690    6.6980 c3        1 D7G      0.090400
     23 O7         -1.4830    6.0640    5.3150 os        1 D7G     -0.524600
     24 C14        -2.3080    7.0410    4.6780 c3        1 D7G      0.110700
     25 C15        -1.3150    3.8550    2.7310 c3        1 D7G     -0.120400
     26 C16        -2.0910    2.5990    2.3550 c3        1 D7G     -0.066700
     27 C17        -2.4630    1.7680    3.5640 c3        1 D7G     -0.107600
     28 C18        -3.3450    3.0100    1.6030 c3        1 D7G     -0.107600
     29 C19         2.4430   -0.7910    2.2800 c3        1 D7G     -0.036100
     30 C20         3.1050   -0.5850    3.5920 ca        1 D7G     -0.202300
     31 C21         2.3880   -0.8070    4.7780 ca        1 D7G     -0.126000
     32 C22         3.0350   -0.7270    6.0090 ca        1 D7G     -0.105000
     33 C23         4.3990   -0.4260    6.0670 ca        1 D7G     -0.072000
     34 C24         5.1130   -0.1990    4.8900 ca        1 D7G     -0.105000
     35 C25         4.4710   -0.2800    3.6540 ca        1 D7G     -0.126000
     36 HN1         1.4520   -1.9230   -1.8610 hn        1 D7G      0.482800
     37 H3          2.8450   -0.3220   -3.2120 hx        1 D7G      0.167700
     38 H41         0.1340   -1.5140   -4.4180 hc        1 D7G      0.125200
     39 H42         1.6570   -1.1010   -5.3470 hc        1 D7G      0.125200
     40 H51         1.4390    1.3730   -4.5530 hc        1 D7G      0.125200
     41 H52        -0.0790    0.9230   -3.6290 hc        1 D7G      0.125200
     42 H6          2.8050    1.1910    1.4010 hx        1 D7G      0.169700
     43 HN2         0.1850    0.8490    2.8180 hn        1 D7G      0.503800
     44 H8         -0.1780    2.9090    4.3440 hx        1 D7G      0.150700
     45 HN3         0.9360    5.3940    3.0870 hn        1 D7G      0.517800
     46 H101        3.7710    6.3140    6.5290 h1        1 D7G      0.124200
     47 H102        3.5140    4.4800    6.6960 h1        1 D7G      0.124200
     48 H111        1.9660    5.3660    8.3780 h1        1 D7G      0.091700
     49 H112        1.5280    6.8160    7.3360 h1        1 D7G      0.091700
     50 H121       -1.0910    4.2230    7.1120 h1        1 D7G      0.088700
     51 H122       -0.4450    5.3340    8.4280 h1        1 D7G      0.088700
     52 H131       -2.2420    6.5270    7.2150 h1        1 D7G      0.078200
     53 H132       -0.6410    7.3040    6.7650 h1        1 D7G      0.078200
     54 H141       -3.3120    7.0740    5.1700 h1        1 D7G      0.059700
     55 H142       -1.8210    8.0460    4.7220 h1        1 D7G      0.059700
     56 H143       -2.4000    6.6870    3.6220 h1        1 D7G      0.059700
     57 H151       -1.9370    4.4680    3.4470 hc        1 D7G      0.111200
     58 H152       -1.1360    4.4730    1.8090 hc        1 D7G      0.111200
     59 H16        -1.4550    1.9770    1.6590 hc        1 D7G      0.016700
     60 H171       -1.5590    1.3260    4.0510 hc        1 D7G      0.061533
     61 H172       -3.1400    0.9300    3.2600 hc        1 D7G      0.061533
     62 H173       -3.0090    2.3850    4.3200 hc        1 D7G      0.061533
     63 H181       -3.0860    3.6150    0.7010 hc        1 D7G      0.061533
     64 H182       -4.0180    3.6140    2.2590 hc        1 D7G      0.061533
     65 H183       -3.9050    2.1010    1.2720 hc        1 D7G      0.061533
     66 H191        3.1850   -1.2030    1.5390 hc        1 D7G      0.098200
     67 H192        1.5980   -1.5240    2.3800 hc        1 D7G      0.098200
     68 H21         1.3320   -1.1160    4.7400 ha        1 D7G      0.137500
     69 H22         2.4780   -0.9340    6.9390 ha        1 D7G      0.173000
     70 H23         4.9150   -0.3910    7.0420 ha        1 D7G      0.178000
     71 H24         6.1940    0.0190    4.9320 ha        1 D7G      0.173000
     72 H25         5.0510   -0.1340    2.7290 ha        1 D7G      0.137500
     73 H12         0.2500   -0.7530   -1.7960 hn        1 D7G      0.482800
     74 H221        1.6330    1.2120    3.6160 hn        1 D7G      0.503800
     75 H32         0.1120    5.2750    4.5560 hn        1 D7G      0.517800
@<TRIPOS>BOND
     1    1    2 2   
     2    2    3 1   
     3    2    9 1   
     4    3    4 2   
     5    3    5 1   
     6    5    6 1   
     7    5   36 1   
     8    5   73 1   
     9    6    7 1   
    10    6    8 1   
    11    6   37 1   
    12    7    8 1   
    13    7   38 1   
    14    7   39 1   
    15    8   40 1   
    16    8   41 1   
    17    9   10 1   
    18    9   29 1   
    19    9   42 1   
    20   10   11 1   
    21   10   43 1   
    22   10   74 1   
    23   11   12 2   
    24   11   13 1   
    25   13   14 1   
    26   13   25 1   
    27   13   44 1   
    28   14   15 1   
    29   14   45 1   
    30   14   75 1   
    31   15   16 2   
    32   15   17 1   
    33   17   18 1   
    34   18   19 1   
    35   18   46 1   
    36   18   47 1   
    37   19   20 1   
    38   19   48 1   
    39   19   49 1   
    40   20   21 1   
    41   21   22 1   
    42   21   50 1   
    43   21   51 1   
    44   22   23 1   
    45   22   52 1   
    46   22   53 1   
    47   23   24 1   
    48   24   54 1   
    49   24   55 1   
    50   24   56 1   
    51   25   26 1   
    52   25   57 1   
    53   25   58 1   
    54   26   27 1   
    55   26   28 1   
    56   26   59 1   
    57   27   60 1   
    58   27   61 1   
    59   27   62 1   
    60   28   63 1   
    61   28   64 1   
    62   28   65 1   
    63   29   30 1   
    64   29   66 1   
    65   29   67 1   
    66   30   31 ar  
    67   30   35 ar  
    68   31   32 ar  
    69   31   68 1   
    70   32   33 ar  
    71   32   69 1   
    72   33   34 ar  
    73   33   70 1   
    74   34   35 ar  
    75   34   71 1   
    76   35   72 1   
@<TRIPOS>SUBSTRUCTURE
     1 D7G         1 TEMP              0 ****  ****    0 ROOT
