@<TRIPOS>MOLECULE
D7G
   75    76     1     0     0
SMALL
bcc


@<TRIPOS>ATOM
      1 O1          0.0030   -0.3280   -0.2930 o         1 D7G     -0.432100
      2 C1          1.2210   -0.2550   -0.4110 c         1 D7G      0.498100
      3 C2          2.1070    0.1900    0.7510 c         1 D7G      0.442100
      4 O2          3.3170    0.0290    0.7730 o         1 D7G     -0.335100
      5 N1          1.4250    0.8500    1.9060 n4        1 D7G     -0.617800
      6 C3          1.8890    0.3260    3.2130 cx        1 D7G     -0.033500
      7 C4          1.2050    0.7800    4.4910 cx        1 D7G     -0.084900
      8 C5          1.0340   -0.6300    4.0220 cx        1 D7G     -0.084900
      9 C6          1.9870   -0.5850   -1.6840 c3        1 D7G      0.036500
     10 N2          1.1480   -1.3060   -2.7060 n4        1 D7G     -0.666800
     11 C7          0.9050   -2.7580   -2.4260 c         1 D7G      0.531100
     12 O3          1.4330   -3.2660   -1.4490 o         1 D7G     -0.393100
     13 C8         -0.0170   -3.4960   -3.4130 c3        1 D7G      0.088500
     14 N3          0.6500   -4.7480   -3.8970 n4        1 D7G     -0.675800
     15 C9          1.9220   -4.4370   -4.6460 c         1 D7G      0.685100
     16 O4          2.3430   -3.2860   -4.6670 o         1 D7G     -0.485000
     17 O5          2.5120   -5.5410   -5.1270 os        1 D7G     -0.366900
     18 C10         2.8890   -5.4960   -6.5430 c3        1 D7G      0.150400
     19 C11         1.6330   -5.7100   -7.3770 c3        1 D7G      0.088400
     20 O6          0.6100   -4.9330   -6.7460 os        1 D7G     -0.518600
     21 C12        -0.6850   -5.0940   -7.3290 c3        1 D7G      0.124400
     22 C13        -1.4280   -6.2670   -6.7080 c3        1 D7G      0.090400
     23 O7         -1.6250   -5.9700   -5.3200 os        1 D7G     -0.524600
     24 C14        -2.4690   -6.9290   -4.6800 c3        1 D7G      0.110700
     25 C15        -1.3550   -3.7920   -2.7190 c3        1 D7G     -0.120400
     26 C16        -2.0880   -2.5170   -2.3220 c3        1 D7G     -0.066700
     27 C17        -2.4510   -1.6640   -3.5190 c3        1 D7G     -0.107600
     28 C18        -3.3440   -2.8980   -1.5560 c3        1 D7G     -0.107600
     29 C19         2.5490    0.7340   -2.2770 c3        1 D7G     -0.036100
     30 C20         3.1890    0.5180   -3.5980 ca        1 D7G     -0.202300
     31 C21         2.4670    0.7730   -4.7750 ca        1 D7G     -0.126000
     32 C22         3.0970    0.6840   -6.0140 ca        1 D7G     -0.105000
     33 C23         4.4500    0.3400   -6.0890 ca        1 D7G     -0.072000
     34 C24         5.1700    0.0810   -4.9220 ca        1 D7G     -0.105000
     35 C25         4.5440    0.1710   -3.6780 ca        1 D7G     -0.126000
     36 HN1         1.6430    1.8610    1.8840 hn        1 D7G      0.482800
     37 H3          2.9990    0.2050    3.2060 hx        1 D7G      0.167700
     38 H41         0.3410    1.4720    4.4530 hc        1 D7G      0.125200
     39 H42         1.8610    1.0040    5.3600 hc        1 D7G      0.125200
     40 H51         1.5560   -1.4560    4.5490 hc        1 D7G      0.125200
     41 H52         0.0430   -0.9500    3.6470 hc        1 D7G      0.125200
     42 H6          2.8600   -1.2660   -1.4190 hx        1 D7G      0.169700
     43 HN2         0.2340   -0.8320   -2.8010 hn        1 D7G      0.503800
     44 H8         -0.2120   -2.8650   -4.3390 hx        1 D7G      0.150700
     45 HN3         0.8450   -5.3940   -3.1200 hn        1 D7G      0.517800
     46 H101        3.6010   -6.3650   -6.6140 h1        1 D7G      0.124200
     47 H102        3.3970   -4.5230   -6.7580 h1        1 D7G      0.124200
     48 H111        1.7990   -5.3430   -8.4260 h1        1 D7G      0.091700
     49 H112        1.3320   -6.7910   -7.3920 h1        1 D7G      0.091700
     50 H121       -0.6110   -5.2390   -8.4400 h1        1 D7G      0.088700
     51 H122       -1.2040   -4.1230   -7.1040 h1        1 D7G      0.088700
     52 H131       -0.8420   -7.2200   -6.7940 h1        1 D7G      0.078200
     53 H132       -2.4250   -6.3900   -7.2120 h1        1 D7G      0.078200
     54 H141       -2.0120   -7.9480   -4.7410 h1        1 D7G      0.059700
     55 H142       -2.5340   -6.5840   -3.6190 h1        1 D7G      0.059700
     56 H143       -3.4800   -6.9270   -5.1570 h1        1 D7G      0.059700
     57 H151       -1.1820   -4.4230   -1.8060 hc        1 D7G      0.111200
     58 H152       -2.0040   -4.3800   -3.4320 hc        1 D7G      0.111200
     59 H16        -1.4250   -1.9200   -1.6300 hc        1 D7G      0.016700
     60 H171       -3.0240   -2.2580   -4.2730 hc        1 D7G      0.061533
     61 H172       -1.5410   -1.2450   -4.0140 hc        1 D7G      0.061533
     62 H173       -3.0990   -0.8100   -3.1980 hc        1 D7G      0.061533
     63 H181       -3.0910   -3.5180   -0.6630 hc        1 D7G      0.061533
     64 H182       -3.8720   -1.9750   -1.2100 hc        1 D7G      0.061533
     65 H183       -4.0430   -3.4750   -2.2090 hc        1 D7G      0.061533
     66 H191        3.3110    1.1170   -1.5420 hc        1 D7G      0.098200
     67 H192        1.7260    1.4930   -2.3620 hc        1 D7G      0.098200
     68 H21         1.4220    1.1150   -4.7230 ha        1 D7G      0.137500
     69 H22         2.5370    0.9160   -6.9350 ha        1 D7G      0.173000
     70 H23         4.9540    0.2980   -7.0700 ha        1 D7G      0.178000
     71 H24         6.2430   -0.1710   -4.9790 ha        1 D7G      0.173000
     72 H25         5.1290   -0.0010   -2.7610 ha        1 D7G      0.137500
     73 H12         0.4040    0.7300    1.8230 hn        1 D7G      0.482800
     74 H221        1.6610   -1.2310   -3.6200 hn        1 D7G      0.503800
     75 H32         0.0040   -5.2370   -4.5760 hn        1 D7G      0.517800
@<TRIPOS>BOND
     1    1    2 2   
     2    2    3 1   
     3    2    9 1   
     4    3    4 2   
     5    3    5 1   
     6    5    6 1   
     7    5   36 1   
     8    5   73 1   
     9    6    7 1   
    10    6    8 1   
    11    6   37 1   
    12    7    8 1   
    13    7   38 1   
    14    7   39 1   
    15    8   40 1   
    16    8   41 1   
    17    9   10 1   
    18    9   29 1   
    19    9   42 1   
    20   10   11 1   
    21   10   43 1   
    22   10   74 1   
    23   11   12 2   
    24   11   13 1   
    25   13   14 1   
    26   13   25 1   
    27   13   44 1   
    28   14   15 1   
    29   14   45 1   
    30   14   75 1   
    31   15   16 2   
    32   15   17 1   
    33   17   18 1   
    34   18   19 1   
    35   18   46 1   
    36   18   47 1   
    37   19   20 1   
    38   19   48 1   
    39   19   49 1   
    40   20   21 1   
    41   21   22 1   
    42   21   50 1   
    43   21   51 1   
    44   22   23 1   
    45   22   52 1   
    46   22   53 1   
    47   23   24 1   
    48   24   54 1   
    49   24   55 1   
    50   24   56 1   
    51   25   26 1   
    52   25   57 1   
    53   25   58 1   
    54   26   27 1   
    55   26   28 1   
    56   26   59 1   
    57   27   60 1   
    58   27   61 1   
    59   27   62 1   
    60   28   63 1   
    61   28   64 1   
    62   28   65 1   
    63   29   30 1   
    64   29   66 1   
    65   29   67 1   
    66   30   31 ar  
    67   30   35 ar  
    68   31   32 ar  
    69   31   68 1   
    70   32   33 ar  
    71   32   69 1   
    72   33   34 ar  
    73   33   70 1   
    74   34   35 ar  
    75   34   71 1   
    76   35   72 1   
@<TRIPOS>SUBSTRUCTURE
     1 D7G         1 TEMP              0 ****  ****    0 ROOT
