@<TRIPOS>MOLECULE
D7N
   53    56     1     0     0
SMALL
bcc


@<TRIPOS>ATOM
      1 C25         0.1570    0.5660   -0.1400 c3        1 D7N     -0.080400
      2 C24         1.6460    0.7910   -0.0260 c3        1 D7N     -0.122900
      3 C23         2.1910    0.2870    1.3340 c3        1 D7N      0.406600
      4 F26         3.5460    0.5390    1.4470 f         1 D7N     -0.239300
      5 F27         2.1600   -1.0920    1.4230 f         1 D7N     -0.239300
      6 C22         1.4020    0.9610    2.4830 c3        1 D7N     -0.122900
      7 C21        -0.0830    0.7350    2.3330 c3        1 D7N     -0.080400
      8 C20        -0.5930    1.2910    0.9880 c3        1 D7N      0.192500
      9 N16        -2.0570    1.1910    0.9270 n3        1 D7N     -0.745600
     10 C15        -2.7030    2.3590    1.5080 c3        1 D7N      0.178800
     11 C14        -4.2190    2.2130    1.6140 c3        1 D7N     -0.096400
     12 C17        -2.6150    0.8340   -0.3630 c3        1 D7N      0.178800
     13 C18        -4.1330    0.6490   -0.3250 c3        1 D7N     -0.096400
     14 C13        -4.8080    1.9130    0.2270 c3        1 D7N      0.118700
     15 N10        -6.2580    1.8200    0.2400 n         1 D7N     -0.435800
     16 C9         -7.0900    2.6990   -0.5800 c3        1 D7N      0.121300
     17 C11        -7.0140    0.8880    0.9220 c         1 D7N      0.718100
     18 O12        -6.5770    0.0180    1.7050 o         1 D7N     -0.701500
     19 C7         -8.4660    1.1240    0.5770 ca        1 D7N     -0.142600
     20 C8         -8.5010    2.2200   -0.3260 ca        1 D7N     -0.056300
     21 C3         -9.6780    2.7100   -0.8560 ca        1 D7N     -0.093000
     22 C2        -10.8810    2.0690   -0.4790 ca        1 D7N      0.173900
     23 F5        -12.0560    2.5110   -0.9710 f         1 D7N     -0.092900
     24 C1        -10.8660    0.9690    0.3980 ca        1 D7N     -0.115000
     25 C4         -9.6540    0.4920    0.9350 ca        1 D7N     -0.104600
     26 C6         -9.8000   -0.6840    1.8070 c         1 D7N      0.567700
     27 O28       -10.7390   -1.4690    1.8310 o         1 D7N     -0.412100
     28 N19        -8.7230   -0.9730    2.8110 n4        1 D7N     -0.749400
     29 H251       -0.1790    0.9460   -1.1410 hc        1 D7N      0.058700
     30 H252       -0.0550   -0.5350   -0.0920 hc        1 D7N      0.058700
     31 H241        2.1760    0.2460   -0.8500 hc        1 D7N      0.072950
     32 H242        1.8950    1.8790   -0.1110 hc        1 D7N      0.072950
     33 H20        -0.2860    2.3840    0.9330 h1        1 D7N      0.031700
     34 H221        1.6450    2.0540    2.4690 hc        1 D7N      0.072950
     35 H222        1.7560    0.5380    3.4580 hc        1 D7N      0.072950
     36 H211       -0.6130    1.2330    3.1860 hc        1 D7N      0.058700
     37 H212       -0.3030   -0.3640    2.3900 hc        1 D7N      0.058700
     38 H151       -2.2890    2.5010    2.5460 h1        1 D7N      0.041950
     39 H152       -2.4750    3.2990    0.9190 h1        1 D7N      0.041950
     40 H171       -2.3710    1.6000   -1.1580 h1        1 D7N      0.041950
     41 H172       -2.1660   -0.1510   -0.6800 h1        1 D7N      0.041950
     42 H141       -4.6380    3.1680    2.0220 hc        1 D7N      0.062950
     43 H142       -4.4790    1.3820    2.3210 hc        1 D7N      0.062950
     44 H13        -4.5580    2.7800   -0.4600 h1        1 D7N      0.068700
     45 H181       -4.3970   -0.2290    0.3220 hc        1 D7N      0.062950
     46 H182       -4.4860    0.4380   -1.3670 hc        1 D7N      0.062950
     47 H91        -6.9570    3.7710   -0.2610 h1        1 D7N      0.098700
     48 H92        -6.8170    2.6020   -1.6680 h1        1 D7N      0.098700
     49 H3         -9.6980    3.5640   -1.5530 ha        1 D7N      0.190000
     50 H1        -11.8210    0.4740    0.6550 ha        1 D7N      0.192000
     51 H191       -8.3750   -0.1020    3.2290 hn        1 D7N      0.482133
     52 H192       -7.9140   -1.4090    2.3270 hn        1 D7N      0.482133
     53 H193       -9.0690   -1.6070    3.5380 hn        1 D7N      0.482133
@<TRIPOS>BOND
     1    1    2 1   
     2    1    8 1   
     3    1   29 1   
     4    1   30 1   
     5    2    3 1   
     6    2   31 1   
     7    2   32 1   
     8    3    4 1   
     9    3    5 1   
    10    3    6 1   
    11    6    7 1   
    12    6   34 1   
    13    6   35 1   
    14    7    8 1   
    15    7   36 1   
    16    7   37 1   
    17    8    9 1   
    18    8   33 1   
    19    9   10 1   
    20    9   12 1   
    21   10   11 1   
    22   10   38 1   
    23   10   39 1   
    24   11   14 1   
    25   11   42 1   
    26   11   43 1   
    27   12   13 1   
    28   12   40 1   
    29   12   41 1   
    30   13   14 1   
    31   13   45 1   
    32   13   46 1   
    33   14   15 1   
    34   14   44 1   
    35   15   16 1   
    36   15   17 1   
    37   16   20 1   
    38   16   47 1   
    39   16   48 1   
    40   17   18 2   
    41   17   19 1   
    42   19   20 ar  
    43   19   25 ar  
    44   20   21 ar  
    45   21   22 ar  
    46   21   49 1   
    47   22   23 1   
    48   22   24 ar  
    49   24   25 ar  
    50   24   50 1   
    51   25   26 1   
    52   26   27 2   
    53   26   28 1   
    54   28   51 1   
    55   28   52 1   
    56   28   53 1   
@<TRIPOS>SUBSTRUCTURE
     1 D7N         1 TEMP              0 ****  ****    0 ROOT
