@<TRIPOS>MOLECULE
D7N
   53    56     1     0     0
SMALL
bcc


@<TRIPOS>ATOM
      1 C25         0.0910    0.4130   -0.3510 c3        1 D7N     -0.080400
      2 C24         1.5890    0.6070   -0.3160 c3        1 D7N     -0.122900
      3 C23         2.1860    0.1430    1.0360 c3        1 D7N      0.406600
      4 F26         3.5510    0.3670    1.0760 f         1 D7N     -0.239300
      5 F27         2.1290   -1.2300    1.1810 f         1 D7N     -0.239300
      6 C22         1.4680    0.8800    2.1930 c3        1 D7N     -0.122900
      7 C21        -0.0260    0.6830    2.1230 c3        1 D7N     -0.080400
      8 C20        -0.5880    1.1980    0.7820 c3        1 D7N      0.192500
      9 N16        -2.0550    1.1310    0.7940 n3        1 D7N     -0.745600
     10 C15        -2.6470    2.3390    1.3490 c3        1 D7N      0.178800
     11 C14        -4.1600    2.2330    1.5330 c3        1 D7N     -0.095900
     12 C17        -2.6830    0.7280   -0.4500 c3        1 D7N      0.178800
     13 C18        -4.2000    0.5770   -0.3290 c3        1 D7N     -0.095900
     14 C13        -4.8220    1.8810    0.1920 c3        1 D7N      0.119700
     15 N10        -6.2700    1.8190    0.2760 n         1 D7N     -0.435800
     16 C9         -7.1230    2.7480   -0.4630 c3        1 D7N      0.121300
     17 C11        -7.0110    0.9660    1.0710 c         1 D7N      0.718100
     18 O12        -6.5550    0.0620    1.8040 o         1 D7N     -0.701500
     19 C7         -8.4710    1.3020    0.8800 ca        1 D7N     -0.143600
     20 C8         -8.5280    2.3760   -0.0500 ca        1 D7N     -0.056300
     21 C3         -9.7180    2.9450   -0.4550 ca        1 D7N     -0.094000
     22 C2        -10.9130    2.4290    0.1000 ca        1 D7N      0.173900
     23 F5        -12.1000    2.9530   -0.2650 f         1 D7N     -0.092900
     24 C1        -10.8770    1.3790    1.0370 ca        1 D7N     -0.115000
     25 C4         -9.6510    0.8060    1.4290 ca        1 D7N     -0.104600
     26 C6         -9.7730   -0.2560    2.4390 c         1 D7N      0.567700
     27 O28       -10.7080   -0.4340    3.2100 o         1 D7N     -0.412100
     28 N19        -8.6750   -1.2710    2.5500 nz        1 D7N     -0.749400
     29 H251       -0.2850    0.7600   -1.3490 hc        1 D7N      0.058700
     30 H252       -0.1410   -0.6810   -0.2480 hc        1 D7N      0.058700
     31 H241        2.0670    0.0190   -1.1410 hc        1 D7N      0.072700
     32 H242        1.8560    1.6850   -0.4550 hc        1 D7N      0.072700
     33 H20        -0.2610    2.2800    0.6680 h1        1 D7N      0.031700
     34 H221        1.8590    0.4860    3.1670 hc        1 D7N      0.072700
     35 H222        1.7340    1.9650    2.1240 hc        1 D7N      0.072700
     36 H211       -0.5040    1.2270    2.9780 hc        1 D7N      0.058700
     37 H212       -0.2680   -0.4070    2.2340 hc        1 D7N      0.058700
     38 H151       -2.4280    3.2450    0.7080 h1        1 D7N      0.041950
     39 H152       -2.1820    2.5170    2.3600 h1        1 D7N      0.041950
     40 H171       -2.2690   -0.2790   -0.7430 h1        1 D7N      0.041950
     41 H172       -2.4640    1.4520   -1.2900 h1        1 D7N      0.041950
     42 H141       -4.5380    3.2160    1.9140 hc        1 D7N      0.063200
     43 H142       -4.4030    1.4440    2.2920 hc        1 D7N      0.063200
     44 H13        -4.5880    2.7070   -0.5480 h1        1 D7N      0.068700
     45 H181       -4.6080    0.3250   -1.3410 hc        1 D7N      0.063200
     46 H182       -4.4490   -0.2630    0.3720 hc        1 D7N      0.063200
     47 H91        -6.8850    3.8120   -0.1830 h1        1 D7N      0.098200
     48 H92        -6.9730    2.6170   -1.5710 h1        1 D7N      0.098200
     49 H3         -9.7570    3.7750   -1.1800 ha        1 D7N      0.190000
     50 H1        -11.8250    1.0140    1.4710 ha        1 D7N      0.191000
     51 H191       -8.3170   -1.5200    1.6200 hn        1 D7N      0.482133
     52 H192       -7.8770   -0.8550    3.0690 hn        1 D7N      0.482133
     53 H193       -9.0040   -2.1070    3.0430 hn        1 D7N      0.482133
@<TRIPOS>BOND
     1    1    2 1   
     2    1    8 1   
     3    1   29 1   
     4    1   30 1   
     5    2    3 1   
     6    2   31 1   
     7    2   32 1   
     8    3    4 1   
     9    3    5 1   
    10    3    6 1   
    11    6    7 1   
    12    6   34 1   
    13    6   35 1   
    14    7    8 1   
    15    7   36 1   
    16    7   37 1   
    17    8    9 1   
    18    8   33 1   
    19    9   10 1   
    20    9   12 1   
    21   10   11 1   
    22   10   38 1   
    23   10   39 1   
    24   11   14 1   
    25   11   42 1   
    26   11   43 1   
    27   12   13 1   
    28   12   40 1   
    29   12   41 1   
    30   13   14 1   
    31   13   45 1   
    32   13   46 1   
    33   14   15 1   
    34   14   44 1   
    35   15   16 1   
    36   15   17 1   
    37   16   20 1   
    38   16   47 1   
    39   16   48 1   
    40   17   18 2   
    41   17   19 1   
    42   19   20 ar  
    43   19   25 ar  
    44   20   21 ar  
    45   21   22 ar  
    46   21   49 1   
    47   22   23 1   
    48   22   24 ar  
    49   24   25 ar  
    50   24   50 1   
    51   25   26 1   
    52   26   27 2   
    53   26   28 1   
    54   28   51 1   
    55   28   52 1   
    56   28   53 1   
@<TRIPOS>SUBSTRUCTURE
     1 D7N         1 TEMP              0 ****  ****    0 ROOT
