@<TRIPOS>MOLECULE
D7P
   51    48     1     0     0
SMALL
bcc


@<TRIPOS>ATOM
      1 N1'        -2.6040   -0.6100    1.4390 n         1 D7P     -0.425000
      2 N'          3.4800   -2.2910    0.1950 n3        1 D7P     -0.316000
      3 CA'         2.7840   -1.5620    1.1950 c3        1 D7P     -0.029000
      4 C'          1.3070   -1.4360    0.8010 c2        1 D7P      0.256000
      5 O'          0.5680   -2.4050    0.8830 o         1 D7P     -0.397000
      6 CB'         2.8900   -2.2860    2.5240 c3        1 D7P     -0.115000
      7 CG'         4.2980   -2.8330    2.6990 c2        1 D7P     -0.079000
      8 CD1         4.5580   -4.2040    2.4610 c2        1 D7P     -0.101000
      9 CE1         5.8540   -4.7180    2.6430 c1        1 D7P     -0.130000
     10 CZ'         6.8950   -3.8710    3.0630 c1        1 D7P     -0.128000
     11 CE2         6.6380   -2.5000    3.3010 c1        1 D7P     -0.128000
     12 CD2         5.3330   -1.9840    3.1170 c1        1 D7P     -0.129000
     13 N           0.7950   -0.1700    0.2910 n         1 D7P     -0.371000
     14 CA         -0.6000   -0.0100    0.0450 c3        1 D7P      0.011000
     15 C          -1.3280    0.0020    1.3390 c2        1 D7P      0.276000
     16 O          -0.8390    0.5960    2.3260 o         1 D7P     -0.382000
     17 CB         -0.8330    1.2950   -0.6760 c3        1 D7P     -0.159000
     18 CG         -1.6470    1.0320   -1.9780 c3        1 D7P     -0.169000
     19 CD         -2.3810    2.3440   -2.4070 c3        1 D7P     -0.055000
     20 NE         -3.6790    2.0170   -2.9310 n3        1 D7P     -0.319000
     21 CZ         -4.6020    3.0590   -3.2520 c2        1 D7P      0.136000
     22 NH1        -5.9110    3.0240   -2.7290 n3        1 D7P     -0.263000
     23 NH2        -4.2300    4.0540   -4.0420 n1        1 D7P     -0.336000
     24 NO         -6.6670    4.2220   -2.6290 n3        1 D7P      0.188000
     25 O2         -7.1220    4.5950   -3.9060 oh        1 D7P     -0.296000
     26 O3         -5.8530    5.2460   -2.1020 oh        1 D7P     -0.296000
     27 H1'1       -2.9850   -0.9870    0.7090 hn        1 D7P      0.238000
     28 H1'2       -3.0200   -0.6590    2.2420 hn        1 D7P      0.238000
     29 HN'1        4.0880   -1.7460   -0.2100 hn        1 D7P      0.158500
     30 HN'2        2.8790   -2.6030   -0.4340 hn        1 D7P      0.158500
     31 HA'         3.1820   -0.6600    1.2790 h1        1 D7P      0.121000
     32 HB'1        2.2610   -3.0100    2.5450 hc        1 D7P      0.097000
     33 HB'2        2.6920   -1.6590    3.2530 hc        1 D7P      0.097000
     34 HD1         3.8250   -4.8040    2.1650 ha        1 D7P      0.140000
     35 HE1         6.0350   -5.6820    2.4770 ha        1 D7P      0.133000
     36 HZ'         7.7950   -4.2300    3.1880 ha        1 D7P      0.132000
     37 HE2         7.3710   -1.9020    3.5960 ha        1 D7P      0.132000
     38 HD2         5.1550   -1.0480    3.2800 ha        1 D7P      0.125000
     39 HN          1.3920    0.5560    0.1350 hn        1 D7P      0.234000
     40 HA         -0.9220   -0.7520   -0.5050 h1        1 D7P      0.130000
     41 HB1        -1.3320    1.9010   -0.0980 hc        1 D7P      0.101500
     42 HB2         0.0130    1.6920   -0.9000 hc        1 D7P      0.101500
     43 HG1        -2.3160    0.3200   -1.8110 hc        1 D7P      0.100500
     44 HG2        -1.0330    0.7440   -2.7000 hc        1 D7P      0.100500
     45 HD1A       -2.4800    2.9230   -1.6390 h1        1 D7P      0.080500
     46 HD2A       -1.8500    2.8080   -3.1050 h1        1 D7P      0.080500
     47 HNE        -3.9470    1.1250   -2.9850 hn        1 D7P      0.206000
     48 HH1        -6.2510    2.2270   -2.3800 hn        1 D7P      0.211000
     49 HH2        -3.3910    4.0750   -4.3770 DU        1 D7P      0.156000
     50 HO2        -7.9280    5.0030   -3.8330 ho        1 D7P      0.243000
     51 HO3        -6.3370    5.7610   -1.5620 ho        1 D7P      0.243000
@<TRIPOS>BOND
     1    1   15 1   
     2    1   27 1   
     3    1   28 1   
     4    2    3 1   
     5    2   29 1   
     6    2   30 1   
     7    3    4 1   
     8    3    6 1   
     9    3   31 1   
    10    4    5 1   
    11    4   13 1   
    12    6    7 1   
    13    6   32 1   
    14    6   33 1   
    15    7    8 1   
    16    7   12 1   
    17    8    9 1   
    18    8   34 1   
    19    9   35 1   
    20   10   11 1   
    21   10   36 1   
    22   11   37 1   
    23   12   38 1   
    24   13   14 1   
    25   13   39 1   
    26   14   15 1   
    27   14   17 1   
    28   14   40 1   
    29   15   16 1   
    30   17   18 1   
    31   17   41 1   
    32   17   42 1   
    33   18   19 1   
    34   18   43 1   
    35   18   44 1   
    36   19   20 1   
    37   19   45 1   
    38   19   46 1   
    39   20   21 1   
    40   20   47 1   
    41   21   22 1   
    42   21   23 1   
    43   22   24 1   
    44   22   48 1   
    45   24   25 1   
    46   24   26 1   
    47   25   50 1   
    48   26   51 1   
@<TRIPOS>SUBSTRUCTURE
     1 D7P         1 TEMP              0 ****  ****    0 ROOT
