@<TRIPOS>MOLECULE
D7P
   51    51     1     0     0
SMALL
bcc


@<TRIPOS>ATOM
      1 N1'        -0.7950   -4.6150   -0.8840 n         1 D7P     -0.666000
      2 N'         -2.5630    1.7060    1.1500 n3        1 D7P     -0.899800
      3 CA'        -2.8640    0.6190    0.2440 c3        1 D7P      0.113500
      4 O'         -1.8580   -1.0880    1.6520 o         1 D7P     -0.616100
      5 CB'        -4.2960    0.0460    0.3170 c3        1 D7P     -0.079100
      6 CG'        -5.3140    1.0900    0.0300 ca        1 D7P     -0.088300
      7 CD1        -5.7410    1.3190   -1.2830 ca        1 D7P     -0.128500
      8 CE1        -6.7000    2.2950   -1.5500 ca        1 D7P     -0.125500
      9 CZ'        -7.2400    3.0500   -0.5090 ca        1 D7P     -0.128000
     10 CE2        -6.8200    2.8250    0.8020 ca        1 D7P     -0.125500
     11 CD2        -5.8610    1.8490    1.0710 ca        1 D7P     -0.128500
     12 N          -1.1330   -1.0090   -0.5270 n         1 D7P     -0.546900
     13 CA         -0.3270   -2.1990   -0.4360 c3        1 D7P      0.036700
     14 C          -0.9060   -3.3260   -1.3290 c         1 D7P      0.632100
     15 O          -1.4320   -3.0770   -2.4340 o         1 D7P     -0.620100
     16 CB          1.1270   -1.9890   -0.8930 c3        1 D7P     -0.083400
     17 CG          1.8790   -1.0710    0.0450 c3        1 D7P     -0.092400
     18 CD          3.3410   -0.9810   -0.3970 c3        1 D7P      0.186800
     19 NE          4.1320   -0.1590    0.4990 nh        1 D7P     -0.789200
     20 CZ          5.4820    0.1170    0.1010 c2        1 D7P      0.759100
     21 NH1         6.0680    1.1970    0.9220 nh        1 D7P     -0.665000
     22 NH2         6.0610   -0.5580   -0.8500 n2        1 D7P     -0.847100
     23 NO          7.2870    1.7200    0.4870 n3        1 D7P      0.067600
     24 O2          7.6620    2.6920    1.3540 oh        1 D7P     -0.469800
     25 O3          8.2530    0.7840    0.6560 oh        1 D7P     -0.469800
     26 H1'1       -0.4300   -4.8170    0.0110 hn        1 D7P      0.315000
     27 H1'2       -1.1590   -5.3560   -1.4310 hn        1 D7P      0.315000
     28 HN'2       -2.4680    1.3690    2.0900 hn        1 D7P      0.364300
     29 HA'        -2.7100    1.0250   -0.8000 h1        1 D7P      0.073700
     30 HB'1       -4.3810   -0.7870   -0.4300 hc        1 D7P      0.067200
     31 HB'2       -4.4640   -0.3950    1.3360 hc        1 D7P      0.067200
     32 HD1        -5.3200    0.7230   -2.1070 ha        1 D7P      0.132500
     33 HE1        -7.0310    2.4690   -2.5850 ha        1 D7P      0.133500
     34 HZ'        -7.9960    3.8200   -0.7210 ha        1 D7P      0.133000
     35 HE2        -7.2460    3.4160    1.6250 ha        1 D7P      0.133500
     36 HD2        -5.5400    1.6680    2.1080 ha        1 D7P      0.132500
     37 HN         -1.2980   -0.6610   -1.4440 hn        1 D7P      0.327500
     38 HA         -0.3200   -2.5270    0.6490 h1        1 D7P      0.099700
     39 HB1         1.6270   -2.9930   -0.9190 hc        1 D7P      0.059200
     40 HB2         1.1450   -1.5760   -1.9360 hc        1 D7P      0.059200
     41 HG1         1.4110   -0.0520    0.0410 hc        1 D7P      0.056700
     42 HG2         1.8150   -1.4640    1.0940 hc        1 D7P      0.056700
     43 HD1A        3.7930   -2.0140   -0.3980 h1        1 D7P      0.053200
     44 HD2A        3.3720   -0.5980   -1.4580 h1        1 D7P      0.053200
     45 HNE         3.6420    0.6660    0.7890 hn        1 D7P      0.400800
     46 HH1         6.0700    0.9370    1.9010 hn        1 D7P      0.399800
     47 HH2         7.0320   -0.3960   -0.9970 hn        1 D7P      0.416400
     48 HO2         7.2830    3.5190    1.0020 ho        1 D7P      0.447000
     49 HO3         9.1040    1.2130    0.4550 ho        1 D7P      0.447000
     50 C'         -1.9170   -0.5700    0.5190 c         1 D7P      0.663100
     51 HN'1       -3.2970    2.3890    1.1140 hn        1 D7P      0.364300
@<TRIPOS>BOND
     1    1   14 1   
     2    1   26 1   
     3    1   27 1   
     4    2    3 1   
     5    2   28 1   
     6    2   51 1   
     7    3    5 1   
     8    3   29 1   
     9    3   50 1   
    10    4   50 2   
    11    5    6 1   
    12    5   30 1   
    13    5   31 1   
    14    6    7 ar  
    15    6   11 ar  
    16    7    8 ar  
    17    7   32 1   
    18    8    9 ar  
    19    8   33 1   
    20    9   10 ar  
    21    9   34 1   
    22   10   11 ar  
    23   10   35 1   
    24   11   36 1   
    25   12   13 1   
    26   12   37 1   
    27   12   50 1   
    28   13   14 1   
    29   13   16 1   
    30   13   38 1   
    31   14   15 2   
    32   16   17 1   
    33   16   39 1   
    34   16   40 1   
    35   17   18 1   
    36   17   41 1   
    37   17   42 1   
    38   18   19 1   
    39   18   43 1   
    40   18   44 1   
    41   19   20 1   
    42   19   45 1   
    43   20   21 1   
    44   20   22 2   
    45   21   23 1   
    46   21   46 1   
    47   22   47 1   
    48   23   24 1   
    49   23   25 1   
    50   24   48 1   
    51   25   49 1   
@<TRIPOS>SUBSTRUCTURE
     1 D7P         1 TEMP              0 ****  ****    0 ROOT
