@<TRIPOS>MOLECULE
D7S
   71    74     1     0     0
SMALL
bcc


@<TRIPOS>ATOM
      1 O3          0.4040   -0.1060    0.8500 o         1 D7S     -0.847800
      2 C27         1.6460   -0.2150    0.6400 c         1 D7S      0.913600
      3 O2          2.4680   -0.6350    1.5040 o         1 D7S     -0.847800
      4 C25         2.1680    0.1530   -0.7750 c3        1 D7S     -0.187700
      5 C26         1.5200    1.4310   -1.2500 c3        1 D7S     -0.065100
      6 C24         3.6800    0.2430   -0.8000 c3        1 D7S     -0.066400
      7 C23         4.2460    0.0850   -2.1970 c3        1 D7S     -0.078400
      8 C22         5.7580    0.1810   -2.1880 c3        1 D7S     -0.079400
      9 C20         6.3590    0.0020   -3.5810 c3        1 D7S     -0.058700
     10 C21         6.2360    1.3020   -4.3530 c3        1 D7S     -0.089100
     11 C17         7.8090   -0.4580   -3.4780 c3        1 D7S     -0.050700
     12 C16         7.9370   -1.7970   -2.7230 c3        1 D7S     -0.080400
     13 C15         9.0540   -2.6050   -3.3880 c3        1 D7S     -0.072400
     14 C14         9.7230   -1.6190   -4.3340 c3        1 D7S     -0.037500
     15 C8         10.5520   -2.1010   -5.4660 c2        1 D7S     -0.081400
     16 C7         10.9000   -3.3850   -5.6290 c2        1 D7S     -0.188200
     17 C6         11.8360   -3.8480   -6.6780 c3        1 D7S     -0.037200
     18 C13         8.5580   -0.7100   -4.8080 c3        1 D7S     -0.041000
     19 C18         7.6630   -1.4340   -5.7990 c3        1 D7S     -0.081100
     20 C12         9.2050    0.5090   -5.4460 c3        1 D7S     -0.067400
     21 C11        10.0660    0.0970   -6.6270 c3        1 D7S     -0.071400
     22 C9         11.0970   -0.9870   -6.3180 c3        1 D7S     -0.015500
     23 C10        11.7740   -1.5100   -7.6080 c3        1 D7S     -0.040000
     24 C1         12.6580   -0.3970   -8.1800 c3        1 D7S     -0.068400
     25 C19        10.7370   -1.9310   -8.6390 c3        1 D7S     -0.086100
     26 C5         12.6740   -2.6960   -7.2170 c3        1 D7S     -0.051700
     27 C4         13.5550   -3.1880   -8.3520 c3        1 D7S     -0.179400
     28 C3         14.3040   -2.0730   -9.0220 c         1 D7S      0.573100
     29 O1         15.5020   -2.1660   -9.3120 o         1 D7S     -0.542100
     30 C2         13.4920   -0.8560   -9.3560 c3        1 D7S     -0.181400
     31 H2          1.8410   -0.6880   -1.4470 hc        1 D7S      0.027700
     32 H3          1.7430    1.6210   -2.3290 hc        1 D7S      0.015033
     33 H4          0.4130    1.3580   -1.1120 hc        1 D7S      0.015033
     34 H5          1.8890    2.3030   -0.6570 hc        1 D7S      0.015033
     35 H6          4.0050    1.2280   -0.3730 hc        1 D7S      0.048200
     36 H7          4.0940   -0.5570   -0.1280 hc        1 D7S      0.048200
     37 H8          3.8160    0.8730   -2.8700 hc        1 D7S      0.026700
     38 H9          3.9380   -0.9090   -2.6150 hc        1 D7S      0.026700
     39 H10         6.1580   -0.6010   -1.4900 hc        1 D7S      0.039700
     40 H11         6.0700    1.1770   -1.7750 hc        1 D7S      0.039700
     41 H12         5.7690   -0.7910   -4.1210 hc        1 D7S      0.049700
     42 H13         6.3730    1.1310   -5.4470 hc        1 D7S      0.029700
     43 H14         5.2230    1.7480   -4.1970 hc        1 D7S      0.029700
     44 H15         7.0010    2.0390   -4.0080 hc        1 D7S      0.029700
     45 H16         8.3770    0.3320   -2.9110 hc        1 D7S      0.044700
     46 H17         8.1760   -1.6090   -1.6470 hc        1 D7S      0.051700
     47 H18         6.9740   -2.3640   -2.7630 hc        1 D7S      0.051700
     48 H19         8.6290   -3.4740   -3.9490 hc        1 D7S      0.040200
     49 H20         9.7770   -3.0030   -2.6360 hc        1 D7S      0.040200
     50 H21        10.4120   -0.9780   -3.7030 hc        1 D7S      0.052700
     51 H22        10.5020   -4.1700   -4.9670 ha        1 D7S      0.129000
     52 H23        12.5180   -4.6340   -6.2570 hc        1 D7S      0.046200
     53 H24        11.2560   -4.3250   -7.5150 hc        1 D7S      0.046200
     54 H25         7.0870   -2.2390   -5.2820 hc        1 D7S      0.036033
     55 H26         8.2720   -1.9070   -6.6080 hc        1 D7S      0.036033
     56 H27         6.9410   -0.7210   -6.2650 hc        1 D7S      0.036033
     57 H28         8.4220    1.2280   -5.8010 hc        1 D7S      0.044200
     58 H29         9.8290    1.0440   -4.6840 hc        1 D7S      0.044200
     59 H30         9.3840   -0.2470   -7.4490 hc        1 D7S      0.039200
     60 H31        10.6110    1.0030   -7.0050 hc        1 D7S      0.039200
     61 H32        11.9080   -0.5020   -5.6930 hc        1 D7S      0.050700
     62 H33        12.0120    0.4590   -8.5100 hc        1 D7S      0.049200
     63 H34        13.3370   -0.0150   -7.3720 hc        1 D7S      0.049200
     64 H35        11.1940   -2.5910   -9.4150 hc        1 D7S      0.038033
     65 H36         9.9070   -2.4900   -8.1420 hc        1 D7S      0.038033
     66 H37        10.3100   -1.0380   -9.1570 hc        1 D7S      0.038033
     67 H38        13.3510   -2.3380   -6.3890 hc        1 D7S      0.056700
     68 H39        14.2820   -3.9450   -7.9520 hc        1 D7S      0.068200
     69 H40        12.9370   -3.7040   -9.1360 hc        1 D7S      0.068200
     70 H41        12.8230   -1.1160  -10.2200 hc        1 D7S      0.067200
     71 H42        14.1690   -0.0250   -9.6870 hc        1 D7S      0.067200
@<TRIPOS>BOND
     1    1    2 1   
     2    2    3 1   
     3    2    4 1   
     4    4    5 1   
     5    4    6 1   
     6    4   31 1   
     7    5   32 1   
     8    5   33 1   
     9    5   34 1   
    10    6    7 1   
    11    6   35 1   
    12    6   36 1   
    13    7    8 1   
    14    7   37 1   
    15    7   38 1   
    16    8    9 1   
    17    8   39 1   
    18    8   40 1   
    19    9   10 1   
    20    9   11 1   
    21    9   41 1   
    22   10   42 1   
    23   10   43 1   
    24   10   44 1   
    25   11   12 1   
    26   11   18 1   
    27   11   45 1   
    28   12   13 1   
    29   12   46 1   
    30   12   47 1   
    31   13   14 1   
    32   13   48 1   
    33   13   49 1   
    34   14   15 1   
    35   14   18 1   
    36   14   50 1   
    37   15   16 2   
    38   15   22 1   
    39   16   17 1   
    40   16   51 1   
    41   17   26 1   
    42   17   52 1   
    43   17   53 1   
    44   18   19 1   
    45   18   20 1   
    46   19   54 1   
    47   19   55 1   
    48   19   56 1   
    49   20   21 1   
    50   20   57 1   
    51   20   58 1   
    52   21   22 1   
    53   21   59 1   
    54   21   60 1   
    55   22   23 1   
    56   22   61 1   
    57   23   24 1   
    58   23   25 1   
    59   23   26 1   
    60   24   30 1   
    61   24   62 1   
    62   24   63 1   
    63   25   64 1   
    64   25   65 1   
    65   25   66 1   
    66   26   27 1   
    67   26   67 1   
    68   27   28 1   
    69   27   68 1   
    70   27   69 1   
    71   28   29 2   
    72   28   30 1   
    73   30   70 1   
    74   30   71 1   
@<TRIPOS>SUBSTRUCTURE
     1 D7S         1 TEMP              0 ****  ****    0 ROOT
