@<TRIPOS>MOLECULE
D7S
   71    70     1     0     0
SMALL
bcc


@<TRIPOS>ATOM
      1 O3         -7.2330    1.9890    3.0340 o         1 D7S     -0.583500
      2 C27        -6.4340    2.5370    3.8370 c1        1 D7S      0.332000
      3 O2         -6.4320    2.1990    5.0590 o         1 D7S     -0.583500
      4 C25        -5.4520    3.5560    3.3390 c2        1 D7S     -0.181000
      5 C26        -5.7170    4.8930    4.0220 c3        1 D7S     -0.182000
      6 C24        -4.0320    3.0960    3.6600 c3        1 D7S     -0.129000
      7 C23        -3.3280    2.6600    2.3670 c3        1 D7S     -0.169000
      8 C22        -1.9770    1.9900    2.7150 c3        1 D7S     -0.154000
      9 C20        -1.1340    1.7380    1.3540 c3        1 D7S     -0.100000
     10 C21        -0.8250    3.1050    0.6780 c3        1 D7S     -0.205000
     11 C17         0.0060    1.1200    1.6470 c3        1 D7S     -0.088000
     12 C16        -0.2610   -0.1410    2.7060 c3        1 D7S     -0.161000
     13 C15        -0.0420   -1.4040    1.8350 c3        1 D7S     -0.151000
     14 C14         1.0250   -0.9230    0.6960 c3        1 D7S     -0.082000
     15 C8          1.4070   -1.8830   -0.4630 c1        1 D7S     -0.072000
     16 C7          1.2820   -3.5400   -0.3310 c1        1 D7S     -0.185000
     17 C6          1.7690   -4.3350   -1.6230 c2        1 D7S     -0.119000
     18 C13         0.6530    0.3860    0.2870 c3        1 D7S     -0.041000
     19 C18        -0.5470    0.1900   -0.6660 c3        1 D7S     -0.200000
     20 C12         1.5640    1.0450   -0.4580 c3        1 D7S     -0.145000
     21 C11         2.0480    0.1390   -1.7850 c3        1 D7S     -0.150000
     22 C9          2.5880   -1.3420   -1.4040 c2        1 D7S     -0.058000
     23 C10         2.9020   -2.1630   -2.6530 c3        1 D7S     -0.040000
     24 C1          4.1340   -1.4820   -3.3980 c3        1 D7S     -0.147000
     25 C19         1.7000   -2.0480   -3.5790 c3        1 D7S     -0.204000
     26 C5          3.0990   -3.5410   -2.4010 c3        1 D7S     -0.091000
     27 C4          3.4840   -4.3660   -3.6750 c3        1 D7S     -0.208000
     28 C3          4.7490   -3.6500   -4.3990 c1        1 D7S      0.234000
     29 O1          5.5090   -4.3090   -5.0810 o         1 D7S     -0.305000
     30 C2          4.5560   -2.1930   -4.6900 c2        1 D7S     -0.210000
     31 H2         -5.5510    3.6590    2.3600 ha        1 D7S      0.071000
     32 H3         -6.6730    5.1080    3.9630 hc        1 D7S      0.054667
     33 H4         -5.4520    4.8340    4.9720 hc        1 D7S      0.054667
     34 H5         -5.1950    5.5980    3.5790 hc        1 D7S      0.054667
     35 H6         -4.0670    2.3360    4.2870 hc        1 D7S      0.058000
     36 H7         -3.5370    3.8320    4.0660 hc        1 D7S      0.058000
     37 H8         -3.8920    2.0260    1.8880 hc        1 D7S      0.097000
     38 H9         -3.1670    3.4410    1.8040 hc        1 D7S      0.097000
     39 H10        -1.4680    2.5730    3.3100 hc        1 D7S      0.071000
     40 H11        -2.1390    1.1500    3.1510 hc        1 D7S      0.071000
     41 H12        -1.6580    1.1820    0.7420 hc        1 D7S      0.103000
     42 H13        -1.0840    3.8350    1.2830 hc        1 D7S      0.066667
     43 H14        -1.3310    3.1780   -0.1550 hc        1 D7S      0.066667
     44 H15         0.1450    3.1660    0.4820 hc        1 D7S      0.066667
     45 H16         0.6500    1.7550    2.0300 hc        1 D7S      0.078000
     46 H17         0.3910   -0.1140    3.4510 hc        1 D7S      0.095500
     47 H18        -1.1790   -0.1150    3.0470 hc        1 D7S      0.095500
     48 H19        -0.8660   -1.6780    1.4280 hc        1 D7S      0.079500
     49 H20         0.3420   -2.1440    2.3830 hc        1 D7S      0.079500
     50 H21         1.8810   -0.7970    1.1980 hc        1 D7S      0.089000
     51 H22         0.6130   -3.9390    0.2710 ha        1 D7S      0.131000
     52 H23         2.0010   -5.2850   -1.4020 ha        1 D7S      0.085000
     53 H24         1.0220   -4.4660   -2.2500 ha        1 D7S      0.085000
     54 H25        -1.3200   -0.1130   -0.1570 hc        1 D7S      0.077333
     55 H26        -0.3150   -0.4920   -1.3570 hc        1 D7S      0.077333
     56 H27        -0.7570    1.0360   -1.1020 hc        1 D7S      0.077333
     57 H28         2.3420    1.2440    0.0920 hc        1 D7S      0.081500
     58 H29         1.1670    1.8960   -0.7760 hc        1 D7S      0.081500
     59 H30         1.3030    0.0490   -2.3830 hc        1 D7S      0.078000
     60 H31         2.7710    0.6270   -2.2510 hc        1 D7S      0.078000
     61 H32         3.3990   -1.2540   -0.8740 ha        1 D7S      0.088000
     62 H33         3.8930   -0.5640   -3.6170 hc        1 D7S      0.088000
     63 H34         4.8910   -1.4670   -2.7920 hc        1 D7S      0.088000
     64 H35         1.6600   -1.1320   -3.9570 hc        1 D7S      0.077667
     65 H36         0.8760   -2.2290   -3.0730 hc        1 D7S      0.077667
     66 H37         1.7860   -2.7030   -4.3120 hc        1 D7S      0.077667
     67 H38         3.8510   -3.6030   -1.7950 hc        1 D7S      0.095000
     68 H39         2.7490   -4.6540   -4.2920 hc        1 D7S      0.107500
     69 H40         3.7840   -5.2510   -3.3450 hc        1 D7S      0.107500
     70 H41         5.2510   -1.6880   -5.1960 ha        1 D7S      0.106000
     71 H42         3.8230   -2.1590   -5.3320 ha        1 D7S      0.106000
@<TRIPOS>BOND
     1    1    2 1   
     2    2    3 1   
     3    4    5 1   
     4    4    6 1   
     5    4   31 1   
     6    5   32 1   
     7    5   33 1   
     8    5   34 1   
     9    6    7 1   
    10    6   35 1   
    11    6   36 1   
    12    7    8 1   
    13    7   37 1   
    14    7   38 1   
    15    8    9 1   
    16    8   39 1   
    17    8   40 1   
    18    9   10 1   
    19    9   11 1   
    20    9   41 1   
    21   10   42 1   
    22   10   43 1   
    23   10   44 1   
    24   11   12 1   
    25   11   18 1   
    26   11   45 1   
    27   12   13 1   
    28   12   46 1   
    29   12   47 1   
    30   13   14 1   
    31   13   48 1   
    32   13   49 1   
    33   14   15 1   
    34   14   18 1   
    35   14   50 1   
    36   15   16 1   
    37   16   51 1   
    38   17   26 1   
    39   17   52 1   
    40   17   53 1   
    41   18   19 1   
    42   18   20 1   
    43   19   54 1   
    44   19   55 1   
    45   19   56 1   
    46   20   21 1   
    47   20   57 1   
    48   20   58 1   
    49   21   22 1   
    50   21   59 1   
    51   21   60 1   
    52   22   23 1   
    53   22   61 1   
    54   23   24 1   
    55   23   25 1   
    56   23   26 1   
    57   24   30 1   
    58   24   62 1   
    59   24   63 1   
    60   25   64 1   
    61   25   65 1   
    62   25   66 1   
    63   26   27 1   
    64   26   67 1   
    65   27   28 1   
    66   27   68 1   
    67   27   69 1   
    68   28   29 1   
    69   30   70 1   
    70   30   71 1   
@<TRIPOS>SUBSTRUCTURE
     1 D7S         1 TEMP              0 ****  ****    0 ROOT
