@<TRIPOS>MOLECULE
D7S
   71    74     1     0     0
SMALL
bcc


@<TRIPOS>ATOM
      1 O3          0.3990   -0.1170    0.8430 o         1 D7S     -0.847800
      2 C27         1.6410   -0.2290    0.6340 c         1 D7S      0.913600
      3 O2          2.4600   -0.6570    1.4960 o         1 D7S     -0.847800
      4 C25         2.1650    0.1470   -0.7780 c3        1 D7S     -0.187700
      5 C26         1.5220    1.4310   -1.2460 c3        1 D7S     -0.065100
      6 C24         3.6780    0.2320   -0.8020 c3        1 D7S     -0.066400
      7 C23         4.2450    0.0810   -2.1990 c3        1 D7S     -0.078400
      8 C22         5.7570    0.1720   -2.1870 c3        1 D7S     -0.079400
      9 C20         6.3590   -0.0010   -3.5810 c3        1 D7S     -0.058700
     10 C21         6.2410    1.3040   -4.3460 c3        1 D7S     -0.089100
     11 C17         7.8070   -0.4660   -3.4790 c3        1 D7S     -0.050700
     12 C16         7.9310   -1.8110   -2.7320 c3        1 D7S     -0.080400
     13 C15         9.0450   -2.6180   -3.4010 c3        1 D7S     -0.072400
     14 C14         9.7180   -1.6280   -4.3400 c3        1 D7S     -0.037500
     15 C8         10.5480   -2.1060   -5.4740 c2        1 D7S     -0.081400
     16 C7         10.8910   -3.3900   -5.6450 c2        1 D7S     -0.188200
     17 C6         11.8270   -3.8500   -6.6960 c3        1 D7S     -0.037200
     18 C13         8.5570   -0.7120   -4.8100 c3        1 D7S     -0.041000
     19 C18         7.6610   -1.4270   -5.8060 c3        1 D7S     -0.081100
     20 C12         9.2090    0.5080   -5.4400 c3        1 D7S     -0.067400
     21 C11        10.0700    0.1010   -6.6230 c3        1 D7S     -0.071400
     22 C9         11.0970   -0.9890   -6.3190 c3        1 D7S     -0.015500
     23 C10        11.7740   -1.5050   -7.6110 c3        1 D7S     -0.040000
     24 C1         12.6620   -0.3920   -8.1760 c3        1 D7S     -0.068400
     25 C19        10.7370   -1.9170   -8.6460 c3        1 D7S     -0.086100
     26 C5         12.6690   -2.6970   -7.2270 c3        1 D7S     -0.051700
     27 C4         13.5510   -3.1850   -8.3640 c3        1 D7S     -0.179400
     28 C3         14.3040   -2.0690   -9.0260 c         1 D7S      0.573100
     29 O1         15.5010   -2.1630   -9.3150 o         1 D7S     -0.542100
     30 C2         13.4960   -0.8460   -9.3530 c3        1 D7S     -0.181400
     31 H2          1.8370   -0.6890   -1.4560 hc        1 D7S      0.027700
     32 H3          0.4150    1.3600   -1.1090 hc        1 D7S      0.015033
     33 H4          1.8940    2.2970   -0.6470 hc        1 D7S      0.015033
     34 H5          1.7470    1.6270   -2.3230 hc        1 D7S      0.015033
     35 H6          4.0060    1.2120   -0.3680 hc        1 D7S      0.048200
     36 H7          4.0890   -0.5740   -0.1350 hc        1 D7S      0.048200
     37 H8          3.8170    0.8740   -2.8670 hc        1 D7S      0.026700
     38 H9          3.9330   -0.9100   -2.6240 hc        1 D7S      0.026700
     39 H10         6.0720    1.1640   -1.7690 hc        1 D7S      0.039700
     40 H11         6.1530   -0.6160   -1.4940 hc        1 D7S      0.039700
     41 H12         5.7660   -0.7890   -4.1270 hc        1 D7S      0.049700
     42 H13         6.3790    1.1390   -5.4410 hc        1 D7S      0.029700
     43 H14         5.2290    1.7510   -4.1890 hc        1 D7S      0.029700
     44 H15         7.0070    2.0370   -3.9950 hc        1 D7S      0.029700
     45 H16         8.3770    0.3180   -2.9070 hc        1 D7S      0.044700
     46 H17         8.1690   -1.6290   -1.6550 hc        1 D7S      0.051700
     47 H18         6.9650   -2.3740   -2.7770 hc        1 D7S      0.051700
     48 H19         8.6180   -3.4830   -3.9680 hc        1 D7S      0.040200
     49 H20         9.7670   -3.0230   -2.6500 hc        1 D7S      0.040200
     50 H21        10.4090   -0.9930   -3.7050 hc        1 D7S      0.052700
     51 H22        10.4900   -4.1780   -4.9870 ha        1 D7S      0.129000
     52 H23        12.5070   -4.6410   -6.2780 hc        1 D7S      0.046200
     53 H24        11.2470   -4.3200   -7.5360 hc        1 D7S      0.046200
     54 H25         8.2700   -1.8980   -6.6170 hc        1 D7S      0.036033
     55 H26         6.9420   -0.7100   -6.2690 hc        1 D7S      0.036033
     56 H27         7.0820   -2.2340   -5.2950 hc        1 D7S      0.036033
     57 H28         8.4280    1.2310   -5.7910 hc        1 D7S      0.044200
     58 H29         9.8340    1.0370   -4.6740 hc        1 D7S      0.044200
     59 H30        10.6180    1.0070   -6.9940 hc        1 D7S      0.039200
     60 H31         9.3880   -0.2370   -7.4470 hc        1 D7S      0.039200
     61 H32        11.9080   -0.5100   -5.6900 hc        1 D7S      0.050700
     62 H33        12.0190    0.4670   -8.5010 hc        1 D7S      0.049200
     63 H34        13.3410   -0.0170   -7.3650 hc        1 D7S      0.049200
     64 H35        10.3140   -1.0200   -9.1590 hc        1 D7S      0.038033
     65 H36        11.1920   -2.5740   -9.4250 hc        1 D7S      0.038033
     66 H37         9.9040   -2.4770   -8.1530 hc        1 D7S      0.038033
     67 H38        13.3460   -2.3460   -6.3950 hc        1 D7S      0.056700
     68 H39        14.2740   -3.9470   -7.9670 hc        1 D7S      0.068200
     69 H40        12.9310   -3.6940   -9.1510 hc        1 D7S      0.068200
     70 H41        12.8280   -1.0990  -10.2200 hc        1 D7S      0.067200
     71 H42        14.1770   -0.0150   -9.6780 hc        1 D7S      0.067200
@<TRIPOS>BOND
     1    1    2 1   
     2    2    3 1   
     3    2    4 1   
     4    4    5 1   
     5    4    6 1   
     6    4   31 1   
     7    5   32 1   
     8    5   33 1   
     9    5   34 1   
    10    6    7 1   
    11    6   35 1   
    12    6   36 1   
    13    7    8 1   
    14    7   37 1   
    15    7   38 1   
    16    8    9 1   
    17    8   39 1   
    18    8   40 1   
    19    9   10 1   
    20    9   11 1   
    21    9   41 1   
    22   10   42 1   
    23   10   43 1   
    24   10   44 1   
    25   11   12 1   
    26   11   18 1   
    27   11   45 1   
    28   12   13 1   
    29   12   46 1   
    30   12   47 1   
    31   13   14 1   
    32   13   48 1   
    33   13   49 1   
    34   14   15 1   
    35   14   18 1   
    36   14   50 1   
    37   15   16 2   
    38   15   22 1   
    39   16   17 1   
    40   16   51 1   
    41   17   26 1   
    42   17   52 1   
    43   17   53 1   
    44   18   19 1   
    45   18   20 1   
    46   19   54 1   
    47   19   55 1   
    48   19   56 1   
    49   20   21 1   
    50   20   57 1   
    51   20   58 1   
    52   21   22 1   
    53   21   59 1   
    54   21   60 1   
    55   22   23 1   
    56   22   61 1   
    57   23   24 1   
    58   23   25 1   
    59   23   26 1   
    60   24   30 1   
    61   24   62 1   
    62   24   63 1   
    63   25   64 1   
    64   25   65 1   
    65   25   66 1   
    66   26   27 1   
    67   26   67 1   
    68   27   28 1   
    69   27   68 1   
    70   27   69 1   
    71   28   29 2   
    72   28   30 1   
    73   30   70 1   
    74   30   71 1   
@<TRIPOS>SUBSTRUCTURE
     1 D7S         1 TEMP              0 ****  ****    0 ROOT
