@<TRIPOS>MOLECULE
D7S
   71    74     1     0     0
SMALL
bcc


@<TRIPOS>ATOM
      1 O3         -9.6430   -0.4440   -0.6890 o         1 D7S     -0.847800
      2 C27        -8.5140   -0.7770   -0.2290 c         1 D7S      0.913600
      3 O2         -8.2880   -1.8830    0.3410 o         1 D7S     -0.847800
      4 C25        -7.3410    0.2220   -0.4200 c3        1 D7S     -0.187700
      5 C26        -7.8000    1.6260   -0.1110 c3        1 D7S     -0.065100
      6 C24        -6.1360   -0.1740    0.4100 c3        1 D7S     -0.066400
      7 C23        -4.8490    0.4300   -0.1130 c3        1 D7S     -0.078400
      8 C22        -3.6670    0.0160    0.7400 c3        1 D7S     -0.079400
      9 C20        -2.3490    0.5920    0.2220 c3        1 D7S     -0.058700
     10 C21        -2.2220    2.0360    0.6660 c3        1 D7S     -0.089100
     11 C17        -1.1750   -0.2530    0.7050 c3        1 D7S     -0.050700
     12 C16        -1.2820   -1.7160    0.2280 c3        1 D7S     -0.080400
     13 C15         0.1320   -2.2100   -0.0890 c3        1 D7S     -0.072400
     14 C14         1.0440   -1.1230    0.4590 c3        1 D7S     -0.037500
     15 C8          2.4440   -0.9990   -0.0180 c2        1 D7S     -0.081400
     16 C7          3.0350   -1.9060   -0.8080 c2        1 D7S     -0.188200
     17 C6          4.4690   -1.8550   -1.1740 c3        1 D7S     -0.037200
     18 C13         0.2350    0.1840    0.2460 c3        1 D7S     -0.041000
     19 C18         0.2220    0.5900   -1.2170 c3        1 D7S     -0.081100
     20 C12         0.9120    1.2440    1.1000 c3        1 D7S     -0.067400
     21 C11         2.3540    1.4400    0.6630 c3        1 D7S     -0.071400
     22 C9          3.1810    0.1570    0.6030 c3        1 D7S     -0.015500
     23 C10         4.5580    0.4010   -0.0600 c3        1 D7S     -0.040000
     24 C1          5.4030    1.2700    0.8760 c3        1 D7S     -0.068400
     25 C19         4.4020    1.0890   -1.4080 c3        1 D7S     -0.086100
     26 C5          5.2510   -0.9650   -0.2180 c3        1 D7S     -0.051700
     27 C4          6.6960   -0.8620   -0.6760 c3        1 D7S     -0.179400
     28 C3          7.4900    0.1140    0.1430 c         1 D7S      0.573100
     29 O1          8.6270   -0.1430    0.5510 o         1 D7S     -0.542100
     30 C2          6.8280    1.4370    0.3960 c3        1 D7S     -0.181400
     31 H2         -7.0670    0.1640   -1.5100 hc        1 D7S      0.027700
     32 H3         -7.0300    2.3790   -0.4090 hc        1 D7S      0.015033
     33 H4         -8.7490    1.8350   -0.6630 hc        1 D7S      0.015033
     34 H5         -8.0000    1.7430    0.9820 hc        1 D7S      0.015033
     35 H6         -6.2940    0.1410    1.4750 hc        1 D7S      0.048200
     36 H7         -6.0590   -1.2960    0.4100 hc        1 D7S      0.048200
     37 H8         -4.6820    0.0960   -1.1710 hc        1 D7S      0.026700
     38 H9         -4.9370    1.5480   -0.1310 hc        1 D7S      0.026700
     39 H10        -3.8280    0.3540    1.7970 hc        1 D7S      0.039700
     40 H11        -3.6190   -1.1040    0.7590 hc        1 D7S      0.039700
     41 H12        -2.3700    0.5650   -0.9050 hc        1 D7S      0.049700
     42 H13        -1.4480    2.5720    0.0650 hc        1 D7S      0.029700
     43 H14        -3.1950    2.5680    0.5290 hc        1 D7S      0.029700
     44 H15        -1.9390    2.0940    1.7450 hc        1 D7S      0.029700
     45 H16        -1.1870   -0.2390    1.8310 hc        1 D7S      0.044700
     46 H17        -1.7480   -2.3460    1.0260 hc        1 D7S      0.051700
     47 H18        -1.9280   -1.7860   -0.6820 hc        1 D7S      0.051700
     48 H19         0.3400   -3.1970    0.3890 hc        1 D7S      0.040200
     49 H20         0.2680   -2.3280   -1.1930 hc        1 D7S      0.040200
     50 H21         1.1180   -1.2920    1.5770 hc        1 D7S      0.052700
     51 H22         2.4680   -2.7550   -1.2210 ha        1 D7S      0.129000
     52 H23         4.9020   -2.8900   -1.1520 hc        1 D7S      0.046200
     53 H24         4.5740   -1.4730   -2.2260 hc        1 D7S      0.046200
     54 H25        -0.3990   -0.1250   -1.8100 hc        1 D7S      0.036033
     55 H26        -0.2040    1.6150   -1.3340 hc        1 D7S      0.036033
     56 H27         1.2570    0.5830   -1.6390 hc        1 D7S      0.036033
     57 H28         0.3710    2.2220    1.0120 hc        1 D7S      0.044200
     58 H29         0.8760    0.9380    2.1780 hc        1 D7S      0.044200
     59 H30         2.3460    1.9370   -0.3430 hc        1 D7S      0.039200
     60 H31         2.8520    2.1460    1.3800 hc        1 D7S      0.039200
     61 H32         3.3810   -0.1560    1.6730 hc        1 D7S      0.050700
     62 H33         4.9340    2.2850    0.9670 hc        1 D7S      0.049200
     63 H34         5.4100    0.8090    1.8990 hc        1 D7S      0.049200
     64 H35         4.2100    2.1810   -1.2740 hc        1 D7S      0.038033
     65 H36         5.3290    0.9780   -2.0210 hc        1 D7S      0.038033
     66 H37         3.5490    0.6400   -1.9720 hc        1 D7S      0.038033
     67 H38         5.2480   -1.4550    0.7990 hc        1 D7S      0.056700
     68 H39         7.1720   -1.8780   -0.6210 hc        1 D7S      0.068200
     69 H40         6.7460   -0.5300   -1.7480 hc        1 D7S      0.068200
     70 H41         6.8420    2.0160   -0.5670 hc        1 D7S      0.067200
     71 H42         7.4170    2.0190    1.1530 hc        1 D7S      0.067200
@<TRIPOS>BOND
     1    1    2 1   
     2    2    3 1   
     3    2    4 1   
     4    4    5 1   
     5    4    6 1   
     6    4   31 1   
     7    5   32 1   
     8    5   33 1   
     9    5   34 1   
    10    6    7 1   
    11    6   35 1   
    12    6   36 1   
    13    7    8 1   
    14    7   37 1   
    15    7   38 1   
    16    8    9 1   
    17    8   39 1   
    18    8   40 1   
    19    9   10 1   
    20    9   11 1   
    21    9   41 1   
    22   10   42 1   
    23   10   43 1   
    24   10   44 1   
    25   11   12 1   
    26   11   18 1   
    27   11   45 1   
    28   12   13 1   
    29   12   46 1   
    30   12   47 1   
    31   13   14 1   
    32   13   48 1   
    33   13   49 1   
    34   14   15 1   
    35   14   18 1   
    36   14   50 1   
    37   15   16 2   
    38   15   22 1   
    39   16   17 1   
    40   16   51 1   
    41   17   26 1   
    42   17   52 1   
    43   17   53 1   
    44   18   19 1   
    45   18   20 1   
    46   19   54 1   
    47   19   55 1   
    48   19   56 1   
    49   20   21 1   
    50   20   57 1   
    51   20   58 1   
    52   21   22 1   
    53   21   59 1   
    54   21   60 1   
    55   22   23 1   
    56   22   61 1   
    57   23   24 1   
    58   23   25 1   
    59   23   26 1   
    60   24   30 1   
    61   24   62 1   
    62   24   63 1   
    63   25   64 1   
    64   25   65 1   
    65   25   66 1   
    66   26   27 1   
    67   26   67 1   
    68   27   28 1   
    69   27   68 1   
    70   27   69 1   
    71   28   29 2   
    72   28   30 1   
    73   30   70 1   
    74   30   71 1   
@<TRIPOS>SUBSTRUCTURE
     1 D7S         1 TEMP              0 ****  ****    0 ROOT
