@<TRIPOS>MOLECULE
D7V
   43    45     1     0     0
SMALL
bcc


@<TRIPOS>ATOM
      1 C1          0.1910    0.3280    0.3430 c3        1 D7V      0.081600
      2 N1          1.6440    0.1500    0.0860 n4        1 D7V     -0.681400
      3 O1          0.2390   -2.1050   -6.2050 os        1 D7V     -0.332900
      4 C2          2.4040    0.1330    1.3630 c3        1 D7V      0.081600
      5 C3          1.9130   -1.0980   -0.7080 c3        1 D7V      0.106800
      6 C4          1.5340   -0.9630   -2.1810 c3        1 D7V     -0.059200
      7 C5          1.9970   -2.1630   -2.9170 c2        1 D7V     -0.219200
      8 C6          1.2170   -2.9110   -3.7220 ce        1 D7V      0.086600
      9 C7          1.7960   -4.0200   -4.4920 ca        1 D7V     -0.065800
     10 C8          2.5920   -4.9460   -3.7950 ca        1 D7V     -0.117000
     11 C9          3.1730   -6.0260   -4.4480 ca        1 D7V     -0.124000
     12 C10         2.9710   -6.1930   -5.8200 ca        1 D7V     -0.103000
     13 C11         2.1890   -5.2810   -6.5170 ca        1 D7V     -0.128000
     14 C12         1.5880   -4.1860   -5.8690 ca        1 D7V     -0.082300
     15 C13         0.7780   -3.3030   -6.7650 c3        1 D7V      0.172700
     16 C14        -0.6790   -2.3160   -5.1880 ca        1 D7V      0.115100
     17 C15        -0.2160   -2.6720   -3.9080 ca        1 D7V     -0.104800
     18 C16        -2.0370   -2.0690   -5.4250 ca        1 D7V     -0.127000
     19 C17        -2.9410   -2.1970   -4.3720 ca        1 D7V     -0.103000
     20 C18        -2.4970   -2.5720   -3.1030 ca        1 D7V     -0.141000
     21 C19        -1.1430   -2.8060   -2.8690 ca        1 D7V     -0.122000
     22 H1         -0.1850   -0.5210    0.9740 hx        1 D7V      0.105700
     23 H1A        -0.3600    0.3410   -0.6350 hx        1 D7V      0.105700
     24 H1B         0.0250    1.2980    0.8830 hx        1 D7V      0.105700
     25 H2          3.5050    0.0960    1.1430 hx        1 D7V      0.105700
     26 H2A         2.1700    1.0630    1.9490 hx        1 D7V      0.105700
     27 H2B         2.1110   -0.7700    1.9610 hx        1 D7V      0.105700
     28 H3          1.3350   -1.9410   -0.2350 hx        1 D7V      0.103700
     29 H3A         3.0160   -1.3230   -0.6230 hx        1 D7V      0.103700
     30 H4          2.0280   -0.0580   -2.6320 hc        1 D7V      0.073200
     31 H4A         0.4220   -0.8370   -2.2890 hc        1 D7V      0.073200
     32 H5          3.0740   -2.3850   -2.8320 ha        1 D7V      0.141000
     33 H8          2.7470   -4.8150   -2.7130 ha        1 D7V      0.126000
     34 H9          3.7880   -6.7460   -3.8890 ha        1 D7V      0.144000
     35 H10         3.4280   -7.0450   -6.3460 ha        1 D7V      0.148000
     36 H11         2.0320   -5.4140   -7.6000 ha        1 D7V      0.144000
     37 H13         1.4330   -2.9010   -7.5910 h1        1 D7V      0.075200
     38 H13A       -0.0620   -3.9070   -7.2080 h1        1 D7V      0.075200
     39 H16        -2.3710   -1.7780   -6.4330 ha        1 D7V      0.161000
     40 H17        -4.0120   -2.0130   -4.5480 ha        1 D7V      0.149000
     41 H18        -3.2230   -2.6970   -2.2860 ha        1 D7V      0.140000
     42 H19        -0.8030   -3.1220   -1.8730 ha        1 D7V      0.123000
     43 H111        1.9680    0.9520   -0.4740 hn        1 D7V      0.451800
@<TRIPOS>BOND
     1    1    2 1   
     2    1   22 1   
     3    1   23 1   
     4    1   24 1   
     5    2    4 1   
     6    2    5 1   
     7    2   43 1   
     8    3   15 1   
     9    3   16 1   
    10    4   25 1   
    11    4   26 1   
    12    4   27 1   
    13    5    6 1   
    14    5   28 1   
    15    5   29 1   
    16    6    7 1   
    17    6   30 1   
    18    6   31 1   
    19    7    8 2   
    20    7   32 1   
    21    8    9 1   
    22    8   17 1   
    23    9   10 ar  
    24    9   14 ar  
    25   10   11 ar  
    26   10   33 1   
    27   11   12 ar  
    28   11   34 1   
    29   12   13 ar  
    30   12   35 1   
    31   13   14 ar  
    32   13   36 1   
    33   14   15 1   
    34   15   37 1   
    35   15   38 1   
    36   16   17 ar  
    37   16   18 ar  
    38   17   21 ar  
    39   18   19 ar  
    40   18   39 1   
    41   19   20 ar  
    42   19   40 1   
    43   20   21 ar  
    44   20   41 1   
    45   21   42 1   
@<TRIPOS>SUBSTRUCTURE
     1 D7V         1 TEMP              0 ****  ****    0 ROOT
