@<TRIPOS>MOLECULE
D7V
   43    45     1     0     0
SMALL
bcc


@<TRIPOS>ATOM
      1 C1          0.1840    0.3140    0.3480 c3        1 D7V      0.081600
      2 N1          1.6370    0.1510    0.0820 nx        1 D7V     -0.681400
      3 O1          0.2290   -2.1120   -6.2050 os        1 D7V     -0.332900
      4 C2          2.4050    0.1430    1.3540 c3        1 D7V      0.081600
      5 C3          1.9150   -1.0950   -0.7130 c3        1 D7V      0.106800
      6 C4          1.5260   -0.9650   -2.1850 c3        1 D7V     -0.059200
      7 C5          1.9950   -2.1600   -2.9220 c2        1 D7V     -0.219200
      8 C6          1.2190   -2.9130   -3.7250 ce        1 D7V      0.086600
      9 C7          1.8020   -4.0180   -4.4970 ca        1 D7V     -0.065800
     10 C8          2.6070   -4.9400   -3.8030 ca        1 D7V     -0.117000
     11 C9          3.1930   -6.0160   -4.4580 ca        1 D7V     -0.124000
     12 C10         2.9880   -6.1830   -5.8300 ca        1 D7V     -0.103000
     13 C11         2.1980   -5.2750   -6.5240 ca        1 D7V     -0.128000
     14 C12         1.5930   -4.1840   -5.8740 ca        1 D7V     -0.082300
     15 C13         0.7750   -3.3070   -6.7670 c3        1 D7V      0.172700
     16 C14        -0.6860   -2.3300   -5.1850 ca        1 D7V      0.114100
     17 C15        -0.2170   -2.6850   -3.9070 ca        1 D7V     -0.104800
     18 C16        -2.0450   -2.0920   -5.4200 ca        1 D7V     -0.127000
     19 C17        -2.9460   -2.2270   -4.3650 ca        1 D7V     -0.103000
     20 C18        -2.4970   -2.6010   -3.0970 ca        1 D7V     -0.141000
     21 C19        -1.1400   -2.8260   -2.8660 ca        1 D7V     -0.122000
     22 H1         -0.1800   -0.5380    0.9810 hx        1 D7V      0.105700
     23 H1A        -0.3730    0.3210   -0.6280 hx        1 D7V      0.105700
     24 H1B         0.0110    1.2830    0.8880 hx        1 D7V      0.105700
     25 H2          3.5040    0.1170    1.1270 hx        1 D7V      0.105700
     26 H2A         2.1240   -0.7640    1.9540 hx        1 D7V      0.105700
     27 H2B         2.1640    1.0700    1.9410 hx        1 D7V      0.105700
     28 H3          3.0190   -1.3100   -0.6340 hx        1 D7V      0.103700
     29 H3A         1.3470   -1.9440   -0.2370 hx        1 D7V      0.103700
     30 H4          0.4120   -0.8480   -2.2870 hc        1 D7V      0.073200
     31 H4A         2.0110   -0.0560   -2.6390 hc        1 D7V      0.073200
     32 H5          3.0740   -2.3760   -2.8400 ha        1 D7V      0.141000
     33 H8          2.7630   -4.8090   -2.7220 ha        1 D7V      0.126000
     34 H9          3.8140   -6.7320   -3.9010 ha        1 D7V      0.144000
     35 H10         3.4490   -7.0320   -6.3580 ha        1 D7V      0.148000
     36 H11         2.0400   -5.4090   -7.6070 ha        1 D7V      0.144000
     37 H13         1.4250   -2.8990   -7.5940 h1        1 D7V      0.075200
     38 H13A       -0.0620   -3.9150   -7.2090 h1        1 D7V      0.075200
     39 H16        -2.3840   -1.8040   -6.4260 ha        1 D7V      0.161000
     40 H17        -4.0190   -2.0500   -4.5370 ha        1 D7V      0.149000
     41 H18        -3.2200   -2.7320   -2.2780 ha        1 D7V      0.140000
     42 H19        -0.7950   -3.1400   -1.8710 ha        1 D7V      0.123000
     43 H111        1.9500    0.9560   -0.4800 hn        1 D7V      0.451800
@<TRIPOS>BOND
     1    1    2 1   
     2    1   22 1   
     3    1   23 1   
     4    1   24 1   
     5    2    4 1   
     6    2    5 1   
     7    2   43 1   
     8    3   15 1   
     9    3   16 1   
    10    4   25 1   
    11    4   26 1   
    12    4   27 1   
    13    5    6 1   
    14    5   28 1   
    15    5   29 1   
    16    6    7 1   
    17    6   30 1   
    18    6   31 1   
    19    7    8 2   
    20    7   32 1   
    21    8    9 1   
    22    8   17 1   
    23    9   10 ar  
    24    9   14 ar  
    25   10   11 ar  
    26   10   33 1   
    27   11   12 ar  
    28   11   34 1   
    29   12   13 ar  
    30   12   35 1   
    31   13   14 ar  
    32   13   36 1   
    33   14   15 1   
    34   15   37 1   
    35   15   38 1   
    36   16   17 ar  
    37   16   18 ar  
    38   17   21 ar  
    39   18   19 ar  
    40   18   39 1   
    41   19   20 ar  
    42   19   40 1   
    43   20   21 ar  
    44   20   41 1   
    45   21   42 1   
@<TRIPOS>SUBSTRUCTURE
     1 D7V         1 TEMP              0 ****  ****    0 ROOT
