@<TRIPOS>MOLECULE
D7V
   43    45     1     0     0
SMALL
bcc


@<TRIPOS>ATOM
      1 C1          0.1800    0.3070    0.3530 c3        1 D7V      0.081600
      2 N1          1.6330    0.1510    0.0840 n4        1 D7V     -0.681400
      3 O1          0.2280   -2.1110   -6.2050 os        1 D7V     -0.332900
      4 C2          2.4040    0.1460    1.3540 c3        1 D7V      0.081600
      5 C3          1.9130   -1.0940   -0.7120 c3        1 D7V      0.106800
      6 C4          1.5210   -0.9650   -2.1830 c3        1 D7V     -0.059200
      7 C5          1.9930   -2.1590   -2.9210 c2        1 D7V     -0.219200
      8 C6          1.2180   -2.9130   -3.7250 ce        1 D7V      0.086600
      9 C7          1.8050   -4.0160   -4.4990 ca        1 D7V     -0.065800
     10 C8          2.6110   -4.9360   -3.8050 ca        1 D7V     -0.117000
     11 C9          3.2000   -6.0100   -4.4620 ca        1 D7V     -0.124000
     12 C10         2.9960   -6.1760   -5.8330 ca        1 D7V     -0.103000
     13 C11         2.2050   -5.2690   -6.5270 ca        1 D7V     -0.128000
     14 C12         1.5960   -4.1800   -5.8760 ca        1 D7V     -0.082300
     15 C13         0.7760   -3.3030   -6.7680 c3        1 D7V      0.172700
     16 C14        -0.6870   -2.3320   -5.1860 ca        1 D7V      0.114100
     17 C15        -0.2170   -2.6870   -3.9080 ca        1 D7V     -0.104800
     18 C16        -2.0460   -2.0970   -5.4200 ca        1 D7V     -0.127000
     19 C17        -2.9470   -2.2350   -4.3660 ca        1 D7V     -0.103000
     20 C18        -2.4980   -2.6090   -3.0980 ca        1 D7V     -0.141000
     21 C19        -1.1410   -2.8320   -2.8680 ca        1 D7V     -0.122000
     22 H1          0.0040    1.2760    0.8940 hx        1 D7V      0.105700
     23 H1A        -0.3800    0.3110   -0.6200 hx        1 D7V      0.105700
     24 H1B        -0.1780   -0.5460    0.9880 hx        1 D7V      0.105700
     25 H2          2.1290   -0.7620    1.9550 hx        1 D7V      0.105700
     26 H2A         2.1610    1.0720    1.9410 hx        1 D7V      0.105700
     27 H2B         3.5030    0.1250    1.1240 hx        1 D7V      0.105700
     28 H3          1.3510   -1.9450   -0.2340 hx        1 D7V      0.103700
     29 H3A         3.0200   -1.3040   -0.6350 hx        1 D7V      0.103700
     30 H4          0.4060   -0.8530   -2.2820 hc        1 D7V      0.073200
     31 H4A         2.0010   -0.0540   -2.6380 hc        1 D7V      0.073200
     32 H5          3.0720   -2.3720   -2.8390 ha        1 D7V      0.141000
     33 H8          2.7670   -4.8060   -2.7240 ha        1 D7V      0.126000
     34 H9          3.8220   -6.7260   -3.9050 ha        1 D7V      0.144000
     35 H10         3.4590   -7.0220   -6.3620 ha        1 D7V      0.148000
     36 H11         2.0470   -5.4010   -7.6100 ha        1 D7V      0.144000
     37 H13         1.4260   -2.8930   -7.5950 h1        1 D7V      0.075200
     38 H13A       -0.0590   -3.9130   -7.2110 h1        1 D7V      0.075200
     39 H16        -2.3850   -1.8070   -6.4260 ha        1 D7V      0.161000
     40 H17        -4.0210   -2.0600   -4.5390 ha        1 D7V      0.149000
     41 H18        -3.2210   -2.7430   -2.2800 ha        1 D7V      0.140000
     42 H19        -0.7960   -3.1470   -1.8730 ha        1 D7V      0.123000
     43 H111        1.9400    0.9570   -0.4790 hn        1 D7V      0.451800
@<TRIPOS>BOND
     1    1    2 1   
     2    1   22 1   
     3    1   23 1   
     4    1   24 1   
     5    2    4 1   
     6    2    5 1   
     7    2   43 1   
     8    3   15 1   
     9    3   16 1   
    10    4   25 1   
    11    4   26 1   
    12    4   27 1   
    13    5    6 1   
    14    5   28 1   
    15    5   29 1   
    16    6    7 1   
    17    6   30 1   
    18    6   31 1   
    19    7    8 2   
    20    7   32 1   
    21    8    9 1   
    22    8   17 1   
    23    9   10 ar  
    24    9   14 ar  
    25   10   11 ar  
    26   10   33 1   
    27   11   12 ar  
    28   11   34 1   
    29   12   13 ar  
    30   12   35 1   
    31   13   14 ar  
    32   13   36 1   
    33   14   15 1   
    34   15   37 1   
    35   15   38 1   
    36   16   17 ar  
    37   16   18 ar  
    38   17   21 ar  
    39   18   19 ar  
    40   18   39 1   
    41   19   20 ar  
    42   19   40 1   
    43   20   21 ar  
    44   20   41 1   
    45   21   42 1   
@<TRIPOS>SUBSTRUCTURE
     1 D7V         1 TEMP              0 ****  ****    0 ROOT
