@<TRIPOS>MOLECULE
D7V
   42    44     1     0     0
SMALL
bcc


@<TRIPOS>ATOM
      1 C1          4.9210   -0.0430   -0.3500 c3        1 D7V      0.156100
      2 N1          4.4170   -1.3840   -0.5350 n3        1 D7V     -0.738600
      3 O1         -1.7350    1.7260   -1.3850 os        1 D7V     -0.330900
      4 C2          5.2860   -2.3930    0.0290 c3        1 D7V      0.156100
      5 C3          3.0350   -1.5540   -0.1070 c3        1 D7V      0.175800
      6 C4          2.0430   -0.6370   -0.8280 c3        1 D7V     -0.059200
      7 C5          0.6560   -1.0900   -0.5760 c2        1 D7V     -0.132200
      8 C6         -0.3390   -0.3340   -0.0760 ce        1 D7V     -0.014400
      9 C7         -1.6870   -0.8970    0.0870 ca        1 D7V     -0.026800
     10 C8         -1.7860   -2.1540    0.7120 ca        1 D7V     -0.122000
     11 C9         -3.0170   -2.7680    0.9060 ca        1 D7V     -0.129000
     12 C10        -4.1810   -2.1310    0.4730 ca        1 D7V     -0.125000
     13 C11        -4.0960   -0.8900   -0.1430 ca        1 D7V     -0.133000
     14 C12        -2.8570   -0.2550   -0.3440 ca        1 D7V     -0.095300
     15 C13        -2.9490    1.0780   -1.0160 c3        1 D7V      0.179700
     16 C14        -0.9190    2.0630   -0.3130 ca        1 D7V      0.101100
     17 C15        -0.1690    1.0620    0.3300 ca        1 D7V     -0.061800
     18 C16        -0.7850    3.4120    0.0350 ca        1 D7V     -0.137000
     19 C17         0.1100    3.7640    1.0440 ca        1 D7V     -0.119000
     20 C18         0.8530    2.7810    1.6990 ca        1 D7V     -0.140000
     21 C19         0.7180    1.4400    1.3450 ca        1 D7V     -0.108000
     22 H1          5.9870    0.0000   -0.6960 h1        1 D7V      0.030867
     23 H1A         4.3150    0.6610   -0.9780 h1        1 D7V      0.030867
     24 H1B         4.8800    0.3040    0.7190 h1        1 D7V      0.030867
     25 H2          5.3610   -2.3400    1.1500 h1        1 D7V      0.030867
     26 H2A         4.9000   -3.4080   -0.2530 h1        1 D7V      0.030867
     27 H2B         6.3140   -2.2680   -0.4020 h1        1 D7V      0.030867
     28 H3          2.7520   -2.6250   -0.3190 h1        1 D7V      0.029200
     29 H3A         2.9230   -1.3880    1.0060 h1        1 D7V      0.029200
     30 H4          2.1890    0.4230   -0.4880 hc        1 D7V      0.064700
     31 H4A         2.2300   -0.6640   -1.9370 hc        1 D7V      0.064700
     32 H5          0.4500   -2.1350   -0.8670 ha        1 D7V      0.128000
     33 H8         -0.8660   -2.6530    1.0560 ha        1 D7V      0.134000
     34 H9         -3.0730   -3.7500    1.3980 ha        1 D7V      0.133000
     35 H10        -5.1600   -2.6090    0.6210 ha        1 D7V      0.133000
     36 H11        -5.0150   -0.3880   -0.4840 ha        1 D7V      0.130000
     37 H13        -3.5470    1.7720   -0.3610 h1        1 D7V      0.061700
     38 H13A       -3.4660    0.9610   -2.0120 h1        1 D7V      0.061700
     39 H16        -1.3740    4.1740   -0.4940 ha        1 D7V      0.146000
     40 H17         0.2270    4.8210    1.3250 ha        1 D7V      0.134000
     41 H18         1.5510    3.0650    2.5000 ha        1 D7V      0.133000
     42 H19         1.3100    0.6680    1.8610 ha        1 D7V      0.137000
@<TRIPOS>BOND
     1    1    2 1   
     2    1   22 1   
     3    1   23 1   
     4    1   24 1   
     5    2    4 1   
     6    2    5 1   
     7    3   15 1   
     8    3   16 1   
     9    4   25 1   
    10    4   26 1   
    11    4   27 1   
    12    5    6 1   
    13    5   28 1   
    14    5   29 1   
    15    6    7 1   
    16    6   30 1   
    17    6   31 1   
    18    7    8 2   
    19    7   32 1   
    20    8    9 1   
    21    8   17 1   
    22    9   10 ar  
    23    9   14 ar  
    24   10   11 ar  
    25   10   33 1   
    26   11   12 ar  
    27   11   34 1   
    28   12   13 ar  
    29   12   35 1   
    30   13   14 ar  
    31   13   36 1   
    32   14   15 1   
    33   15   37 1   
    34   15   38 1   
    35   16   17 ar  
    36   16   18 ar  
    37   17   21 ar  
    38   18   19 ar  
    39   18   39 1   
    40   19   20 ar  
    41   19   40 1   
    42   20   21 ar  
    43   20   41 1   
    44   21   42 1   
@<TRIPOS>SUBSTRUCTURE
     1 D7V         1 TEMP              0 ****  ****    0 ROOT
