@<TRIPOS>MOLECULE
D7V
   42    39     1     0     0
SMALL
bcc


@<TRIPOS>ATOM
      1 C1         -0.4920    1.4970    4.8540 c3        1 D7V     -0.120000
      2 N1         -0.5260    1.7040    3.3940 n3        1 D7V     -0.265000
      3 O1         -0.1180   -0.3730   -3.4510 os        1 D7V     -0.208000
      4 C2         -0.3240    3.0790    3.1100 c3        1 D7V     -0.120000
      5 C3          0.4890    0.9500    2.8000 c3        1 D7V     -0.063000
      6 C4         -0.1600   -0.0720    1.7210 c3        1 D7V     -0.140000
      7 C5          0.3910    0.2270    0.3420 c2        1 D7V     -0.136000
      8 C6          0.0850   -0.5760   -0.6920 c1        1 D7V     -0.044000
      9 C7          1.0670   -1.6290   -1.3240 c1        1 D7V     -0.023000
     10 C8          1.4050   -2.8880   -0.7840 c1        1 D7V     -0.119000
     11 C9          2.5660   -3.5370   -1.2000 c1        1 D7V     -0.129250
     12 C10         3.4030   -2.9320   -2.1620 c1        1 D7V     -0.129250
     13 C11         3.0620   -1.6790   -2.6970 c1        1 D7V     -0.106000
     14 C12         1.8930   -1.0310   -2.2740 c2        1 D7V     -0.108000
     15 C13         1.1410    0.0730   -3.0420 c3        1 D7V      0.023000
     16 C14        -1.1340    0.1700   -2.6440 c2        1 D7V      0.103000
     17 C15        -1.2570   -0.5410   -1.4570 c2        1 D7V     -0.099000
     18 C16        -2.2800    0.8040   -3.2190 c1        1 D7V     -0.161000
     19 C17        -3.5050    0.7080   -2.5940 c1        1 D7V     -0.129250
     20 C18        -3.6300   -0.0100   -1.3950 c1        1 D7V     -0.129250
     21 C19        -2.5020   -0.6350   -0.8260 c1        1 D7V     -0.091000
     22 H1         -1.1130    2.1120    5.2850 h1        1 D7V      0.070500
     23 H1A         0.4550    1.6720    5.2000 h1        1 D7V      0.070500
     24 H1B        -0.7440    0.5990    5.0540 h1        1 D7V      0.070500
     25 H2          0.5760    3.3990    3.5550 h1        1 D7V      0.070500
     26 H2A        -1.1070    3.6270    3.4900 h1        1 D7V      0.070500
     27 H2B        -0.2750    3.2070    2.1530 h1        1 D7V      0.070500
     28 H3          0.9830    0.4190    3.5220 h1        1 D7V      0.070500
     29 H3A         1.1040    1.5340    2.3580 h1        1 D7V      0.070500
     30 H4          0.0560   -0.9570    1.9580 hc        1 D7V      0.102500
     31 H4A        -1.1950    0.0410    1.7140 hc        1 D7V      0.102500
     32 H5          1.0530    0.9900    0.2130 ha        1 D7V      0.127000
     33 H8          0.8300   -3.3000   -0.1240 ha        1 D7V      0.138000
     34 H9          2.8100   -4.4480   -0.8100 ha        1 D7V      0.133500
     35 H10         4.2360   -3.3930   -2.4630 ha        1 D7V      0.133500
     36 H11         3.6290   -1.2660   -3.3520 ha        1 D7V      0.135000
     37 H13         1.6610    0.3270   -3.8270 h1        1 D7V      0.104000
     38 H13A        1.0280    0.9040   -2.4230 h1        1 D7V      0.104000
     39 H16        -2.2000    1.2770   -4.0080 ha        1 D7V      0.148000
     40 H17        -4.2950    1.1460   -2.9900 ha        1 D7V      0.133500
     41 H18        -4.4770   -0.0720   -0.9660 ha        1 D7V      0.133500
     42 H19        -2.5890   -1.1280    0.0010 ha        1 D7V      0.135000
@<TRIPOS>BOND
     1    1    2 1   
     2    1   22 1   
     3    1   23 1   
     4    1   24 1   
     5    2    4 1   
     6    2    5 1   
     7    3   15 1   
     8    3   16 1   
     9    4   25 1   
    10    4   26 1   
    11    4   27 1   
    12    5    6 1   
    13    5   28 1   
    14    5   29 1   
    15    6    7 1   
    16    6   30 1   
    17    6   31 1   
    18    7    8 1   
    19    7   32 1   
    20    8   17 1   
    21    9   10 1   
    22    9   14 1   
    23   10   33 1   
    24   11   12 1   
    25   11   34 1   
    26   12   35 1   
    27   13   14 1   
    28   13   36 1   
    29   14   15 1   
    30   15   37 1   
    31   15   38 1   
    32   16   17 1   
    33   16   18 1   
    34   17   21 1   
    35   18   39 1   
    36   19   20 1   
    37   19   40 1   
    38   20   41 1   
    39   21   42 1   
@<TRIPOS>SUBSTRUCTURE
     1 D7V         1 TEMP              0 ****  ****    0 ROOT
