@<TRIPOS>MOLECULE
D80
   33    35     1     0     0
SMALL
bcc


@<TRIPOS>ATOM
      1 NAR         0.0250    0.4170   -0.0640 nh        1 D80     -0.944500
      2 CAG         1.4010    0.2980    0.0090 ca        1 D80      0.736200
      3 NAI         2.0230    0.1530    1.1990 nb        1 D80     -0.763000
      4 CAA         3.3830   -0.0610    1.2460 ca        1 D80      0.465600
      5 CAC         4.0070   -0.2290    2.5260 ca        1 D80     -0.190300
      6 CAE         5.3610   -0.4420    2.6250 ca        1 D80     -0.103000
      7 CAF         6.1810   -0.5020    1.4760 ca        1 D80     -0.153000
      8 CAD         5.6260   -0.3450    0.2270 ca        1 D80     -0.080000
      9 CAB         4.2380   -0.1240    0.0930 ca        1 D80     -0.167300
     10 CAJ         3.5680    0.0540   -1.1340 ca        1 D80      0.102100
     11 OAM         4.0820    0.0660   -2.4210 os        1 D80     -0.297700
     12 CAH         2.1700    0.2710   -1.2200 ca        1 D80     -0.118900
     13 NAK         1.8070    0.4210   -2.5700 nc        1 D80     -0.539100
     14 CAL         2.9420    0.2970   -3.2540 cd        1 D80      0.516600
     15 CAN         3.2390    0.3340   -4.7050 c3        1 D80     -0.086700
     16 CAO         2.5180    1.4730   -5.3970 c3        1 D80     -0.078400
     17 CAP         2.8590    1.5000   -6.8730 c3        1 D80     -0.081400
     18 CAQ         2.1480    2.6270   -7.5780 c3        1 D80     -0.093100
     19 H1         -0.3480    0.7690   -0.9130 hn        1 D80      0.432800
     20 H2         -0.4790    0.6070    0.7690 hn        1 D80      0.432800
     21 H3          3.3810   -0.1860    3.4310 ha        1 D80      0.151000
     22 H4          5.8250   -0.5700    3.6150 ha        1 D80      0.134000
     23 H5          7.2600   -0.6750    1.5930 ha        1 D80      0.136000
     24 H6          6.2430   -0.3870   -0.6830 ha        1 D80      0.142000
     25 H7          2.9260   -0.6490   -5.1530 hc        1 D80      0.074200
     26 H8          4.3490    0.4360   -4.8420 hc        1 D80      0.074200
     27 H9          1.4090    1.3560   -5.2680 hc        1 D80      0.056700
     28 H10         2.8080    2.4470   -4.9250 hc        1 D80      0.056700
     29 H11         2.5730    0.5210   -7.3420 hc        1 D80      0.040200
     30 H12         3.9680    1.6160   -7.0000 hc        1 D80      0.040200
     31 H13         2.4110    2.6300   -8.6630 hc        1 D80      0.035700
     32 H14         1.0410    2.5150   -7.4830 hc        1 D80      0.035700
     33 H15         2.4400    3.6120   -7.1400 hc        1 D80      0.035700
@<TRIPOS>BOND
     1    1    2 1   
     2    1   19 1   
     3    1   20 1   
     4    2    3 ar  
     5    2   12 ar  
     6    3    4 ar  
     7    4    5 ar  
     8    4    9 ar  
     9    5    6 ar  
    10    5   21 1   
    11    6    7 ar  
    12    6   22 1   
    13    7    8 ar  
    14    7   23 1   
    15    8    9 ar  
    16    8   24 1   
    17    9   10 ar  
    18   10   11 1   
    19   10   12 ar  
    20   11   14 1   
    21   12   13 1   
    22   13   14 2   
    23   14   15 1   
    24   15   16 1   
    25   15   25 1   
    26   15   26 1   
    27   16   17 1   
    28   16   27 1   
    29   16   28 1   
    30   17   18 1   
    31   17   29 1   
    32   17   30 1   
    33   18   31 1   
    34   18   32 1   
    35   18   33 1   
@<TRIPOS>SUBSTRUCTURE
     1 D80         1 TEMP              0 ****  ****    0 ROOT
