@<TRIPOS>MOLECULE
D80
   33    35     1     0     0
SMALL
bcc


@<TRIPOS>ATOM
      1 NAR         0.0370    0.4010   -0.0450 nv        1 D80     -0.944500
      2 CAG         1.4140    0.2890    0.0190 ca        1 D80      0.736200
      3 NAI         2.0440    0.1480    1.2050 nb        1 D80     -0.763000
      4 CAA         3.4060   -0.0600    1.2440 ca        1 D80      0.465600
      5 CAC         4.0380   -0.2250    2.5210 ca        1 D80     -0.190300
      6 CAE         5.3930   -0.4310    2.6100 ca        1 D80     -0.103000
      7 CAF         6.2070   -0.4880    1.4560 ca        1 D80     -0.153000
      8 CAD         5.6430   -0.3350    0.2110 ca        1 D80     -0.080000
      9 CAB         4.2540   -0.1200    0.0860 ca        1 D80     -0.167300
     10 CAJ         3.5750    0.0540   -1.1370 ca        1 D80      0.102100
     11 OAM         4.0800    0.0670   -2.4280 os        1 D80     -0.297700
     12 CAH         2.1760    0.2650   -1.2140 ca        1 D80     -0.118900
     13 NAK         1.8030    0.4120   -2.5620 nc        1 D80     -0.539100
     14 CAL         2.9340    0.2930   -3.2530 cd        1 D80      0.516600
     15 CAN         3.2210    0.3300   -4.7060 c3        1 D80     -0.086700
     16 CAO         2.4990    1.4720   -5.3930 c3        1 D80     -0.078400
     17 CAP         2.8290    1.4990   -6.8710 c3        1 D80     -0.081400
     18 CAQ         2.1180    2.6290   -7.5690 c3        1 D80     -0.093100
     19 H1         -0.3430    0.7510   -0.8920 hn        1 D80      0.432800
     20 H2         -0.4620    0.5890    0.7910 hn        1 D80      0.432800
     21 H3          3.4170   -0.1840    3.4290 ha        1 D80      0.151000
     22 H4          5.8640   -0.5570    3.5980 ha        1 D80      0.134000
     23 H5          7.2870   -0.6560    1.5660 ha        1 D80      0.136000
     24 H6          6.2540   -0.3750   -0.7040 ha        1 D80      0.142000
     25 H7          2.9030   -0.6510   -5.1530 hc        1 D80      0.074200
     26 H8          4.3310    0.4290   -4.8510 hc        1 D80      0.074200
     27 H9          1.3910    1.3580   -5.2550 hc        1 D80      0.056700
     28 H10         2.7950    2.4450   -4.9210 hc        1 D80      0.056700
     29 H11         2.5360    0.5220   -7.3380 hc        1 D80      0.040200
     30 H12         3.9380    1.6110   -7.0050 hc        1 D80      0.040200
     31 H13         2.3730    2.6330   -8.6570 hc        1 D80      0.035700
     32 H14         1.0110    2.5220   -7.4660 hc        1 D80      0.035700
     33 H15         2.4160    3.6130   -7.1330 hc        1 D80      0.035700
@<TRIPOS>BOND
     1    1    2 1   
     2    1   19 1   
     3    1   20 1   
     4    2    3 ar  
     5    2   12 ar  
     6    3    4 ar  
     7    4    5 ar  
     8    4    9 ar  
     9    5    6 ar  
    10    5   21 1   
    11    6    7 ar  
    12    6   22 1   
    13    7    8 ar  
    14    7   23 1   
    15    8    9 ar  
    16    8   24 1   
    17    9   10 ar  
    18   10   11 1   
    19   10   12 ar  
    20   11   14 1   
    21   12   13 1   
    22   13   14 2   
    23   14   15 1   
    24   15   16 1   
    25   15   25 1   
    26   15   26 1   
    27   16   17 1   
    28   16   27 1   
    29   16   28 1   
    30   17   18 1   
    31   17   29 1   
    32   17   30 1   
    33   18   31 1   
    34   18   32 1   
    35   18   33 1   
@<TRIPOS>SUBSTRUCTURE
     1 D80         1 TEMP              0 ****  ****    0 ROOT
