@<TRIPOS>MOLECULE
D83
   46    33     1     0     0
SMALL
bcc


@<TRIPOS>ATOM
      1 NAA        -1.0420    1.5870   -6.8910 n1        1 D83     -0.295000
      2 NAB         0.7650   -5.4690    5.6910 n3        1 D83     -0.397000
      3 NAC         0.7240    2.8170   -7.8500 n3        1 D83     -0.400000
      4 NAD        -0.1700   -5.4550    3.5260 n1        1 D83     -0.299000
      5 CAE        -0.0410    3.3890   -4.5730 c1        1 D83     -0.107500
      6 CAF         1.2010    1.3430   -4.7500 c1        1 D83     -0.121500
      7 CAG        -0.1460    3.2070   -3.2040 c1        1 D83     -0.107500
      8 CAH         1.0960    1.1610   -3.3800 c1        1 D83     -0.121500
      9 CAI        -0.8780    1.1330   -0.8330 c1        1 D83     -0.107500
     10 CAJ         1.1910    2.2460   -0.3380 c1        1 D83     -0.121500
     11 CAK        -1.0190    0.7990    0.5060 c1        1 D83     -0.107500
     12 CAL         1.0510    1.9110    1.0000 c1        1 D83     -0.121500
     13 CAM        -1.5520   -2.9430    5.0430 c1        1 D83     -0.152000
     14 CAN        -2.0050   -1.7020    4.6190 c1        1 D83     -0.083000
     15 CAO         0.5890   -2.5060    4.0420 c1        1 D83     -0.094000
     16 CAP        -1.3330    0.4070    3.3650 c1        1 D83     -0.180000
     17 NAQ         0.7460   -0.2330    2.9010 n2        1 D83     -0.204000
     18 CAR         0.0620    2.2640   -6.7290 c1        1 D83      0.129000
     19 CAS         0.1130   -4.8050    4.6240 c2        1 D83      0.130000
     20 CAT         0.6330    2.4580   -5.3460 c1        1 D83     -0.033000
     21 CAU        -0.2550   -3.3450    4.7540 c1        1 D83     -0.036000
     22 CAV         0.4230    2.0930   -2.6070 c1        1 D83     -0.033000
     23 CAW         0.2270    1.8570   -1.2550 c1        1 D83     -0.033000
     24 CAX        -0.0550    1.1880    1.4220 c1        1 D83     -0.033000
     25 CAY        -0.1550    0.7840    2.7490 c1        1 D83      0.012000
     26 CAZ        -1.1500   -0.8510    3.8970 c1        1 D83     -0.077000
     27 CBA         0.1320   -1.2480    3.6120 c1        1 D83     -0.001000
     28 HNAA       -1.3870    1.4700   -7.7270 DU        1 D83      0.171000
     29 HNAB        1.2520   -6.2250    5.5300 hn        1 D83      0.194500
     30 HNAC        0.7070   -5.1360    6.5400 hn        1 D83      0.194500
     31 HNAD        0.2660    2.9570   -8.6270 hn        1 D83      0.196000
     32 HNAE        1.6090    3.0400   -7.7950 hn        1 D83      0.196000
     33 HNAF        0.0520   -6.3380    3.4470 DU        1 D83      0.171000
     34 HAE        -0.4410    4.1750   -4.9940 ha        1 D83      0.144500
     35 HAF         1.6750    0.6870   -5.2940 ha        1 D83      0.134250
     36 HAG        -0.6200    3.8640   -2.6590 ha        1 D83      0.144500
     37 HAH         1.4970    0.3750   -2.9600 ha        1 D83      0.134250
     38 HAI        -1.5580    0.8590   -1.4780 ha        1 D83      0.144500
     39 HAJ         1.9710    2.7560   -0.6360 ha        1 D83      0.134250
     40 HAK        -1.7970    0.2900    0.8030 ha        1 D83      0.144500
     41 HAL         1.7290    2.1850    1.6450 ha        1 D83      0.134250
     42 HAM        -2.1460   -3.5340    5.5440 ha        1 D83      0.127000
     43 HAN        -2.9160   -1.4210    4.8220 ha        1 D83      0.136000
     44 HAO         1.5020   -2.7890    3.8400 ha        1 D83      0.152000
     45 HAP        -2.1510    0.9390    3.4140 DU        1 D83      0.171000
     46 HNAQ        1.6030   -0.2400    2.5870 DU        1 D83      0.171000
@<TRIPOS>BOND
     1    1   18 1   
     2    2   19 1   
     3    2   29 1   
     4    2   30 1   
     5    3   18 1   
     6    3   31 1   
     7    3   32 1   
     8    4   19 1   
     9    5    7 1   
    10    5   34 1   
    11    6   20 1   
    12    6   35 1   
    13    7   36 1   
    14    8   22 1   
    15    8   37 1   
    16    9   11 1   
    17    9   38 1   
    18   10   23 1   
    19   10   39 1   
    20   11   40 1   
    21   12   24 1   
    22   12   41 1   
    23   13   21 1   
    24   13   42 1   
    25   14   26 1   
    26   14   43 1   
    27   15   27 1   
    28   15   44 1   
    29   16   25 1   
    30   16   26 1   
    31   17   25 1   
    32   17   27 1   
    33   19   21 1   
@<TRIPOS>SUBSTRUCTURE
     1 D83         1 TEMP              0 ****  ****    0 ROOT
