@<TRIPOS>MOLECULE
D83
   46    49     1     0     0
SMALL
bcc


@<TRIPOS>ATOM
      1 NAA        -8.8050   -0.5950    0.7460 n2        1 D83     -0.824100
      2 NAB         8.6900    0.4790   -0.7970 nh        1 D83     -0.894800
      3 NAC        -8.6440    1.4080   -0.6210 nh        1 D83     -0.958800
      4 NAD         8.0610    1.7220    1.1160 n2        1 D83     -0.840100
      5 CAE        -6.0210   -1.0260   -0.2390 ca        1 D83     -0.099500
      6 CAF        -5.8570    1.3110    0.3720 ca        1 D83     -0.099500
      7 CAG        -4.6320   -1.1200   -0.2470 ca        1 D83     -0.125500
      8 CAH        -4.4680    1.2140    0.3640 ca        1 D83     -0.125500
      9 CAI        -1.6010    0.9370   -0.4810 ca        1 D83     -0.116000
     10 CAJ        -1.7440   -1.2380    0.5590 ca        1 D83     -0.116000
     11 CAK        -0.2130    0.8430   -0.4920 ca        1 D83     -0.116500
     12 CAL        -0.3570   -1.3330    0.5540 ca        1 D83     -0.116500
     13 CAM         6.4120   -1.2590    0.0040 ca        1 D83     -0.129000
     14 CAN         5.2110   -1.9490   -0.0530 ca        1 D83     -0.087000
     15 CAO         5.2730    0.9000    0.1480 ca        1 D83     -0.129000
     16 CAP         2.6210   -1.6030   -0.0500 cc        1 D83     -0.170200
     17 NAQ         2.7400    0.6830    0.0820 na        1 D83     -0.184400
     18 CAR        -8.1320    0.2880    0.0720 ce        1 D83      0.649800
     19 CAT        -6.6370    0.1920    0.0640 ca        1 D83     -0.137900
     20 CAU         6.4410    0.1480    0.1040 ca        1 D83     -0.179900
     21 CAV        -3.8410   -0.0010    0.0520 cp        1 D83     -0.030000
     22 CAW        -2.3830   -0.1010    0.0430 cp        1 D83     -0.032000
     23 CAX         0.4250   -0.2920    0.0280 ca        1 D83     -0.037800
     24 CAY         1.8710   -0.4230    0.0230 cd        1 D83      0.000700
     25 CAZ         4.0130   -1.2330   -0.0140 ca        1 D83     -0.084800
     26 CBA         4.0530    0.2110    0.0850 ca        1 D83     -0.044200
     27 HNAA       -9.7990   -0.5050    0.7330 hn        1 D83      0.383400
     28 HNAB        9.4960    1.0610   -0.8750 hn        1 D83      0.399300
     29 HNAC        8.2710    0.2580   -1.6720 hn        1 D83      0.399300
     30 HNAD       -9.5930    1.3580   -0.9120 hn        1 D83      0.398800
     31 HNAE       -8.0320    1.8120   -1.2910 hn        1 D83      0.398800
     32 HNAF        7.3580    1.8340    1.8130 hn        1 D83      0.393400
     33 HAE        -6.6330   -1.9140   -0.4620 ha        1 D83      0.147500
     34 HAF        -6.3360    2.2660    0.6370 ha        1 D83      0.147500
     35 HAG        -4.1510   -2.0790   -0.4920 ha        1 D83      0.138000
     36 HAH        -3.8580    2.0940    0.6160 ha        1 D83      0.138000
     37 HAI        -2.0910    1.8310   -0.8990 ha        1 D83      0.140000
     38 HAJ        -2.3460   -2.0580    0.9820 ha        1 D83      0.140000
     39 HAK         0.3770    1.6630   -0.9290 ha        1 D83      0.137500
     40 HAL         0.1360   -2.2260    0.9690 ha        1 D83      0.137500
     41 HAM         7.3630   -1.8130   -0.0190 ha        1 D83      0.148000
     42 HAN         5.1960   -3.0460   -0.1280 ha        1 D83      0.139000
     43 HAO         5.3010    1.9960    0.2250 ha        1 D83      0.139000
     44 HAP         2.2300   -2.6130   -0.1310 ha        1 D83      0.160000
     45 HNAQ        2.4630    1.6140    0.2470 hn        1 D83      0.300700
     46 CAS         7.7570    0.8620    0.1890 ce        1 D83      0.641800
@<TRIPOS>BOND
     1    1   18 2   
     2    1   27 1   
     3    2   28 1   
     4    2   29 1   
     5    2   46 1   
     6    3   18 1   
     7    3   30 1   
     8    3   31 1   
     9    4   32 1   
    10    4   46 2   
    11    5    7 ar  
    12    5   19 ar  
    13    5   33 1   
    14    6    8 ar  
    15    6   19 ar  
    16    6   34 1   
    17    7   21 ar  
    18    7   35 1   
    19    8   21 ar  
    20    8   36 1   
    21    9   11 ar  
    22    9   22 ar  
    23    9   37 1   
    24   10   12 ar  
    25   10   22 ar  
    26   10   38 1   
    27   11   23 ar  
    28   11   39 1   
    29   12   23 ar  
    30   12   40 1   
    31   13   14 ar  
    32   13   20 ar  
    33   13   41 1   
    34   14   25 ar  
    35   14   42 1   
    36   15   20 ar  
    37   15   26 ar  
    38   15   43 1   
    39   16   24 2   
    40   16   25 1   
    41   16   44 1   
    42   17   24 1   
    43   17   26 1   
    44   17   45 1   
    45   18   19 1   
    46   20   46 1   
    47   21   22 1   
    48   23   24 1   
    49   25   26 ar  
@<TRIPOS>SUBSTRUCTURE
     1 D83         1 TEMP              0 ****  ****    0 ROOT
