@<TRIPOS>MOLECULE
D83
   46    42     1     0     0
SMALL
bcc


@<TRIPOS>ATOM
      1 NAA         0.8290   -1.7200    0.5050 n2        1 D83     -0.290000
      2 NAB         8.5890    2.4080   12.3460 n3        1 D83     -0.331000
      3 NAC         1.0260    0.6210    0.1790 n3        1 D83     -0.327000
      4 NAD        10.1770    0.7060   12.7890 n2        1 D83     -0.305000
      5 CAE         2.8780   -0.2540    2.9820 c1        1 D83     -0.156000
      6 CAF         6.0500    0.5590    1.6600 c1        1 D83     -0.222000
      7 CAG         4.6450    2.5340    6.7740 c2        1 D83     -0.027000
      8 CAH         7.2230    0.7920    1.6730 c1        1 D83     -0.222000
      9 CAI         5.3000   -0.3210    5.7970 c1        1 D83     -0.105000
     10 CAJ         3.8230    1.7260    7.5690 c1        1 D83     -0.150000
     11 CAK         5.1040   -1.4420    6.3350 c1        1 D83     -0.105000
     12 CAL         3.0970    1.0790    8.2700 c1        1 D83     -0.173000
     13 CAM         9.1700    1.5060    9.5390 c2        1 D83     -0.188000
     14 CAN         3.2350   -2.4630   11.5060 c1        1 D83      0.251000
     15 CAO         8.5170   -0.6420   10.5690 c2        1 D83     -0.208000
     16 CAP         4.0470   -3.0600    9.2800 c1        1 D83     -0.069000
     17 NAQ         7.9410   -1.8910    8.4250 n2        1 D83     -0.185000
     18 CAR         1.2900   -0.5670    0.8970 c2        1 D83      0.190000
     19 CAT         2.1560   -0.3850    2.0370 c1        1 D83     -0.205000
     20 CAU         8.9860    0.7270   10.6130 c2        1 D83     -0.080000
     21 CAV         5.3960    2.1420    5.7280 c2        1 D83     -0.124000
     22 CAW         5.5540    0.8160    5.1880 c2        1 D83     -0.047000
     23 CAX         4.9160   -2.6310    6.8690 c2        1 D83      0.014000
     24 CAY         4.4520   -2.8480    8.1700 c1        1 D83     -0.123000
     25 CAZ         3.5840   -3.3250   10.5660 c2        1 D83     -0.372000
     26 CBA         8.1360   -1.2530    9.4600 c1        1 D83      0.024000
     27 HNAA        1.1630   -2.5020    1.0250 hn        1 D83      0.157000
     28 HNAB        7.6600    2.4250   11.9880 hn        1 D83      0.192000
     29 HNAC        8.6490    2.6720   13.3060 hn        1 D83      0.192000
     30 HNAD        0.9440    1.4260    0.7590 hn        1 D83      0.197000
     31 HNAE        0.3060    0.5490   -0.5070 hn        1 D83      0.197000
     32 HNAF       10.6780   -0.0570   12.3870 hn        1 D83      0.152000
     33 HAE         4.6380    3.6060    7.0580 ha        1 D83      0.142000
     34 HAF         5.0070    0.3510    1.6400 ha        1 D83      0.223000
     35 HAG         3.5140   -0.1430    3.8290 ha        1 D83      0.236000
     36 HAH         5.9700    2.9160    5.1820 ha        1 D83      0.137000
     37 HAI         8.2640    0.9960    1.6800 ha        1 D83      0.223000
     38 HAJ         5.9550    0.7730    4.1500 ha        1 D83      0.156000
     39 HAK         5.1300   -3.5430    6.2740 ha        1 D83      0.163000
     40 HAL         2.4550    0.5040    8.8870 ha        1 D83      0.227000
     41 HAM         8.9840    1.1470    8.5180 ha        1 D83      0.125000
     42 HAN         9.5250    2.5420    9.6220 ha        1 D83      0.125000
     43 HAO         8.4850   -1.2040   11.5180 ha        1 D83      0.164000
     44 HAP         3.4980   -4.4090   10.8290 ha        1 D83      0.208000
     45 HNAQ        7.0260   -1.9490    8.0210 hn        1 D83      0.207000
     46 CAS         9.2950    1.2370   11.9960 c2        1 D83      0.111000
@<TRIPOS>BOND
     1    1   18 1   
     2    1   27 1   
     3    2   28 1   
     4    2   29 1   
     5    2   46 1   
     6    3   18 1   
     7    3   30 1   
     8    3   31 1   
     9    4   32 1   
    10    4   46 1   
    11    5   19 1   
    12    5   35 1   
    13    6    8 1   
    14    6   34 1   
    15    7   10 1   
    16    7   21 1   
    17    7   33 1   
    18    8   37 1   
    19    9   11 1   
    20    9   22 1   
    21   10   12 1   
    22   11   23 1   
    23   12   40 1   
    24   13   20 1   
    25   13   41 1   
    26   13   42 1   
    27   14   25 1   
    28   15   20 1   
    29   15   26 1   
    30   15   43 1   
    31   16   24 1   
    32   16   25 1   
    33   17   26 1   
    34   17   45 1   
    35   18   19 1   
    36   20   46 1   
    37   21   22 1   
    38   21   36 1   
    39   22   38 1   
    40   23   24 1   
    41   23   39 1   
    42   25   44 1   
@<TRIPOS>SUBSTRUCTURE
     1 D83         1 TEMP              0 ****  ****    0 ROOT
