@<TRIPOS>MOLECULE
D83
   48    68     1     0     0
SMALL
bcc


@<TRIPOS>ATOM
      1 NAA         0.0000    0.0000    0.0000 n2        1 D83      0.112000
      2 NAB        10.4810    0.0250   14.3080 nz        1 D83      0.422000
      3 NAC         1.9920   -0.0030   -1.1930 nz        1 D83      0.220000
      4 NAD        11.6030    0.0130   12.2740 n2        1 D83      0.103000
      5 CAE         1.3450    0.0030    2.4910 c3        1 D83      0.186000
      6 CAF         3.4390    0.0000    1.2810 c2        1 D83     -0.265000
      7 CAG         2.0340    0.0000    3.6830 c2        1 D83      0.562000
      8 CAH         4.1270   -0.0090    2.4740 c2        1 D83     -0.043000
      9 CAI         5.5670   -0.0160    4.9650 c3        1 D83     -0.093000
     10 CAJ         3.4730   -0.0070    6.1740 c2        1 D83     -0.229000
     11 CAK         6.2550   -0.0140    6.1560 c2        1 D83      0.010000
     12 CAL         4.1600    0.0010    7.3660 c2        1 D83      0.056000
     13 CAM         7.9840    0.0290   12.9020 c3        1 D83     -0.202000
     14 CAN         6.7940    0.0300   12.2370 c2        1 D83      0.210000
     15 CAO         9.1920    0.0160   10.8020 c2        1 D83     -0.082000
     16 CAP         5.7310    0.0170    9.8790 c3        1 D83     -0.004000
     17 NAQ         7.6660   -0.0010    8.7740 n7        1 D83     -0.009000
     18 CAR         1.3030    0.0000    0.0000 DU        1 D83     -0.319000
     19 CAT         2.0430    0.0020    1.2820 c2        1 D83     -0.029000
     20 CAU         9.1930    0.0220   12.1940 c3        1 D83     -0.111000
     21 CAV         3.4300   -0.0060    3.6820 c3        1 D83      0.328000
     22 CAW         4.1710   -0.0100    4.9660 c2        1 D83     -0.059000
     23 CAX         5.5580   -0.0050    7.3670 c3        1 D83      0.529000
     24 CAY         6.2960    0.0030    8.6460 c3        1 D83     -0.009000
     25 CAZ         6.7750    0.0190   10.8350 c3        1 D83     -0.160000
     26 CBA         7.9870    0.0050   10.1150 DU        1 D83     -0.173000
     27 HNAA        0.6360    0.0010    0.7730 DU        1 D83      0.128000
     28 HNAB        9.8940    0.0240   13.4970 DU        1 D83     -0.115000
     29 HNAC       10.9210   -0.7990   13.9480 hn        1 D83      0.125000
     30 HNAD        2.5020   -0.0020   -0.3320 DU        1 D83      0.304000
     31 HNAE        1.9870   -0.8510   -1.7250 hn        1 D83      0.146000
     32 HNAF       11.0370    0.0620   11.4500 hn        1 D83      0.148000
     33 HAE         2.1400    0.0040    3.2260 DU        1 D83     -0.507000
     34 HAF         2.4260    0.0020    1.6660 ha        1 D83      0.100000
     35 HAG         2.5790   -0.0000    2.7470 DU        1 D83     -0.347000
     36 HAH         3.2880   -0.0060    3.1580 ha        1 D83      0.094000
     37 HAI         5.4150   -0.0130    3.8920 hc        1 D83      0.194000
     38 HAJ         4.3130   -0.0110    5.4890 ha        1 D83      0.192000
     39 HAK         5.1720   -0.0110    6.1610 DU        1 D83     -0.084000
     40 HAL         5.1730   -0.0060    6.9810 ha        1 D83     -0.379000
     41 HAM         7.2370    0.0200   12.1160 hc        1 D83      0.054000
     42 HAN         7.4070    0.0320   13.1310 DU        1 D83      0.134000
     43 HAO         8.2620    0.0220   11.3580 DU        1 D83      0.241000
     44 HAP         6.8100    0.0150    9.9720 DU        1 D83     -0.020000
     45 HNAQ        6.7810    0.0100    9.2420 DU        1 D83      0.229000
     46 HAB3       10.1610    0.0990   13.3630 DU        1 D83      0.125000
     47 HAC3        2.4420   -0.0430   -0.3000 DU        1 D83      0.304000
     48 CAS        10.4760    0.0190   12.9290 c3        1 D83     -0.020000
@<TRIPOS>BOND
     1    1   18 1   
     2    1   27 1   
     3    2   28 1   
     4    2   29 1   
     5    2   46 1   
     6    2   48 1   
     7    3   18 1   
     8    3   30 1   
     9    3   31 1   
    10    3   47 1   
    11    4   32 1   
    12    4   48 1   
    13    5    7 1   
    14    5   19 1   
    15    5   33 1   
    16    5   35 1   
    17    6    8 1   
    18    6   19 1   
    19    6   34 1   
    20    7   21 1   
    21    7   35 1   
    22    8   21 1   
    23    8   36 1   
    24    9   11 1   
    25    9   22 1   
    26    9   37 1   
    27    9   39 1   
    28   10   12 1   
    29   10   22 1   
    30   10   38 1   
    31   11   23 1   
    32   11   39 1   
    33   12   23 1   
    34   12   40 1   
    35   13   14 1   
    36   13   20 1   
    37   13   41 1   
    38   13   42 1   
    39   14   25 1   
    40   14   42 1   
    41   15   20 1   
    42   15   26 1   
    43   15   43 1   
    44   16   24 1   
    45   16   25 1   
    46   16   44 1   
    47   16   45 1   
    48   17   24 1   
    49   17   26 1   
    50   17   45 1   
    51   18   19 1   
    52   18   27 1   
    53   18   30 1   
    54   18   47 1   
    55   20   43 1   
    56   20   48 1   
    57   21   22 1   
    58   21   35 1   
    59   23   24 1   
    60   23   39 1   
    61   24   45 1   
    62   25   26 1   
    63   25   44 1   
    64   26   43 1   
    65   26   44 1   
    66   28   46 1   
    67   28   48 1   
    68   33   35 1   
@<TRIPOS>SUBSTRUCTURE
     1 D83         1 TEMP              0 ****  ****    0 ROOT
