@<TRIPOS>MOLECULE
D87
   34    36     1     0     0
SMALL
bcc


@<TRIPOS>ATOM
      1 CAQ         0.0770    0.4480   -0.0710 c3        1 D87     -0.093100
      2 CAP         1.5570    0.1730   -0.0040 c3        1 D87     -0.080400
      3 CAO         2.0300    0.0500    1.4290 c3        1 D87     -0.079400
      4 CAN         3.5200   -0.2350    1.4850 c3        1 D87     -0.021200
      5 CAL         4.0070   -0.3310    2.8700 cc        1 D87      0.041900
      6 CAM         4.3810   -1.3950    3.6700 cd        1 D87     -0.177200
      7 OAK         4.1440    0.8930    3.5560 os        1 D87     -0.183200
      8 CAH         4.6170    0.5560    4.8210 ca        1 D87     -0.112200
      9 CAJ         4.7820   -0.8370    4.9420 ca        1 D87     -0.040800
     10 CAB         5.2660   -1.3590    6.1690 ca        1 D87     -0.133300
     11 CAD         5.4620   -2.7380    6.4030 ca        1 D87     -0.099000
     12 CAF         5.9390   -3.1770    7.6170 ca        1 D87     -0.141000
     13 CAE         6.2350   -2.2480    8.6370 ca        1 D87     -0.120000
     14 CAC         6.0550   -0.8990    8.4430 ca        1 D87     -0.176300
     15 CAA         5.5600   -0.4020    7.1940 ca        1 D87      0.427600
     16 NAI         5.4040    0.9650    7.0510 nb        1 D87     -0.730000
     17 CAG         4.9200    1.4620    5.8990 ca        1 D87      0.683200
     18 NAR         4.6360    2.8210    5.7480 nv        1 D87     -0.925500
     19 H1         -0.5000   -0.3790    0.4090 hc        1 D87      0.035033
     20 H2         -0.1710    1.4000    0.4570 hc        1 D87      0.035033
     21 H3         -0.2520    0.5370   -1.1340 hc        1 D87      0.035033
     22 H4          1.7900   -0.7750   -0.5580 hc        1 D87      0.039200
     23 H5          2.1180    1.0000   -0.5140 hc        1 D87      0.039200
     24 H6          1.4680   -0.7730    1.9430 hc        1 D87      0.052700
     25 H7          1.8130    1.0000    1.9850 hc        1 D87      0.052700
     26 H8          3.7440   -1.2030    0.9600 hc        1 D87      0.064700
     27 H9          4.0770    0.5830    0.9510 hc        1 D87      0.064700
     28 H10         4.3800   -2.4500    3.4100 ha        1 D87      0.168000
     29 H11         5.2250   -3.4480    5.5970 ha        1 D87      0.132000
     30 H12         6.0930   -4.2500    7.8030 ha        1 D87      0.133000
     31 H13         6.6150   -2.6190    9.6010 ha        1 D87      0.133000
     32 H14         6.2880   -0.1840    9.2470 ha        1 D87      0.148000
     33 H15         5.0450    3.4370    6.4150 hn        1 D87      0.414300
     34 H16         4.6660    3.1390    4.8050 hn        1 D87      0.414300
@<TRIPOS>BOND
     1    1    2 1   
     2    1   19 1   
     3    1   20 1   
     4    1   21 1   
     5    2    3 1   
     6    2   22 1   
     7    2   23 1   
     8    3    4 1   
     9    3   24 1   
    10    3   25 1   
    11    4    5 1   
    12    4   26 1   
    13    4   27 1   
    14    5    6 2   
    15    5    7 1   
    16    6    9 1   
    17    6   28 1   
    18    7    8 1   
    19    8    9 ar  
    20    8   17 ar  
    21    9   10 ar  
    22   10   11 ar  
    23   10   15 ar  
    24   11   12 ar  
    25   11   29 1   
    26   12   13 ar  
    27   12   30 1   
    28   13   14 ar  
    29   13   31 1   
    30   14   15 ar  
    31   14   32 1   
    32   15   16 ar  
    33   16   17 ar  
    34   17   18 1   
    35   18   33 1   
    36   18   34 1   
@<TRIPOS>SUBSTRUCTURE
     1 D87         1 TEMP              0 ****  ****    0 ROOT
