@<TRIPOS>MOLECULE
D87
   35    37     1     0     0
SMALL
bcc


@<TRIPOS>ATOM
      1 CAQ         0.5340   -0.9930   -0.4630 c3        1 D87     -0.096100
      2 CAP         1.3630    0.1290    0.1070 c3        1 D87     -0.079400
      3 CAO         2.0550   -0.2970    1.3860 c3        1 D87     -0.079400
      4 CAN         2.8850    0.8410    1.9480 c3        1 D87     -0.038200
      5 CAL         3.5690    0.4550    3.1920 cc        1 D87      0.100900
      6 CAM         3.6210   -0.6980    3.9510 cd        1 D87     -0.172200
      7 OAK         4.3670    1.4800    3.7680 os        1 D87     -0.213200
      8 CAH         4.9130    0.9140    4.9120 ca        1 D87     -0.094200
      9 CAJ         4.4870   -0.4290    5.0770 ca        1 D87     -0.009800
     10 CAB         4.9510   -1.1510    6.2000 ca        1 D87     -0.066300
     11 CAD         4.5930   -2.4940    6.4630 ca        1 D87     -0.118000
     12 CAF         5.0790   -3.1390    7.5760 ca        1 D87     -0.073000
     13 CAE         5.9440   -2.4660    8.4720 ca        1 D87     -0.103000
     14 CAC         6.3180   -1.1630    8.2550 ca        1 D87     -0.150300
     15 CAA         5.8320   -0.4550    7.1050 ca        1 D87      0.390600
     16 NAI         6.2300    0.8500    6.9240 nb        1 D87     -0.618000
     17 CAG         5.7800    1.5140    5.8530 ca        1 D87      0.476200
     18 NAR         6.2070    2.9100    5.6420 n4        1 D87     -0.811300
     19 H1          1.1740   -1.8780   -0.6990 hc        1 D87      0.042367
     20 H2         -0.2540   -1.3120    0.2620 hc        1 D87      0.042367
     21 H3          0.0330   -0.6600   -1.4040 hc        1 D87      0.042367
     22 H4          2.1310    0.4510   -0.6450 hc        1 D87      0.045700
     23 H5          0.7070    1.0150    0.3130 hc        1 D87      0.045700
     24 H6          1.2890   -0.6170    2.1410 hc        1 D87      0.052700
     25 H7          2.7140   -1.1820    1.1810 hc        1 D87      0.052700
     26 H8          2.2260    1.7310    2.1520 hc        1 D87      0.082700
     27 H9          3.6530    1.1650    1.1920 hc        1 D87      0.082700
     28 H10         3.1090   -1.6390    3.7490 ha        1 D87      0.195000
     29 H11         3.9180   -3.0080    5.7580 ha        1 D87      0.159000
     30 H12         4.8010   -4.1850    7.7820 ha        1 D87      0.164000
     31 H13         6.3200   -3.0080    9.3570 ha        1 D87      0.165000
     32 H14         6.9920   -0.6480    8.9600 ha        1 D87      0.167000
     33 H15         7.1240    2.9160    5.1800 hn        1 D87      0.473467
     34 H16         5.5150    3.3710    5.0400 hn        1 D87      0.473467
     35 HAR3        6.2790    3.4090    6.5380 hn        1 D87      0.473467
@<TRIPOS>BOND
     1    1    2 1   
     2    1   19 1   
     3    1   20 1   
     4    1   21 1   
     5    2    3 1   
     6    2   22 1   
     7    2   23 1   
     8    3    4 1   
     9    3   24 1   
    10    3   25 1   
    11    4    5 1   
    12    4   26 1   
    13    4   27 1   
    14    5    6 2   
    15    5    7 1   
    16    6    9 1   
    17    6   28 1   
    18    7    8 1   
    19    8    9 ar  
    20    8   17 ar  
    21    9   10 ar  
    22   10   11 ar  
    23   10   15 ar  
    24   11   12 ar  
    25   11   29 1   
    26   12   13 ar  
    27   12   30 1   
    28   13   14 ar  
    29   13   31 1   
    30   14   15 ar  
    31   14   32 1   
    32   15   16 ar  
    33   16   17 ar  
    34   17   18 1   
    35   18   33 1   
    36   18   34 1   
    37   18   35 1   
@<TRIPOS>SUBSTRUCTURE
     1 D87         1 TEMP              0 ****  ****    0 ROOT
