@<TRIPOS>MOLECULE
D88
   65    62     1     0     0
SMALL
bcc


@<TRIPOS>ATOM
      1 CAA        -3.2560    0.9300   -1.4440 c3        1 D88     -0.084000
      2 O02        -7.0320   -2.3150    6.1420 os        1 D88     -0.219000
      3 CAC         3.2800    1.1780   -3.5820 c3        1 D88     -0.063000
      4 NAD        -1.4760    0.6060    7.4470 n1        1 D88     -0.036000
      5 CL1        -5.7270   -5.0460    6.0100 cl        1 D88      0.028000
      6 CL2        -2.7160   -5.0340    5.0170 cl        1 D88      0.020000
      7 CAG        -1.4150    0.4700    6.3510 c1        1 D88     -0.096000
      8 CAH         0.0580    0.4100    4.8380 c1        1 D88     -0.006000
      9 CAI        -3.6430   -3.5180    5.0790 c2        1 D88     -0.024000
     10 CAJ        -5.0630   -1.1060    5.2860 c1        1 D88     -0.180000
     11 CAK         0.6640    0.6150    1.2130 c1        1 D88     -0.192000
     12 CAL        -2.1320    0.3680    1.2880 c1        1 D88     -0.174000
     13 CAM         1.8240    0.7290   -3.2740 c3        1 D88     -0.167000
     14 CAN         1.6210    0.6690   -1.7310 c3        1 D88     -0.028000
     15 CAO         6.4730    1.7330   -6.7170 c3        1 D88     -0.128000
     16 CAP         4.9560    0.0740   -4.7770 c3        1 D88     -0.103000
     17 CAQ         3.6630    1.7430   -5.8560 c3        1 D88     -0.103000
     18 CAR         5.5300   -0.3390   -6.1300 c3        1 D88     -0.074500
     19 CAS         4.2320    1.3310   -7.2000 c3        1 D88     -0.074500
     20 NAT         0.7070    0.5160    3.6380 n1        1 D88     -0.140000
     21 NAU        -3.3520    0.1220    4.2230 n3        1 D88     -0.257000
     22 OAV        -2.0750    0.2090   -1.2180 os        1 D88     -0.182000
     23 OAW         0.2140    0.5630   -1.4310 os        1 D88     -0.183000
     24 CAX        -5.6640   -2.3100    5.6780 c2        1 D88      0.092000
     25 CAY        -4.9500   -3.5190    5.5730 c2        1 D88     -0.110000
     26 CAZ        -3.0430   -2.3130    4.6880 c2        1 D88     -0.179000
     27 CBA        -1.3330    0.2860    4.8710 c1        1 D88     -0.137000
     28 CBB        -3.7550   -1.1070    4.7920 c1        1 D88      0.082000
     29 CBC        -1.4680    0.4800    0.0420 c1        1 D88      0.074000
     30 CBD        -0.0840    0.6030    0.0030 c1        1 D88      0.105000
     31 CBE        -2.0360    0.2730    3.7220 c2        1 D88      0.149000
     32 CBF        -0.0100    0.5020    2.4680 c1        1 D88      0.041000
     33 CBG        -1.3810    0.3810    2.5040 c2        1 D88     -0.089000
     34 NBH         3.6880    0.6650   -4.8920 n3        1 D88     -0.250000
     35 NBI         5.5040    0.7350   -7.0850 n3        1 D88     -0.245000
     36 C01        -7.1610   -2.3660    7.5550 c3        1 D88     -0.075000
     37 HAA1       -3.9870    0.4920   -1.0030 h1        1 D88      0.090000
     38 HAA2       -3.1570    1.8380   -1.0900 h1        1 D88      0.090000
     39 HAA3       -3.4360    0.9720   -2.4180 h1        1 D88      0.090000
     40 H011       -6.8270   -3.2240    7.8810 h1        1 D88      0.086000
     41 H012       -6.6440   -1.6420    7.9570 h1        1 D88      0.086000
     42 H013       -8.1060   -2.2690    7.8010 h1        1 D88      0.086000
     43 HAC1        3.3260    2.1300   -3.5870 h1        1 D88      0.070000
     44 HAC2        3.8600    0.8400   -2.9150 h1        1 D88      0.070000
     45 HAM1        1.1740    1.3930   -3.6760 hc        1 D88      0.108000
     46 HAM2        1.6680   -0.1460   -3.6530 hc        1 D88      0.108000
     47 HAH         0.5710    0.3450    5.6640 ha        1 D88      0.173000
     48 HAZ        -2.1170   -2.3130    4.3370 ha        1 D88      0.167000
     49 HAJ        -5.5230   -0.2490    5.4580 ha        1 D88      0.160000
     50 HAK         1.6370    0.6070    1.1830 ha        1 D88      0.164000
     51 HAL        -3.1140    0.2790    1.3160 ha        1 D88      0.160000
     52 HAN1        2.0960   -0.1220   -1.3650 h1        1 D88      0.084000
     53 HAN2        1.9820    1.4830   -1.3220 h1        1 D88      0.084000
     54 HAO1        7.3650    1.3720   -6.8330 h1        1 D88      0.070667
     55 HAO2        6.3600    2.5460   -7.3050 h1        1 D88      0.070667
     56 HAO3        6.3460    1.9840   -5.7900 h1        1 D88      0.070667
     57 HAP1        4.8850   -0.7130   -4.2140 h1        1 D88      0.074000
     58 HAP2        5.5560    0.7030   -4.3600 h1        1 D88      0.074000
     59 HAR1        6.4790   -0.6350   -6.0020 h1        1 D88      0.098000
     60 HAR2        4.9900   -1.1150   -6.4940 h1        1 D88      0.098000
     61 HAQ1        4.2050    2.5200   -5.4960 h1        1 D88      0.074000
     62 HAQ2        2.7680    2.0240   -5.9780 h1        1 D88      0.074000
     63 HAS1        3.6100    0.6820   -7.6280 h1        1 D88      0.098000
     64 HAS2        4.3080    2.1580   -7.7940 h1        1 D88      0.098000
     65 HAU        -3.9190    0.8410    4.2390 hn        1 D88      0.229000
@<TRIPOS>BOND
     1    1   22 1   
     2    1   37 1   
     3    1   38 1   
     4    1   39 1   
     5    2   24 1   
     6    2   36 1   
     7    3   13 1   
     8    3   34 1   
     9    3   43 1   
    10    3   44 1   
    11    4    7 1   
    12    5   25 1   
    13    6    9 1   
    14    8   20 1   
    15    8   47 1   
    16    9   25 1   
    17    9   26 1   
    18   10   24 1   
    19   10   49 1   
    20   11   32 1   
    21   11   50 1   
    22   12   33 1   
    23   12   51 1   
    24   13   14 1   
    25   13   45 1   
    26   13   46 1   
    27   14   23 1   
    28   14   52 1   
    29   14   53 1   
    30   15   35 1   
    31   15   54 1   
    32   15   55 1   
    33   15   56 1   
    34   16   18 1   
    35   16   34 1   
    36   16   57 1   
    37   16   58 1   
    38   17   19 1   
    39   17   34 1   
    40   17   61 1   
    41   17   62 1   
    42   18   35 1   
    43   18   59 1   
    44   18   60 1   
    45   19   35 1   
    46   19   63 1   
    47   19   64 1   
    48   21   28 1   
    49   21   31 1   
    50   21   65 1   
    51   22   29 1   
    52   23   30 1   
    53   24   25 1   
    54   26   28 1   
    55   26   48 1   
    56   27   31 1   
    57   29   30 1   
    58   31   33 1   
    59   32   33 1   
    60   36   40 1   
    61   36   41 1   
    62   36   42 1   
@<TRIPOS>SUBSTRUCTURE
     1 D88         1 TEMP              0 ****  ****    0 ROOT
