@<TRIPOS>MOLECULE
D88
   65    68     1     0     0
SMALL
bcc


@<TRIPOS>ATOM
      1 CAA        -0.2840    1.8320    2.4040 c3        1 D88      0.105700
      2 CAC         6.2370   -0.3190   -0.5870 c3        1 D88      0.173800
      3 NAD        -4.8160   -4.7490   -0.7430 n1        1 D88     -0.361800
      4 CL1        -5.7860    3.6510   -0.0670 cl        1 D88     -0.044400
      5 CL2        -3.3090    2.6770   -1.6980 cl        1 D88     -0.059400
      6 CAH        -1.4140   -4.0700   -1.1740 ca        1 D88      0.460200
      7 CAI        -4.0370    1.6650   -0.5460 ca        1 D88      0.073400
      8 CAJ        -5.1890   -0.0600    1.3270 ca        1 D88     -0.249000
      9 CAK         1.2580   -1.7660   -0.4010 ca        1 D88     -0.257300
     10 CAL        -0.8630   -0.5160    0.9750 ca        1 D88     -0.172000
     11 CAM         4.9860    0.3250    0.0060 c3        1 D88     -0.088400
     12 CAN         3.7920   -0.5730   -0.2710 c3        1 D88      0.122400
     13 CAO        10.9190    0.2810    0.7320 c3        1 D88      0.148100
     14 CAP         8.4980   -0.0280   -1.3540 c3        1 D88      0.133800
     15 CAQ         7.7890    1.0160    0.7210 c3        1 D88      0.133800
     16 CAR         9.7730    0.8410   -1.3330 c3        1 D88      0.162300
     17 CAS         9.0780    1.8630    0.7130 c3        1 D88      0.162300
     18 NAT        -0.2140   -3.5270   -1.1500 nb        1 D88     -0.666000
     19 OAV         0.7660    1.1490    1.7240 os        1 D88     -0.298900
     20 CAX        -5.7220    1.2140    1.1240 ca        1 D88      0.173100
     21 CAY        -5.1500    2.1020    0.1830 ca        1 D88     -0.042600
     22 CAZ        -3.4950    0.3930   -0.3570 ca        1 D88     -0.206000
     23 CBA        -2.5660   -3.5030   -0.5430 ca        1 D88     -0.206300
     24 CBB        -4.0580   -0.4820    0.5900 ca        1 D88      0.186600
     25 CBC         0.4030    0.0200    1.0260 ca        1 D88      0.118100
     26 CBD         1.4840   -0.6140    0.3150 ca        1 D88      0.150100
     27 CBE        -2.4360   -2.2950    0.1610 ca        1 D88      0.231600
     28 CBF        -0.0500   -2.3470   -0.4500 ca        1 D88      0.435600
     29 CBG        -1.1250   -1.6970    0.2310 ca        1 D88     -0.153300
     30 NBH         7.3970    0.5630   -0.6050 n3        1 D88     -0.724600
     31 NBI        10.1970    1.2860   -0.0150 n3        1 D88     -0.719600
     32 C01        -7.4430    0.7920    2.7240 c3        1 D88      0.110700
     33 HAA1       -1.0640    2.1760    1.6840 h1        1 D88      0.050033
     34 HAA2       -0.7340    1.1780    3.1900 h1        1 D88      0.050033
     35 HAA3        0.2400    2.7050    2.8690 h1        1 D88      0.050033
     36 H011       -7.8130   -0.1170    2.1910 h1        1 D88      0.050367
     37 H012       -6.7440    0.5130    3.5480 h1        1 D88      0.050367
     38 H013       -8.3010    1.3950    3.1210 h1        1 D88      0.050367
     39 HAC1        6.4480   -1.2740   -0.0190 h1        1 D88      0.031200
     40 HAC2        6.0210   -0.6030   -1.6570 h1        1 D88      0.031200
     41 HAM1        5.0970    0.4620    1.1130 hc        1 D88      0.068700
     42 HAM2        4.8050    1.3370   -0.4420 hc        1 D88      0.068700
     43 HAH        -1.5160   -5.0210   -1.7310 h4        1 D88      0.036100
     44 HAZ        -2.6230    0.0810   -0.9550 ha        1 D88      0.167000
     45 HAJ        -5.6460   -0.7380    2.0640 ha        1 D88      0.150000
     46 HAK         2.0720   -2.2690   -0.9450 ha        1 D88      0.164000
     47 HAL        -1.6880   -0.0320    1.5200 ha        1 D88      0.160000
     48 HAN1        3.5570   -0.6140   -1.3670 h1        1 D88      0.044700
     49 HAN2        3.9620   -1.6110    0.1200 h1        1 D88      0.044700
     50 HAO1       11.8090   -0.0450    0.1320 h1        1 D88      0.031367
     51 HAO2       11.2820    0.7350    1.6910 h1        1 D88      0.031367
     52 HAO3       10.3040   -0.6270    0.9780 h1        1 D88      0.031367
     53 HAP1        8.1650   -0.1340   -2.4240 h1        1 D88      0.034700
     54 HAP2        8.7570   -1.0590   -0.9710 h1        1 D88      0.034700
     55 HAR1       10.6010    0.2540   -1.8170 h1        1 D88      0.058700
     56 HAR2        9.5920    1.7680   -1.9470 h1        1 D88      0.058700
     57 HAQ1        7.9280    0.1490    1.4330 h1        1 D88      0.034700
     58 HAQ2        6.9550    1.6580    1.1210 h1        1 D88      0.034700
     59 HAS1        8.8570    2.8580    0.2330 h1        1 D88      0.058700
     60 HAS2        9.3790    2.0460    1.7810 h1        1 D88      0.058700
     61 HAU        -4.2350   -2.4370    1.0910 hn        1 D88      0.431800
     62 CAG        -3.8030   -4.1830   -0.6490 cg        1 D88      0.233800
     63 NAU        -3.5320   -1.7600    0.8590 nh        1 D88     -0.625000
     64 OAW         2.6930    0.0270    0.4340 os        1 D88     -0.299900
     65 O02        -6.8150    1.6910    1.8150 os        1 D88     -0.308900
@<TRIPOS>BOND
     1    1   19 1   
     2    1   33 1   
     3    1   34 1   
     4    1   35 1   
     5    2   11 1   
     6    2   30 1   
     7    2   39 1   
     8    2   40 1   
     9    3   62 3   
    10    4   21 1   
    11    5    7 1   
    12    6   18 ar  
    13    6   23 ar  
    14    6   43 1   
    15    7   21 ar  
    16    7   22 ar  
    17    8   20 ar  
    18    8   24 ar  
    19    8   45 1   
    20    9   26 ar  
    21    9   28 ar  
    22    9   46 1   
    23   10   25 ar  
    24   10   29 ar  
    25   10   47 1   
    26   11   12 1   
    27   11   41 1   
    28   11   42 1   
    29   12   48 1   
    30   12   49 1   
    31   12   64 1   
    32   13   31 1   
    33   13   50 1   
    34   13   51 1   
    35   13   52 1   
    36   14   16 1   
    37   14   30 1   
    38   14   53 1   
    39   14   54 1   
    40   15   17 1   
    41   15   30 1   
    42   15   57 1   
    43   15   58 1   
    44   16   31 1   
    45   16   55 1   
    46   16   56 1   
    47   17   31 1   
    48   17   59 1   
    49   17   60 1   
    50   18   28 ar  
    51   19   25 1   
    52   20   21 ar  
    53   20   65 1   
    54   22   24 ar  
    55   22   44 1   
    56   23   27 ar  
    57   23   62 1   
    58   24   63 1   
    59   25   26 ar  
    60   26   64 1   
    61   27   29 ar  
    62   27   63 1   
    63   28   29 ar  
    64   32   36 1   
    65   32   37 1   
    66   32   38 1   
    67   32   65 1   
    68   61   63 1   
@<TRIPOS>SUBSTRUCTURE
     1 D88         1 TEMP              0 ****  ****    0 ROOT
