@<TRIPOS>MOLECULE
D88
   65    67     1     0     0
SMALL
bcc


@<TRIPOS>ATOM
      1 CAA         0.0000    0.0000    0.0000 c3        1 D88      0.010000
      2 CAC         7.7610   -0.0090   -0.9860 c2        1 D88     -0.143000
      3 NAD         0.6350   -0.0020    8.2590 n1        1 D88     -0.041000
      4 Cl1        -3.1380   -5.1080    4.3930 cl        1 D88      0.097000
      5 Cl2        -0.0300   -5.0750    4.1430 cl        1 D88      0.081000
      6 CAH         3.2890    0.0020    5.9960 c2        1 D88     -0.045000
      7 CAI        -0.8950   -3.5910    4.3940 ca        1 D88     -0.047000
      8 CAJ        -2.2810   -1.2210    4.7930 ca        1 D88     -0.261000
      9 CAK         4.0940   -0.0020    2.4910 ca        1 D88     -0.198000
     10 CAL         1.2980   -0.0010    2.3520 ca        1 D88     -0.187000
     11 CAM         6.2380   -0.0080   -1.1290 c3        1 D88     -0.259000
     12 CAN         5.5960   -0.0060    0.2610 c3        1 D88      0.066000
     13 CAO        10.6670    2.0890   -4.3670 c3        1 D88     -0.077000
     14 CAP         9.6310   -0.4270   -2.9370 c3        1 D88     -0.191000
     15 CAQ         7.8750    1.0950   -3.6150 c3        1 D88     -0.191000
     16 CAR        10.1160   -0.5130   -4.3860 c3        1 D88     -0.089000
     17 CAS         8.3600    1.0090   -5.0640 c3        1 D88     -0.089000
     18 NAT         3.9590    0.0000    4.8710 n2        1 D88     -0.069000
     19 OAV         1.4290    0.0000    0.0000 os        1 D88     -0.149000
     20 CAX        -2.9700   -2.4190    4.7040 ca        1 D88      0.194000
     21 CAY        -2.2740   -3.6060    4.5040 ca        1 D88     -0.197000
     22 CAZ        -0.2050   -2.3960    4.4890 ca        1 D88     -0.198000
     23 CBA         1.8850    0.0010    6.0150 c2        1 D88      0.023000
     24 CBB        -0.8970   -1.2070    4.6880 ca        1 D88     -0.049000
     25 CBC         2.0470   -0.0000    1.2110 ca        1 D88      0.102000
     26 CBD         3.4470   -0.0040    1.2770 ca        1 D88      0.129000
     27 CBE         1.1810    0.0010    4.8010 c2        1 D88     -0.025000
     28 CBF         3.3460   -0.0010    3.6780 ca        1 D88     -0.012000
     29 CBG         1.9330   -0.0010    3.6030 ca        1 D88     -0.100000
     30 NBH         8.1850   -0.1630   -2.9210 n2        1 D88     -0.006000
     31 NBI         9.8060    0.7440   -5.0790 n3        1 D88     -0.095000
     32 C01        -4.9740   -1.1770    5.0060 c3        1 D88      0.013000
     33 HAA1       -0.6360   -0.8540    0.1990 h1        1 D88      0.050667
     34 HAA2       -0.3800    0.9930    0.2060 h1        1 D88      0.050667
     35 HAA3       -0.0950    0.2810   -1.0420 h1        1 D88      0.050667
     36 H011       -4.3150   -1.0250    5.8520 h1        1 D88      0.057000
     37 H012       -4.5510   -0.4460    4.3280 h1        1 D88      0.057000
     38 H013       -5.8880   -1.2920    5.5750 h1        1 D88      0.057000
     39 HAC1        7.6040    0.9770   -0.5660 ha        1 D88      0.079500
     40 HAC2        7.7650   -0.8210   -0.2690 ha        1 D88      0.079500
     41 HAM1        6.2790    0.6610   -1.9800 hc        1 D88      0.100500
     42 HAM2        6.2000   -1.0810   -1.2760 hc        1 D88      0.100500
     43 HAH         4.0790    0.1270    6.7270 h4        1 D88      0.143000
     44 HAZ         0.8780   -2.4120    4.4850 ha        1 D88      0.134000
     45 HAJ        -2.3350   -0.1420    4.7200 ha        1 D88      0.146000
     46 HAK         5.0960    0.2190    2.8390 ha        1 D88      0.157000
     47 HAL         0.2210    0.1160    2.3490 ha        1 D88      0.128000
     48 HAN1        6.1720   -0.7720    0.7660 h1        1 D88      0.040000
     49 HAN2        6.1630    0.8250    0.6640 h1        1 D88      0.040000
     50 HAO1       11.7150    1.8140   -4.3540 h1        1 D88      0.051667
     51 HAO2       10.7530    3.0110   -4.9290 h1        1 D88      0.051667
     52 HAO3       10.3000    1.9350   -3.3600 h1        1 D88      0.051667
     53 HAP1        9.7210   -1.4630   -2.6350 h1        1 D88      0.069000
     54 HAP2       10.3920    0.0400   -2.3230 h1        1 D88      0.069000
     55 HAR1       11.1840   -0.5260   -4.2050 h1        1 D88      0.083000
     56 HAR2        9.5520   -1.4190   -4.5740 h1        1 D88      0.083000
     57 HAQ1        8.0820    2.1540   -3.5110 h1        1 D88      0.069000
     58 HAQ2        6.8140    0.9620   -3.4420 h1        1 D88      0.069000
     59 HAS1        7.5010    0.4220   -5.3670 h1        1 D88      0.083000
     60 HAS2        8.4630    1.9620   -5.5680 h1        1 D88      0.083000
     61 HAU        -0.6120    0.7570    4.2680 hn        1 D88      0.070000
     62 CAG         1.1790    0.0020    7.2610 c1        1 D88     -0.094000
     63 NAU        -0.1990    0.0010    4.7770 nu        1 D88      0.112000
     64 OAW         4.1740   -0.0060    0.1280 os        1 D88     -0.125000
     65 O02        -4.3240   -2.4340    4.8070 os        1 D88     -0.190000
@<TRIPOS>BOND
     1    1   19 1   
     2    1   33 1   
     3    1   34 1   
     4    1   35 1   
     5    2   11 1   
     6    2   39 1   
     7    2   40 1   
     8    3   62 1   
     9    4   21 1   
    10    5    7 1   
    11    6   18 1   
    12    6   23 1   
    13    6   43 1   
    14    7   21 1   
    15    7   22 1   
    16    8   20 1   
    17    8   24 1   
    18    8   45 1   
    19    9   26 1   
    20    9   28 1   
    21    9   46 1   
    22   10   25 1   
    23   10   29 1   
    24   10   47 1   
    25   11   12 1   
    26   11   41 1   
    27   11   42 1   
    28   12   48 1   
    29   12   49 1   
    30   12   64 1   
    31   13   31 1   
    32   13   50 1   
    33   13   51 1   
    34   13   52 1   
    35   14   16 1   
    36   14   30 1   
    37   14   53 1   
    38   14   54 1   
    39   15   17 1   
    40   15   30 1   
    41   15   57 1   
    42   15   58 1   
    43   16   31 1   
    44   16   55 1   
    45   16   56 1   
    46   17   31 1   
    47   17   59 1   
    48   17   60 1   
    49   18   28 1   
    50   19   25 1   
    51   20   21 1   
    52   20   65 1   
    53   22   24 1   
    54   22   44 1   
    55   23   27 1   
    56   23   62 1   
    57   24   63 1   
    58   25   26 1   
    59   26   64 1   
    60   27   29 1   
    61   27   63 1   
    62   28   29 1   
    63   32   36 1   
    64   32   37 1   
    65   32   38 1   
    66   32   65 1   
    67   61   63 1   
@<TRIPOS>SUBSTRUCTURE
     1 D88         1 TEMP              0 ****  ****    0 ROOT
