@<TRIPOS>MOLECULE
D8G
   37    40     1     0     0
SMALL
bcc


@<TRIPOS>ATOM
      1 OAC        -0.0750   -0.1180   -0.0360 o         1 D8G     -0.658500
      2 CAQ         1.1690   -0.0530    0.0540 c         1 D8G      0.703100
      3 CAU         1.9140   -0.0430    1.3130 cc        1 D8G     -0.142900
      4 NAV         1.4340   -0.1020    2.6230 na        1 D8G     -0.006100
      5 CAB         0.0750   -0.2440    3.0390 c3        1 D8G      0.011600
      6 CAS         2.5420   -0.0360    3.4560 cc        1 D8G     -0.051300
      7 CAJ         2.8040   -0.0440    4.8580 cc        1 D8G     -0.151000
      8 CAN         4.1610    0.0580    5.0850 cd        1 D8G     -0.066400
      9 CAA         4.8020    0.0810    6.4040 c3        1 D8G     -0.030800
     10 SAM         5.0800    0.1580    3.6610 ss        1 D8G      0.044200
     11 CAT         3.7570    0.0740    2.6700 cd        1 D8G     -0.126100
     12 CAR         3.3400    0.0690    1.3130 cd        1 D8G     -0.122900
     13 CAI         3.9850    0.1500    0.0350 cd        1 D8G      0.395800
     14 NAL         3.3160    0.1260   -1.1020 nc        1 D8G     -0.440300
     15 NAW         1.9860   -0.0030   -1.1120 n         1 D8G     -0.193800
     16 CAK         1.3100    0.0520   -2.4170 c3        1 D8G      0.157300
     17 CAP         1.0450    1.4450   -2.9040 ca        1 D8G     -0.151300
     18 CAH        -0.0090    2.1830   -2.3580 ca        1 D8G     -0.088000
     19 CAF        -0.2890    3.4680   -2.8130 ca        1 D8G     -0.151000
     20 CAE         0.4860    4.0360   -3.8250 ca        1 D8G     -0.097000
     21 CAG         1.5420    3.3240   -4.3850 ca        1 D8G     -0.174000
     22 CAO         1.8280    2.0240   -3.9240 ca        1 D8G      0.147900
     23 FAD         2.8540    1.3380   -4.4810 f         1 D8G     -0.135900
     24 HAB        -0.0680   -1.2420    3.5380 h1        1 D8G      0.067700
     25 HABA       -0.6020   -0.1740    2.1450 h1        1 D8G      0.067700
     26 HABB       -0.1810    0.5680    3.7720 h1        1 D8G      0.067700
     27 HAJ         2.0330   -0.1190    5.6270 ha        1 D8G      0.160000
     28 HAA         4.4280    0.9480    7.0060 hc        1 D8G      0.051033
     29 HAAA        5.9130    0.1720    6.3110 hc        1 D8G      0.051033
     30 HAAB        4.5720   -0.8580    6.9680 hc        1 D8G      0.051033
     31 HAI         5.0810    0.2380   -0.0480 h4        1 D8G      0.050800
     32 HAK         0.3280   -0.4910   -2.2960 h1        1 D8G      0.087700
     33 HAKA        1.9400   -0.5000   -3.1730 h1        1 D8G      0.087700
     34 HAH        -0.6160    1.7270   -1.5560 ha        1 D8G      0.160000
     35 HAF        -1.1230    4.0360   -2.3740 ha        1 D8G      0.138000
     36 HAE         0.2650    5.0520   -4.1840 ha        1 D8G      0.137000
     37 HAG         2.1600    3.7620   -5.1820 ha        1 D8G      0.148000
@<TRIPOS>BOND
     1    1    2 2   
     2    2    3 1   
     3    2   15 1   
     4    3    4 1   
     5    3   12 2   
     6    4    5 1   
     7    4    6 1   
     8    5   24 1   
     9    5   25 1   
    10    5   26 1   
    11    6    7 1   
    12    6   11 2   
    13    7    8 2   
    14    7   27 1   
    15    8    9 1   
    16    8   10 1   
    17    9   28 1   
    18    9   29 1   
    19    9   30 1   
    20   10   11 1   
    21   11   12 1   
    22   12   13 1   
    23   13   14 2   
    24   13   31 1   
    25   14   15 1   
    26   15   16 1   
    27   16   17 1   
    28   16   32 1   
    29   16   33 1   
    30   17   18 ar  
    31   17   22 ar  
    32   18   19 ar  
    33   18   34 1   
    34   19   20 ar  
    35   19   35 1   
    36   20   21 ar  
    37   20   36 1   
    38   21   22 ar  
    39   21   37 1   
    40   22   23 1   
@<TRIPOS>SUBSTRUCTURE
     1 D8G         1 TEMP              0 ****  ****    0 ROOT
