@<TRIPOS>MOLECULE
D8G
   37    40     1     0     0
SMALL
bcc


@<TRIPOS>ATOM
      1 OAC        -0.0790   -0.1120   -0.0320 o         1 D8G     -0.658500
      2 CAQ         1.1650   -0.0510    0.0560 c         1 D8G      0.703100
      3 CAU         1.9140   -0.0420    1.3130 cc        1 D8G     -0.142900
      4 NAV         1.4360   -0.1000    2.6240 na        1 D8G     -0.006100
      5 CAB         0.0780   -0.2380    3.0440 c3        1 D8G      0.011600
      6 CAS         2.5460   -0.0380    3.4550 cc        1 D8G     -0.051300
      7 CAJ         2.8110   -0.0460    4.8560 cc        1 D8G     -0.151000
      8 CAN         4.1690    0.0510    5.0800 cd        1 D8G     -0.066400
      9 CAA         4.8130    0.0730    6.3970 c3        1 D8G     -0.030800
     10 SAM         5.0860    0.1480    3.6540 ss        1 D8G      0.044200
     11 CAT         3.7600    0.0690    2.6660 cd        1 D8G     -0.126100
     12 CAR         3.3400    0.0650    1.3090 cd        1 D8G     -0.122900
     13 CAI         3.9820    0.1430    0.0300 cd        1 D8G      0.395800
     14 NAL         3.3110    0.1210   -1.1050 nc        1 D8G     -0.440300
     15 NAW         1.9800   -0.0030   -1.1120 n         1 D8G     -0.193800
     16 CAK         1.3010    0.0540   -2.4160 c3        1 D8G      0.157300
     17 CAP         1.0390    1.4470   -2.9020 ca        1 D8G     -0.151300
     18 CAH        -0.0120    2.1880   -2.3530 ca        1 D8G     -0.088000
     19 CAF        -0.2890    3.4750   -2.8070 ca        1 D8G     -0.151000
     20 CAE         0.4850    4.0400   -3.8210 ca        1 D8G     -0.097000
     21 CAG         1.5370    3.3250   -4.3850 ca        1 D8G     -0.174000
     22 CAO         1.8200    2.0240   -3.9250 ca        1 D8G      0.147900
     23 FAD         2.8430    1.3350   -4.4840 f         1 D8G     -0.135900
     24 HAB        -0.1740    0.5780    3.7740 h1        1 D8G      0.067700
     25 HABA       -0.0680   -1.2330    3.5450 h1        1 D8G      0.067700
     26 HABB       -0.6010   -0.1680    2.1500 h1        1 D8G      0.067700
     27 HAJ         2.0420   -0.1180    5.6260 ha        1 D8G      0.160000
     28 HAA         4.4430    0.9410    7.0000 hc        1 D8G      0.051033
     29 HAAA        4.5820   -0.8660    6.9620 hc        1 D8G      0.051033
     30 HAAB        5.9250    0.1610    6.3020 hc        1 D8G      0.051033
     31 HAI         5.0780    0.2270   -0.0550 h4        1 D8G      0.050800
     32 HAK         0.3180   -0.4870   -2.2920 h1        1 D8G      0.087700
     33 HAKA        1.9270   -0.5000   -3.1740 h1        1 D8G      0.087700
     34 HAH        -0.6180    1.7340   -1.5490 ha        1 D8G      0.160000
     35 HAF        -1.1200    4.0450   -2.3660 ha        1 D8G      0.138000
     36 HAE         0.2660    5.0570   -4.1790 ha        1 D8G      0.137000
     37 HAG         2.1530    3.7610   -5.1830 ha        1 D8G      0.148000
@<TRIPOS>BOND
     1    1    2 2   
     2    2    3 1   
     3    2   15 1   
     4    3    4 1   
     5    3   12 2   
     6    4    5 1   
     7    4    6 1   
     8    5   24 1   
     9    5   25 1   
    10    5   26 1   
    11    6    7 1   
    12    6   11 2   
    13    7    8 2   
    14    7   27 1   
    15    8    9 1   
    16    8   10 1   
    17    9   28 1   
    18    9   29 1   
    19    9   30 1   
    20   10   11 1   
    21   11   12 1   
    22   12   13 1   
    23   13   14 2   
    24   13   31 1   
    25   14   15 1   
    26   15   16 1   
    27   16   17 1   
    28   16   32 1   
    29   16   33 1   
    30   17   18 ar  
    31   17   22 ar  
    32   18   19 ar  
    33   18   34 1   
    34   19   20 ar  
    35   19   35 1   
    36   20   21 ar  
    37   20   36 1   
    38   21   22 ar  
    39   21   37 1   
    40   22   23 1   
@<TRIPOS>SUBSTRUCTURE
     1 D8G         1 TEMP              0 ****  ****    0 ROOT
