@<TRIPOS>MOLECULE
D8G
   37    40     1     0     0
SMALL
bcc


@<TRIPOS>ATOM
      1 OAC        -0.9910   -2.1300   -1.0500 o         1 D8G     -0.658500
      2 CAQ        -0.4980   -0.9930   -0.8990 c         1 D8G      0.703100
      3 CAU         0.8910   -0.7290   -0.5220 cc        1 D8G     -0.142900
      4 NAV         1.9220   -1.6350   -0.2620 na        1 D8G     -0.006100
      5 CAB         1.8670   -3.0580   -0.3620 c3        1 D8G      0.011600
      6 CAS         3.0370   -0.8810    0.0760 cc        1 D8G     -0.051300
      7 CAJ         4.3930   -1.1210    0.4480 cc        1 D8G     -0.151000
      8 CAN         5.0380    0.0770    0.6760 cd        1 D8G     -0.066400
      9 CAA         6.4410    0.2230    1.0760 c3        1 D8G     -0.030800
     10 SAM         4.0450    1.4360    0.4490 ss        1 D8G      0.044200
     11 CAT         2.7180    0.5340    0.0410 cd        1 D8G     -0.126100
     12 CAR         1.3520    0.6120   -0.3400 cd        1 D8G     -0.122900
     13 CAI         0.4020    1.6620   -0.5620 cd        1 D8G      0.395800
     14 NAL        -0.8470    1.4270   -0.9170 nc        1 D8G     -0.440300
     15 NAW        -1.2800    0.1780   -1.1120 n         1 D8G     -0.193800
     16 CAK        -2.7040   -0.0020   -1.4350 c3        1 D8G      0.157300
     17 CAP        -3.6000   -0.0220   -0.2330 ca        1 D8G     -0.151300
     18 CAH        -3.6650   -1.1670    0.5660 ca        1 D8G     -0.088000
     19 CAF        -4.5090   -1.2170    1.6720 ca        1 D8G     -0.151000
     20 CAE        -5.3030   -0.1150    1.9950 ca        1 D8G     -0.097000
     21 CAG        -5.2580    1.0370    1.2180 ca        1 D8G     -0.174000
     22 CAO        -4.4020    1.0890    0.0990 ca        1 D8G      0.147900
     23 FAD        -4.3700    2.2140   -0.6540 f         1 D8G     -0.135900
     24 HAB         2.5260   -3.4070   -1.2030 h1        1 D8G      0.067700
     25 HABA        2.2280   -3.5170    0.5970 h1        1 D8G      0.067700
     26 HABB        0.8080   -3.3810   -0.5600 h1        1 D8G      0.067700
     27 HAJ         4.8400   -2.1120    0.5360 ha        1 D8G      0.160000
     28 HAA         7.1180   -0.2280    0.3060 hc        1 D8G      0.051033
     29 HAAA        6.7170    1.3010    1.1970 hc        1 D8G      0.051033
     30 HAAB        6.6280   -0.2980    2.0500 hc        1 D8G      0.051033
     31 HAI         0.6820    2.7220   -0.4420 h4        1 D8G      0.050800
     32 HAK        -3.0240    0.8260   -2.1320 h1        1 D8G      0.087700
     33 HAKA       -2.7910   -0.9880   -1.9780 h1        1 D8G      0.087700
     34 HAH        -3.0310   -2.0330    0.3050 ha        1 D8G      0.160000
     35 HAF        -4.5500   -2.1250    2.2910 ha        1 D8G      0.138000
     36 HAE        -5.9690   -0.1550    2.8700 ha        1 D8G      0.137000
     37 HAG        -5.8780    1.9100    1.4640 ha        1 D8G      0.148000
@<TRIPOS>BOND
     1    1    2 2   
     2    2    3 1   
     3    2   15 1   
     4    3    4 1   
     5    3   12 2   
     6    4    5 1   
     7    4    6 1   
     8    5   24 1   
     9    5   25 1   
    10    5   26 1   
    11    6    7 1   
    12    6   11 2   
    13    7    8 2   
    14    7   27 1   
    15    8    9 1   
    16    8   10 1   
    17    9   28 1   
    18    9   29 1   
    19    9   30 1   
    20   10   11 1   
    21   11   12 1   
    22   12   13 1   
    23   13   14 2   
    24   13   31 1   
    25   14   15 1   
    26   15   16 1   
    27   16   17 1   
    28   16   32 1   
    29   16   33 1   
    30   17   18 ar  
    31   17   22 ar  
    32   18   19 ar  
    33   18   34 1   
    34   19   20 ar  
    35   19   35 1   
    36   20   21 ar  
    37   20   36 1   
    38   21   22 ar  
    39   21   37 1   
    40   22   23 1   
@<TRIPOS>SUBSTRUCTURE
     1 D8G         1 TEMP              0 ****  ****    0 ROOT
