@<TRIPOS>MOLECULE
D8G
   37    32     1     0     0
SMALL
bcc


@<TRIPOS>ATOM
      1 OAC        -2.6560   -0.4960   -0.1230 o         1 D8G     -0.365000
      2 CAQ        -1.4460   -0.2910   -0.1490 c1        1 D8G      0.342000
      3 CAU        -0.7180    0.0050    1.1220 c2        1 D8G     -0.095000
      4 NAV        -1.1550    0.0510    2.4910 n2        1 D8G     -0.072000
      5 CAB        -2.2520   -0.3590    3.3420 c2        1 D8G     -0.122000
      6 CAS        -0.0930    0.3880    3.2610 c2        1 D8G     -0.028000
      7 CAJ         0.3450    0.7210    4.7390 c1        1 D8G     -0.149000
      8 CAN         1.7380    1.0880    4.7250 c1        1 D8G     -0.329000
      9 CAA         2.3050    1.5010    6.0680 c2        1 D8G     -0.122000
     10 SAM         2.2330    1.0070    3.2730 ss        1 D8G      0.579000
     11 CAT         1.0420    0.5630    2.4000 c2        1 D8G     -0.395000
     12 CAR         0.6240    0.3200    1.0860 c1        1 D8G     -0.043000
     13 CAI         1.3550    0.3630   -0.2430 c1        1 D8G     -0.103000
     14 NAL         0.6430    0.0760   -1.4650 n1        1 D8G     -0.032000
     15 NAW        -0.7580   -0.1490   -1.4340 n1        1 D8G     -0.226000
     16 CAK        -1.5020   -0.0620   -2.6140 c3        1 D8G      0.031000
     17 CAP        -0.6090   -0.4650   -3.8210 c2        1 D8G     -0.139000
     18 CAH         0.0980    0.5380   -4.5430 c2        1 D8G     -0.077000
     19 CAF         0.8160    0.2020   -5.6600 c1        1 D8G     -0.153000
     20 CAE         0.8570   -1.1210   -6.0900 c1        1 D8G     -0.135000
     21 CAG         0.1570   -2.1190   -5.3750 c1        1 D8G     -0.135000
     22 CAO        -0.5700   -1.7790   -4.2450 c1        1 D8G      0.109000
     23 FAD        -1.1650   -2.7530   -3.4990 f         1 D8G     -0.098000
     24 HAB        -1.9580   -1.1580    3.9220 ha        1 D8G      0.099333
     25 HABA       -2.5110    0.3790    3.9160 ha        1 D8G      0.099333
     26 HABB       -2.9760   -0.6100    2.8140 ha        1 D8G      0.099333
     27 HAJ        -0.2410    0.7560    5.5070 DU        1 D8G      0.160000
     28 HAA         3.2670    1.7790    5.9560 ha        1 D8G      0.099333
     29 HAAA        1.7930    2.2440    6.4190 ha        1 D8G      0.099333
     30 HAAB        2.2510    0.7270    6.7060 ha        1 D8G      0.099333
     31 HAI         2.3050    0.5150   -0.2660 ha        1 D8G      0.178000
     32 HAK        -2.3190   -0.6990   -2.5560 h1        1 D8G      0.126000
     33 HAKA       -1.8090    0.8530   -2.7340 h1        1 D8G      0.126000
     34 HAH         0.0690    1.4990   -4.2330 ha        1 D8G      0.149000
     35 HAF         1.3020    0.8950   -6.1560 ha        1 D8G      0.137000
     36 HAE         1.3530   -1.3510   -6.8620 ha        1 D8G      0.143000
     37 HAG         0.1860   -3.0600   -5.6790 ha        1 D8G      0.143000
@<TRIPOS>BOND
     1    1    2 1   
     2    2    3 1   
     3    3    4 1   
     4    3   12 1   
     5    4    6 1   
     6    5   24 1   
     7    5   25 1   
     8    5   26 1   
     9    6    7 1   
    10    6   11 1   
    11    7    8 1   
    12    8   10 1   
    13    9   28 1   
    14    9   29 1   
    15    9   30 1   
    16   10   11 1   
    17   11   12 1   
    18   13   14 1   
    19   13   31 1   
    20   15   16 1   
    21   16   17 1   
    22   16   32 1   
    23   16   33 1   
    24   17   18 1   
    25   17   22 1   
    26   18   19 1   
    27   18   34 1   
    28   19   35 1   
    29   20   21 1   
    30   20   36 1   
    31   21   37 1   
    32   22   23 1   
@<TRIPOS>SUBSTRUCTURE
     1 D8G         1 TEMP              0 ****  ****    0 ROOT
