@<TRIPOS>MOLECULE
D8G
   37    40     1     0     0
SMALL
bcc


@<TRIPOS>ATOM
      1 OAC        -0.0780   -0.1160   -0.0280 o         1 D8G     -0.658500
      2 CAQ         1.1660   -0.0520    0.0580 c         1 D8G      0.703100
      3 CAU         1.9160   -0.0420    1.3140 cc        1 D8G     -0.142900
      4 NAV         1.4410   -0.1000    2.6260 na        1 D8G     -0.006100
      5 CAB         0.0840   -0.2420    3.0470 c3        1 D8G      0.011600
      6 CAS         2.5520   -0.0360    3.4540 cc        1 D8G     -0.051300
      7 CAJ         2.8190   -0.0430    4.8550 cc        1 D8G     -0.151000
      8 CAN         4.1770    0.0580    5.0770 cd        1 D8G     -0.066400
      9 CAA         4.8240    0.0810    6.3930 c3        1 D8G     -0.030800
     10 SAM         5.0910    0.1570    3.6500 ss        1 D8G      0.044200
     11 CAT         3.7640    0.0730    2.6630 cd        1 D8G     -0.126100
     12 CAR         3.3420    0.0690    1.3080 cd        1 D8G     -0.122900
     13 CAI         3.9820    0.1480    0.0280 cd        1 D8G      0.395800
     14 NAL         3.3090    0.1240   -1.1060 nc        1 D8G     -0.440300
     15 NAW         1.9780   -0.0040   -1.1110 n         1 D8G     -0.193800
     16 CAK         1.2980    0.0520   -2.4140 c3        1 D8G      0.157300
     17 CAP         1.0330    1.4440   -2.9010 ca        1 D8G     -0.151300
     18 CAH        -0.0190    2.1830   -2.3510 ca        1 D8G     -0.088000
     19 CAF        -0.3000    3.4690   -2.8060 ca        1 D8G     -0.151000
     20 CAE         0.4730    4.0350   -3.8210 ca        1 D8G     -0.097000
     21 CAG         1.5250    3.3220   -4.3850 ca        1 D8G     -0.174000
     22 CAO         1.8120    2.0220   -3.9240 ca        1 D8G      0.147900
     23 FAD         2.8350    1.3350   -4.4850 f         1 D8G     -0.135900
     24 HAB        -0.0590   -1.2400    3.5450 h1        1 D8G      0.067700
     25 HABA       -0.5970   -0.1700    2.1550 h1        1 D8G      0.067700
     26 HABB       -0.1690    0.5700    3.7820 h1        1 D8G      0.067700
     27 HAJ         2.0520   -0.1170    5.6270 ha        1 D8G      0.160000
     28 HAA         4.4530    0.9490    6.9970 hc        1 D8G      0.051033
     29 HAAA        5.9350    0.1710    6.2960 hc        1 D8G      0.051033
     30 HAAB        4.5950   -0.8580    6.9590 hc        1 D8G      0.051033
     31 HAI         5.0780    0.2350   -0.0590 h4        1 D8G      0.050800
     32 HAK         0.3150   -0.4910   -2.2890 h1        1 D8G      0.087700
     33 HAKA        1.9240   -0.5020   -3.1720 h1        1 D8G      0.087700
     34 HAH        -0.6230    1.7290   -1.5460 ha        1 D8G      0.160000
     35 HAF        -1.1310    4.0380   -2.3640 ha        1 D8G      0.138000
     36 HAE         0.2510    5.0520   -4.1790 ha        1 D8G      0.137000
     37 HAG         2.1400    3.7590   -5.1840 ha        1 D8G      0.148000
@<TRIPOS>BOND
     1    1    2 2   
     2    2    3 1   
     3    2   15 1   
     4    3    4 1   
     5    3   12 2   
     6    4    5 1   
     7    4    6 1   
     8    5   24 1   
     9    5   25 1   
    10    5   26 1   
    11    6    7 1   
    12    6   11 2   
    13    7    8 2   
    14    7   27 1   
    15    8    9 1   
    16    8   10 1   
    17    9   28 1   
    18    9   29 1   
    19    9   30 1   
    20   10   11 1   
    21   11   12 1   
    22   12   13 1   
    23   13   14 2   
    24   13   31 1   
    25   14   15 1   
    26   15   16 1   
    27   16   17 1   
    28   16   32 1   
    29   16   33 1   
    30   17   18 ar  
    31   17   22 ar  
    32   18   19 ar  
    33   18   34 1   
    34   19   20 ar  
    35   19   35 1   
    36   20   21 ar  
    37   20   36 1   
    38   21   22 ar  
    39   21   37 1   
    40   22   23 1   
@<TRIPOS>SUBSTRUCTURE
     1 D8G         1 TEMP              0 ****  ****    0 ROOT
