@<TRIPOS>MOLECULE
D8I
   31    31     1     0     0
SMALL
bcc


@<TRIPOS>ATOM
      1 CAA         0.1110    0.0980   -0.1120 c3        1 D8I      0.109700
      2 OAM         1.5240    0.2160    0.0370 os        1 D8I     -0.320900
      3 CAO         2.0200    0.0670    1.3130 ca        1 D8I      0.137100
      4 CAH         3.4210    0.1530    1.4100 ca        1 D8I     -0.150000
      5 CAG         1.2370   -0.1500    2.4550 ca        1 D8I     -0.175000
      6 CAE         1.8610   -0.2790    3.6940 ca        1 D8I     -0.086000
      7 CAF         3.2480   -0.1900    3.8060 ca        1 D8I     -0.139000
      8 CAN         4.0240    0.0250    2.6620 ca        1 D8I     -0.130300
      9 CAJ         5.5130    0.0950    2.7690 c3        1 D8I      0.157100
     10 NAL         6.0140    1.4880    2.6120 n4        1 D8I     -0.769000
     11 CAI         7.5180    1.5680    2.6910 c3        1 D8I      0.162800
     12 CAK         8.0120    2.9600    2.5540 c3        1 D8I     -0.305600
     13 SAP         9.8910    2.8880    2.7120 s6        1 D8I      1.444800
     14 OAD        10.2550    4.2230    2.5910 o         1 D8I     -0.723533
     15 OAC        10.0110    2.3030    3.9790 o         1 D8I     -0.723533
     16 OAB        10.2010    2.0380    1.6440 o         1 D8I     -0.723533
     17 H1         -0.0420    0.2340   -1.2130 h1        1 D8I      0.053033
     18 H2         -0.4120    0.9000    0.4630 h1        1 D8I      0.053033
     19 H3         -0.2360   -0.9130    0.2140 h1        1 D8I      0.053033
     20 H4          4.0150    0.3030    0.4970 ha        1 D8I      0.154000
     21 H5          0.1420   -0.2220    2.3830 ha        1 D8I      0.152000
     22 H6          1.2510   -0.4550    4.5940 ha        1 D8I      0.149000
     23 H7          3.7270   -0.2980    4.7900 ha        1 D8I      0.144000
     24 H8          5.9930   -0.5360    1.9650 hx        1 D8I      0.106200
     25 H9          5.8620   -0.2870    3.7710 hx        1 D8I      0.106200
     26 H10         5.7070    1.8640    1.7090 hn        1 D8I      0.437300
     27 H12         7.9360    0.9200    1.8640 hx        1 D8I      0.111700
     28 H13         7.8270    1.1390    3.6900 hx        1 D8I      0.111700
     29 H14         7.8000    3.4130    1.5630 h1        1 D8I      0.083200
     30 H15         7.6610    3.6390    3.3590 h1        1 D8I      0.083200
     31 HAL2        5.6150    2.0850    3.3430 hn        1 D8I      0.437300
@<TRIPOS>BOND
     1    1    2 1   
     2    1   17 1   
     3    1   18 1   
     4    1   19 1   
     5    2    3 1   
     6    3    4 ar  
     7    3    5 ar  
     8    4    8 ar  
     9    4   20 1   
    10    5    6 ar  
    11    5   21 1   
    12    6    7 ar  
    13    6   22 1   
    14    7    8 ar  
    15    7   23 1   
    16    8    9 1   
    17    9   10 1   
    18    9   24 1   
    19    9   25 1   
    20   10   11 1   
    21   10   26 1   
    22   10   31 1   
    23   11   12 1   
    24   11   27 1   
    25   11   28 1   
    26   12   13 1   
    27   12   29 1   
    28   12   30 1   
    29   13   14 1   
    30   13   15 1   
    31   13   16 1   
@<TRIPOS>SUBSTRUCTURE
     1 D8I         1 TEMP              0 ****  ****    0 ROOT
