@<TRIPOS>MOLECULE
D8I
   31    31     1     0     0
SMALL
bcc


@<TRIPOS>ATOM
      1 CAA         0.1080    0.0840   -0.1050 c3        1 D8I      0.109700
      2 OAM         1.5210    0.2030    0.0410 os        1 D8I     -0.320900
      3 CAO         2.0190    0.0620    1.3170 ca        1 D8I      0.137100
      4 CAH         3.4200    0.1480    1.4120 ca        1 D8I     -0.149000
      5 CAG         1.2370   -0.1470    2.4620 ca        1 D8I     -0.175000
      6 CAE         1.8630   -0.2700    3.7010 ca        1 D8I     -0.086000
      7 CAF         3.2500   -0.1800    3.8100 ca        1 D8I     -0.139000
      8 CAN         4.0240    0.0270    2.6640 ca        1 D8I     -0.130300
      9 CAJ         5.5130    0.0970    2.7680 c3        1 D8I      0.157100
     10 NAL         6.0140    1.4900    2.6090 n4        1 D8I     -0.769000
     11 CAI         7.5190    1.5700    2.6850 c3        1 D8I      0.162800
     12 CAK         8.0120    2.9620    2.5480 c3        1 D8I     -0.305600
     13 SAP         9.8910    2.8900    2.7040 s6        1 D8I      1.444800
     14 OAD        10.2550    4.2260    2.5850 o         1 D8I     -0.723533
     15 OAC        10.0130    2.3030    3.9700 o         1 D8I     -0.723533
     16 OAB        10.2010    2.0420    1.6350 o         1 D8I     -0.723533
     17 H1         -0.2390   -0.9240    0.2270 h1        1 D8I      0.053033
     18 H2         -0.4140    0.8900    0.4650 h1        1 D8I      0.053033
     19 H3         -0.0470    0.2140   -1.2070 h1        1 D8I      0.053033
     20 H4          4.0130    0.2920    0.4970 ha        1 D8I      0.154000
     21 H5          0.1420   -0.2190    2.3920 ha        1 D8I      0.152000
     22 H6          1.2540   -0.4390    4.6030 ha        1 D8I      0.149000
     23 H7          3.7300   -0.2830    4.7950 ha        1 D8I      0.144000
     24 H8          5.8640   -0.2840    3.7710 hx        1 D8I      0.106200
     25 H9          5.9920   -0.5350    1.9650 hx        1 D8I      0.106200
     26 H10         5.6160    2.0880    3.3390 hn        1 D8I      0.437300
     27 H12         7.9350    0.9220    1.8590 hx        1 D8I      0.111700
     28 H13         7.8290    1.1410    3.6840 hx        1 D8I      0.111700
     29 H14         7.7990    3.4140    1.5570 h1        1 D8I      0.083200
     30 H15         7.6620    3.6410    3.3530 h1        1 D8I      0.083200
     31 HAL2        5.7070    1.8640    1.7050 hn        1 D8I      0.437300
@<TRIPOS>BOND
     1    1    2 1   
     2    1   17 1   
     3    1   18 1   
     4    1   19 1   
     5    2    3 1   
     6    3    4 ar  
     7    3    5 ar  
     8    4    8 ar  
     9    4   20 1   
    10    5    6 ar  
    11    5   21 1   
    12    6    7 ar  
    13    6   22 1   
    14    7    8 ar  
    15    7   23 1   
    16    8    9 1   
    17    9   10 1   
    18    9   24 1   
    19    9   25 1   
    20   10   11 1   
    21   10   26 1   
    22   10   31 1   
    23   11   12 1   
    24   11   27 1   
    25   11   28 1   
    26   12   13 1   
    27   12   29 1   
    28   12   30 1   
    29   13   14 1   
    30   13   15 1   
    31   13   16 1   
@<TRIPOS>SUBSTRUCTURE
     1 D8I         1 TEMP              0 ****  ****    0 ROOT
