@<TRIPOS>MOLECULE
D8I
   31    31     1     0     0
SMALL
bcc


@<TRIPOS>ATOM
      1 CAA         0.1070    0.0870   -0.1020 c3        1 D8I      0.109700
      2 OAM         1.5200    0.2020    0.0440 os        1 D8I     -0.320900
      3 CAO         2.0170    0.0670    1.3220 ca        1 D8I      0.137100
      4 CAH         3.4180    0.1480    1.4180 ca        1 D8I     -0.150000
      5 CAG         1.2330   -0.1330    2.4670 ca        1 D8I     -0.175000
      6 CAE         1.8570   -0.2490    3.7080 ca        1 D8I     -0.086000
      7 CAF         3.2440   -0.1640    3.8180 ca        1 D8I     -0.139000
      8 CAN         4.0200    0.0330    2.6710 ca        1 D8I     -0.130300
      9 CAJ         5.5090    0.0980    2.7770 c3        1 D8I      0.157100
     10 NAL         6.0160    1.4870    2.6060 ny        1 D8I     -0.769000
     11 CAI         7.5210    1.5620    2.6830 c3        1 D8I      0.162800
     12 CAK         8.0200    2.9500    2.5340 c3        1 D8I     -0.305600
     13 SAP         9.8990    2.8730    2.6920 s6        1 D8I      1.444800
     14 OAD        10.2680    4.2060    2.5590 o         1 D8I     -0.723533
     15 OAC        10.0170    2.2980    3.9640 o         1 D8I     -0.723533
     16 OAB        10.2060    2.0130    1.6310 o         1 D8I     -0.723533
     17 H1         -0.0460    0.2110   -1.2050 h1        1 D8I      0.053033
     18 H2         -0.4120    0.8990    0.4620 h1        1 D8I      0.053033
     19 H3         -0.2430   -0.9180    0.2360 h1        1 D8I      0.053033
     20 H4          4.0130    0.2840    0.5030 ha        1 D8I      0.154000
     21 H5          0.1370   -0.2010    2.3960 ha        1 D8I      0.152000
     22 H6          1.2460   -0.4110    4.6100 ha        1 D8I      0.149000
     23 H7          3.7230   -0.2630    4.8040 ha        1 D8I      0.144000
     24 H8          5.9870   -0.5430    1.9800 hx        1 D8I      0.106200
     25 H9          5.8580   -0.2750    3.7840 hx        1 D8I      0.106200
     26 H10         5.7110    1.8550    1.6990 hn        1 D8I      0.437300
     27 H12         7.9360    0.9050    1.8630 hx        1 D8I      0.111700
     28 H13         7.8290    1.1410    3.6870 hx        1 D8I      0.111700
     29 H14         7.8090    3.3950    1.5380 h1        1 D8I      0.083200
     30 H15         7.6720    3.6390    3.3320 h1        1 D8I      0.083200
     31 HAL2        5.6190    2.0930    3.3310 hn        1 D8I      0.437300
@<TRIPOS>BOND
     1    1    2 1   
     2    1   17 1   
     3    1   18 1   
     4    1   19 1   
     5    2    3 1   
     6    3    4 ar  
     7    3    5 ar  
     8    4    8 ar  
     9    4   20 1   
    10    5    6 ar  
    11    5   21 1   
    12    6    7 ar  
    13    6   22 1   
    14    7    8 ar  
    15    7   23 1   
    16    8    9 1   
    17    9   10 1   
    18    9   24 1   
    19    9   25 1   
    20   10   11 1   
    21   10   26 1   
    22   10   31 1   
    23   11   12 1   
    24   11   27 1   
    25   11   28 1   
    26   12   13 1   
    27   12   29 1   
    28   12   30 1   
    29   13   14 1   
    30   13   15 1   
    31   13   16 1   
@<TRIPOS>SUBSTRUCTURE
     1 D8I         1 TEMP              0 ****  ****    0 ROOT
