@<TRIPOS>MOLECULE
D8I
   30    30     1     0     0
SMALL
bcc


@<TRIPOS>ATOM
      1 CAA         6.2250   -1.5760    0.4600 c3        1 D8I      0.117700
      2 OAM         4.8540   -1.6910    0.1090 os        1 D8I     -0.330900
      3 CAO         4.1370   -0.5060    0.0640 ca        1 D8I      0.110100
      4 CAH         2.7690   -0.6580   -0.2280 ca        1 D8I     -0.154000
      5 CAG         4.6910    0.7590    0.2800 ca        1 D8I     -0.214000
      6 CAE         3.8610    1.8790    0.2000 ca        1 D8I     -0.110000
      7 CAF         2.5080    1.7440   -0.0930 ca        1 D8I     -0.141000
      8 CAN         1.9570    0.4720   -0.3080 ca        1 D8I     -0.041300
      9 CAJ         0.5050    0.3150   -0.6650 c3        1 D8I      0.194100
     10 NAL        -0.3840    1.1220    0.1500 n3        1 D8I     -0.817200
     11 CAI        -1.7900    0.9300   -0.1630 c3        1 D8I      0.186800
     12 CAK        -2.4240   -0.3770    0.2550 c3        1 D8I     -0.325600
     13 SAP        -4.1540   -0.4500   -0.1800 s6        1 D8I      1.430800
     14 OAD        -4.7530    0.6180    0.5280 o         1 D8I     -0.750867
     15 OAC        -4.1810   -0.2940   -1.5860 o         1 D8I     -0.750867
     16 OAB        -4.5570   -1.7310    0.2640 o         1 D8I     -0.750867
     17 H1          6.5870   -2.6350    0.4630 h1        1 D8I      0.037033
     18 H2          6.7790   -0.9750   -0.3020 h1        1 D8I      0.037033
     19 H3          6.3400   -1.1180    1.4720 h1        1 D8I      0.037033
     20 H4          2.3610   -1.6670   -0.3880 ha        1 D8I      0.151000
     21 H5          5.7560    0.8840    0.5110 ha        1 D8I      0.125000
     22 H6          4.2870    2.8790    0.3710 ha        1 D8I      0.122000
     23 H7          1.8610    2.6320   -0.1540 ha        1 D8I      0.153000
     24 H8          0.3760    0.6490   -1.7370 h1        1 D8I      0.043200
     25 H9          0.2390   -0.7840   -0.6310 h1        1 D8I      0.043200
     26 H10        -0.2240    0.9180    1.1200 hn        1 D8I      0.346800
     27 H12        -2.3420    1.7720    0.3500 h1        1 D8I      0.063200
     28 H13        -1.9280    1.0560   -1.2760 h1        1 D8I      0.063200
     29 H14        -1.9070   -1.2380   -0.2310 h1        1 D8I      0.063200
     30 H15        -2.3330   -0.5180    1.3580 h1        1 D8I      0.063200
@<TRIPOS>BOND
     1    1    2 1   
     2    1   17 1   
     3    1   18 1   
     4    1   19 1   
     5    2    3 1   
     6    3    4 ar  
     7    3    5 ar  
     8    4    8 ar  
     9    4   20 1   
    10    5    6 ar  
    11    5   21 1   
    12    6    7 ar  
    13    6   22 1   
    14    7    8 ar  
    15    7   23 1   
    16    8    9 1   
    17    9   10 1   
    18    9   24 1   
    19    9   25 1   
    20   10   11 1   
    21   10   26 1   
    22   11   12 1   
    23   11   27 1   
    24   11   28 1   
    25   12   13 1   
    26   12   29 1   
    27   12   30 1   
    28   13   14 1   
    29   13   15 1   
    30   13   16 1   
@<TRIPOS>SUBSTRUCTURE
     1 D8I         1 TEMP              0 ****  ****    0 ROOT
