@<TRIPOS>MOLECULE
D8I
   30    27     1     0     0
SMALL
bcc


@<TRIPOS>ATOM
      1 CAA        -3.9420   -1.6740   -3.2920 c3        1 D8I     -0.072000
      2 OAM        -3.3280   -0.4580   -2.8950 os        1 D8I     -0.214000
      3 CAO        -2.7300   -0.5050   -1.5650 c2        1 D8I      0.065000
      4 CAH        -1.3550   -0.4870   -1.4250 c2        1 D8I     -0.154000
      5 CAG        -3.5340   -0.5060   -0.4440 c1        1 D8I     -0.214000
      6 CAE        -2.9670   -0.4870    0.8240 c1        1 D8I     -0.125500
      7 CAF        -1.5930   -0.4690    0.9680 c1        1 D8I     -0.125500
      8 CAN        -0.7830   -0.4690   -0.1480 c1        1 D8I     -0.034000
      9 CAJ         0.7320   -0.5490    0.0110 c3        1 D8I     -0.050000
     10 NAL         1.2370    0.7150    0.4310 n3        1 D8I     -0.296000
     11 CAI         2.5960    0.5610    0.8730 c3        1 D8I     -0.050000
     12 CAK         3.0130    1.8040    1.7000 c3        1 D8I     -0.865000
     13 SAP         4.7100    1.5910    2.3110 s4        1 D8I      2.076800
     14 OAD         5.7050    1.3450    1.1440 o         1 D8I     -0.681900
     15 OAC         5.2640    2.9070    2.9050 o         1 D8I     -0.681900
     16 OAB         4.7610    0.4750    3.3210 os        1 D8I     -1.074000
     17 H1         -3.3100   -2.3820   -3.2340 h1        1 D8I      0.076333
     18 H2         -4.2620   -1.5950   -4.2280 h1        1 D8I      0.076333
     19 H3         -4.7270   -1.8710   -2.6800 h1        1 D8I      0.076333
     20 H4         -0.7810   -0.4880   -2.2240 ha        1 D8I      0.151000
     21 H5         -4.4860   -0.4750   -0.5410 ha        1 D8I      0.125000
     22 H6         -3.5300   -0.5100    1.6040 ha        1 D8I      0.137500
     23 H7         -1.1990   -0.4810    1.8560 ha        1 D8I      0.137500
     24 H8          1.1340   -0.7930   -0.8340 h1        1 D8I      0.082500
     25 H9          0.9550   -1.2300    0.6890 h1        1 D8I      0.082500
     26 H10         1.2080    1.3040   -0.2690 hn        1 D8I      0.142000
     27 H12         2.6680   -0.2490    1.4360 h1        1 D8I      0.102500
     28 H13         3.2070    0.4680    0.0670 h1        1 D8I      0.102500
     29 H14         2.3730    1.9120    2.5020 h1        1 D8I      0.102500
     30 H15         2.9650    2.5960    1.1400 h1        1 D8I      0.102500
@<TRIPOS>BOND
     1    1    2 1   
     2    1   17 1   
     3    1   18 1   
     4    1   19 1   
     5    2    3 1   
     6    3    4 1   
     7    3    5 1   
     8    4    8 1   
     9    4   20 1   
    10    5   21 1   
    11    6    7 1   
    12    6   22 1   
    13    7   23 1   
    14    8    9 1   
    15    9   10 1   
    16    9   24 1   
    17    9   25 1   
    18   10   11 1   
    19   10   26 1   
    20   11   12 1   
    21   11   27 1   
    22   11   28 1   
    23   12   13 1   
    24   12   29 1   
    25   12   30 1   
    26   13   14 1   
    27   13   15 1   
@<TRIPOS>SUBSTRUCTURE
     1 D8I         1 TEMP              0 ****  ****    0 ROOT
