@<TRIPOS>MOLECULE
D8T
   20    19     1     0     0
SMALL
bcc


@<TRIPOS>ATOM
      1 OAA        -0.1260   -0.5020    0.0270 o         1 D8T     -0.828800
      2 OAB         3.4200   -1.8960    0.6670 oh        1 D8T     -0.646800
      3 OAC         5.2400   -1.0770    2.7390 oh        1 D8T     -0.634800
      4 CAD         1.1090   -0.2580    0.1120 c         1 D8T      0.890600
      5 CAE         1.7280   -0.3120    1.5360 c3        1 D8T     -0.012900
      6 CAF         3.1950   -0.7490    1.4750 c3        1 D8T      0.131100
      7 CAG         3.8180   -1.0500    2.8440 c3        1 D8T      0.115100
      8 CAH         3.3490   -2.3770    3.4440 c3        1 D8T      0.104400
      9 OAI         4.0700   -2.6940    4.6230 oh        1 D8T     -0.626800
     10 OAJ         1.8730   -0.0030   -0.8610 o         1 D8T     -0.828800
     11 OAK         0.9720   -1.1470    2.3940 oh        1 D8T     -0.637800
     12 HAE         1.6960    0.7220    1.9810 h1        1 D8T      0.032700
     13 HAF         3.7630    0.1160    1.0150 h1        1 D8T      0.046700
     14 HAG         3.6020   -0.2040    3.5520 h1        1 D8T      0.072700
     15 HAH         3.4810   -3.2010    2.6930 h1        1 D8T      0.068200
     16 HAHA        2.2730   -2.3110    3.7540 h1        1 D8T      0.068200
     17 HOAI        4.9980   -2.4850    4.4520 ho        1 D8T      0.399000
     18 HOAK        0.1770   -1.4100    1.9030 ho        1 D8T      0.429000
     19 HOAB        2.9900   -1.7160   -0.1850 ho        1 D8T      0.447000
     20 HOAC        5.4470   -1.6260    1.9720 ho        1 D8T      0.410000
@<TRIPOS>BOND
     1    1    4 1   
     2    2    6 1   
     3    2   19 1   
     4    3    7 1   
     5    3   20 1   
     6    4    5 1   
     7    4   10 1   
     8    5    6 1   
     9    5   11 1   
    10    5   12 1   
    11    6    7 1   
    12    6   13 1   
    13    7    8 1   
    14    7   14 1   
    15    8    9 1   
    16    8   15 1   
    17    8   16 1   
    18    9   17 1   
    19   11   18 1   
@<TRIPOS>SUBSTRUCTURE
     1 D8T         1 TEMP              0 ****  ****    0 ROOT
