@<TRIPOS>MOLECULE
D8T
   20    18     1     0     0
SMALL
bcc


@<TRIPOS>ATOM
      1 OAA        -0.2310   -1.1020   -3.4780 o         1 D8T     -0.566000
      2 OAB         1.2950    0.7350   -0.9620 oh        1 D8T     -0.380000
      3 OAC        -1.2010   -0.3630    1.4110 oh        1 D8T     -0.329000
      4 CAD        -0.8420   -1.2060   -2.3500 c1        1 D8T      0.311000
      5 CAE        -0.0540   -1.2130   -1.0670 c2        1 D8T     -0.079000
      6 CAF         0.0730    0.1930   -0.5430 c3        1 D8T      0.028000
      7 CAG         0.0230    0.1750    0.9900 c3        1 D8T      0.026000
      8 CAH         0.1570    1.5620    1.5070 c3        1 D8T     -0.055000
      9 OAI        -0.0060    1.5530    2.9540 oh        1 D8T     -0.355000
     10 OAJ        -2.0620   -1.4170   -2.3240 o         1 D8T     -0.566000
     11 OAK         1.2390   -1.7420   -1.3100 oh        1 D8T     -0.357000
     12 HOAB        1.1480    1.5200   -1.3890 ho        1 D8T      0.249000
     13 HOAC       -1.0600   -0.9880    1.9560 ho        1 D8T      0.198000
     14 HAE        -0.5330   -1.7880   -0.3800 h4        1 D8T      0.115000
     15 HAF        -0.6820    0.7520   -0.8970 h1        1 D8T      0.094000
     16 HAG         0.7800   -0.3910    1.3450 h1        1 D8T      0.102000
     17 HAH        -0.5490    2.1390    1.0950 h1        1 D8T      0.081000
     18 HAHA        1.0310    1.9080    1.2810 h1        1 D8T      0.081000
     19 HOAI        0.2270    2.3310    3.2790 ho        1 D8T      0.188000
     20 HOAK        1.2450   -2.6590   -1.1160 ho        1 D8T      0.215000
@<TRIPOS>BOND
     1    1    4 1   
     2    2    6 1   
     3    2   12 1   
     4    3    7 1   
     5    3   13 1   
     6    4   10 1   
     7    5    6 1   
     8    5   11 1   
     9    5   14 1   
    10    6    7 1   
    11    6   15 1   
    12    7    8 1   
    13    7   16 1   
    14    8    9 1   
    15    8   17 1   
    16    8   18 1   
    17    9   19 1   
    18   11   20 1   
@<TRIPOS>SUBSTRUCTURE
     1 D8T         1 TEMP              0 ****  ****    0 ROOT
