@<TRIPOS>MOLECULE
D8T
   20    19     1     0     0
SMALL
bcc


@<TRIPOS>ATOM
      1 OAA         2.7120   -0.5480   -0.8790 o         1 D8T     -0.830800
      2 OAB        -0.1820   -1.1890   -1.0630 oh        1 D8T     -0.639800
      3 OAC        -1.7450    1.0680    1.3350 oh        1 D8T     -0.593800
      4 CAD         2.2670   -0.0280    0.1890 c         1 D8T      0.890600
      5 CAE         0.9060    0.7060    0.0430 c3        1 D8T     -0.019900
      6 CAF        -0.2090   -0.3520    0.0840 c3        1 D8T      0.103100
      7 CAG        -1.6010    0.3010    0.1520 c3        1 D8T      0.136100
      8 CAH        -2.6870   -0.7780    0.0790 c3        1 D8T      0.098400
      9 OAI        -3.9050   -0.1500   -0.2950 oh        1 D8T     -0.598800
     10 OAJ         2.8120   -0.0870    1.3190 o         1 D8T     -0.830800
     11 OAK         0.8480    1.4190   -1.1790 oh        1 D8T     -0.620800
     12 HAE         0.7450    1.4620    0.8530 h1        1 D8T      0.073700
     13 HAF        -0.0580   -0.9980    0.9960 h1        1 D8T      0.031700
     14 HAG        -1.7250    1.0400   -0.6880 h1        1 D8T      0.105700
     15 HAH        -2.3990   -1.5510   -0.6810 h1        1 D8T      0.030200
     16 HAHA       -2.8160   -1.2670    1.0820 h1        1 D8T      0.030200
     17 HOAI       -4.5160   -0.8620   -0.5160 ho        1 D8T      0.380000
     18 HOAK        1.3960    0.9260   -1.8100 ho        1 D8T      0.416000
     19 HOAB        0.7470   -1.2460   -1.3470 ho        1 D8T      0.448000
     20 HOAC       -1.3740    0.5510    2.0600 ho        1 D8T      0.390000
@<TRIPOS>BOND
     1    1    4 1   
     2    2    6 1   
     3    2   19 1   
     4    3    7 1   
     5    3   20 1   
     6    4    5 1   
     7    4   10 1   
     8    5    6 1   
     9    5   11 1   
    10    5   12 1   
    11    6    7 1   
    12    6   13 1   
    13    7    8 1   
    14    7   14 1   
    15    8    9 1   
    16    8   15 1   
    17    8   16 1   
    18    9   17 1   
    19   11   18 1   
@<TRIPOS>SUBSTRUCTURE
     1 D8T         1 TEMP              0 ****  ****    0 ROOT
