@<TRIPOS>MOLECULE
D8T
   20    19     1     0     0
SMALL
bcc


@<TRIPOS>ATOM
      1 OAA        -0.1160   -0.5800   -0.0130 o         1 D8T     -0.828800
      2 OAB         3.4300   -1.9390    0.6950 oh        1 D8T     -0.646800
      3 OAC         5.2360   -1.0440    2.7480 oh        1 D8T     -0.634800
      4 CAD         1.1170   -0.3290    0.0700 c         1 D8T      0.890600
      5 CAE         1.7280   -0.3330    1.4990 c3        1 D8T     -0.012900
      6 CAF         3.1970   -0.7660    1.4620 c3        1 D8T      0.131100
      7 CAG         3.8120   -1.0180    2.8440 c3        1 D8T      0.115100
      8 CAH         3.3440   -2.3260    3.4860 c3        1 D8T      0.104400
      9 OAI         4.0590   -2.6000    4.6790 oh        1 D8T     -0.626800
     10 OAJ         1.8860   -0.1050   -0.9060 o         1 D8T     -0.828800
     11 OAK         0.9700   -1.1400    2.3810 oh        1 D8T     -0.637800
     12 HAE         1.6900    0.7170    1.9080 h1        1 D8T      0.032700
     13 HAF         3.7650    0.0840    0.9760 h1        1 D8T      0.046700
     14 HAG         3.5890   -0.1490    3.5210 h1        1 D8T      0.072700
     15 HAH         2.2660   -2.2530    3.7870 h1        1 D8T      0.068200
     16 HAHA        3.4840   -3.1740    2.7640 h1        1 D8T      0.068200
     17 HOAI        4.9870   -2.3940    4.5060 ho        1 D8T      0.399000
     18 HOAK        0.1780   -1.4230    1.8940 ho        1 D8T      0.429000
     19 HOAB        3.0050   -1.7900   -0.1660 ho        1 D8T      0.447000
     20 HOAC        5.4490   -1.6180    2.0020 ho        1 D8T      0.410000
@<TRIPOS>BOND
     1    1    4 1   
     2    2    6 1   
     3    2   19 1   
     4    3    7 1   
     5    3   20 1   
     6    4    5 1   
     7    4   10 1   
     8    5    6 1   
     9    5   11 1   
    10    5   12 1   
    11    6    7 1   
    12    6   13 1   
    13    7    8 1   
    14    7   14 1   
    15    8    9 1   
    16    8   15 1   
    17    8   16 1   
    18    9   17 1   
    19   11   18 1   
@<TRIPOS>SUBSTRUCTURE
     1 D8T         1 TEMP              0 ****  ****    0 ROOT
