@<TRIPOS>MOLECULE
D8W
   27    22     1     0     0
SMALL
bcc


@<TRIPOS>ATOM
      1 C1          3.1850   -1.2320   -0.6570 c1        1 D8W     -0.013000
      2 C2          4.5690   -1.2100   -0.7180 c1        1 D8W     -0.095750
      3 C3          5.3100   -0.9380    0.4210 c1        1 D8W     -0.095750
      4 C4          4.6660   -0.6880    1.6230 c1        1 D8W     -0.095750
      5 C5          3.2810   -0.7090    1.6850 c1        1 D8W     -0.095750
      6 C6          2.5400   -0.9810    0.5450 c1        1 D8W     -0.858000
      7 S1          0.7710   -1.0800    0.6390 s4        1 D8W      2.088800
      8 O1          0.3210   -1.0650    2.0030 o         1 D8W     -0.510400
      9 O2          0.2960   -2.3630    0.2020 o         1 D8W     -0.510400
     10 N1          0.0870    0.1360   -0.2270 n2        1 D8W     -0.754000
     11 C7         -1.2990    0.4160   -0.0860 c2        1 D8W     -0.174000
     12 S2         -2.2940    0.6410   -1.2290 ss        1 D8W      0.680000
     13 N2         -1.9920    0.5940    1.1340 n2        1 D8W     -0.104000
     14 N3         -3.4950    0.9480    0.8060 n2        1 D8W      0.066000
     15 C8         -3.6510    0.9700   -0.6000 c1        1 D8W     -1.135000
     16 S3         -5.1290    1.4120   -1.4780 ss        1 D8W      2.899000
     17 O3         -5.7100    0.2700   -2.1280 o         1 D8W     -0.931000
     18 O4         -4.8350    2.2540   -2.6040 o         1 D8W     -0.931000
     19 N4         -6.2010    2.1280   -0.4620 n2        1 D8W     -0.942000
     20 H1          2.6630   -1.4230   -1.4590 ha        1 D8W      0.160000
     21 H2          5.0230   -1.3870   -1.5640 ha        1 D8W      0.149250
     22 H3          6.2850   -0.9230    0.3780 ha        1 D8W      0.149250
     23 H4          5.1870   -0.4960    2.4260 ha        1 D8W      0.149250
     24 H5          2.8280   -0.5330    2.5310 ha        1 D8W      0.149250
     25 HN1         0.5880    0.6070   -0.8260 hn        1 D8W      0.254000
     26 HN4        -6.8220    1.6220   -0.0220 hn        1 D8W      0.252000
     27 HN4A       -6.1730    3.0320   -0.3310 hn        1 D8W      0.252000
@<TRIPOS>BOND
     1    1    6 1   
     2    1   20 1   
     3    2    3 1   
     4    2   21 1   
     5    3   22 1   
     6    4    5 1   
     7    4   23 1   
     8    5   24 1   
     9    6    7 1   
    10    7    8 1   
    11    7    9 1   
    12   10   11 1   
    13   10   25 1   
    14   11   12 1   
    15   11   13 1   
    16   12   15 1   
    17   13   14 1   
    18   14   15 1   
    19   16   17 1   
    20   16   18 1   
    21   19   26 1   
    22   19   27 1   
@<TRIPOS>SUBSTRUCTURE
     1 D8W         1 TEMP              0 ****  ****    0 ROOT
