@<TRIPOS>MOLECULE
D8W
   28    29     1     0     0
SMALL
bcc


@<TRIPOS>ATOM
      1 C1         -0.1970    0.0220   -0.0820 ca        1 D8W      0.005000
      2 C2          1.1600    0.0680   -0.3720 ca        1 D8W     -0.153500
      3 C3          2.0920    0.1670    0.6650 ca        1 D8W     -0.025000
      4 C4          1.6560    0.2220    1.9910 ca        1 D8W     -0.153500
      5 C5          0.2960    0.1750    2.2770 ca        1 D8W      0.005000
      6 C6         -0.6570    0.0700    1.2480 ca        1 D8W     -0.468500
      7 S1         -2.2590    0.0930    1.5760 sy        1 D8W      1.515200
      8 O1         -2.5450    0.5680    2.8520 o         1 D8W     -0.602300
      9 O2         -3.0110    0.5590    0.4950 o         1 D8W     -0.602300
     10 N1         -2.6630   -1.6080    1.5780 nu        1 D8W     -0.723800
     11 C7         -2.3660   -2.5210    2.5150 cc        1 D8W      0.682300
     12 S2         -2.9420   -4.1190    2.6350 ss        1 D8W      0.112200
     13 N2         -1.4800   -2.2230    3.6230 nd        1 D8W     -0.322000
     14 N3         -1.3290   -3.1810    4.3930 nd        1 D8W     -0.153000
     15 C8         -2.0390   -4.3580    4.0510 cc        1 D8W     -0.320700
     16 S3         -1.8240   -5.6590    4.9310 sy        1 D8W      1.478800
     17 O3         -2.7380   -6.6580    4.6730 o         1 D8W     -0.571300
     18 O4         -0.5370   -5.9590    5.3020 o         1 D8W     -0.571300
     19 N4         -2.4860   -4.9890    6.5930 nz        1 D8W     -0.781500
     20 H1         -0.9320   -0.0280   -0.9050 ha        1 D8W      0.163000
     21 H2          1.5020    0.0370   -1.4190 ha        1 D8W      0.161000
     22 H3          3.1700    0.2090    0.4360 ha        1 D8W      0.158000
     23 H4          2.3880    0.3110    2.8090 ha        1 D8W      0.161000
     24 H5         -0.0460    0.2370    3.3270 ha        1 D8W      0.163000
     25 HN1        -3.2440   -1.9310    0.8270 hn        1 D8W      0.471800
     26 HN4        -3.2210   -5.5940    6.9550 hn        1 D8W      0.457800
     27 HN4A       -2.8670   -4.0510    6.5160 hn        1 D8W      0.457800
     28 H43        -1.7350   -4.9620    7.2810 hn        1 D8W      0.457800
@<TRIPOS>BOND
     1    1    2 ar  
     2    1    6 ar  
     3    1   20 1   
     4    2    3 ar  
     5    2   21 1   
     6    3    4 ar  
     7    3   22 1   
     8    4    5 ar  
     9    4   23 1   
    10    5    6 ar  
    11    5   24 1   
    12    6    7 1   
    13    7    8 2   
    14    7    9 2   
    15    7   10 1   
    16   10   11 1   
    17   10   25 1   
    18   11   12 1   
    19   11   13 2   
    20   12   15 1   
    21   13   14 1   
    22   14   15 2   
    23   15   16 1   
    24   16   17 2   
    25   16   18 2   
    26   16   19 1   
    27   19   26 1   
    28   19   27 1   
    29   19   28 1   
@<TRIPOS>SUBSTRUCTURE
     1 D8W         1 TEMP              0 ****  ****    0 ROOT
