@<TRIPOS>MOLECULE
D8W
   29    29     1     0     0
SMALL
bcc


@<TRIPOS>ATOM
      1 C1          0.1600    0.1160    0.2540 ca        1 D8W      0.042000
      2 C2          1.4600    0.2830   -0.1810 ca        1 D8W     -0.148500
      3 C3          2.4830    0.5510    0.7410 ca        1 D8W      0.066000
      4 C4          2.1830    0.6460    2.1080 ca        1 D8W     -0.148500
      5 C5          0.8830    0.4800    2.5460 ca        1 D8W      0.042000
      6 C6         -0.1850    0.2110    1.6370 ca        1 D8W     -0.651500
      7 S1         -1.6330    0.0690    2.1220 s4        1 D8W      1.706300
      8 O1         -1.9100    0.2420    3.4320 o         1 D8W     -0.427900
      9 O2         -2.6080   -0.1420    1.2010 o         1 D8W     -0.427900
     10 N1         -4.2720   -2.6800    1.0710 nh        1 D8W     -0.850500
     11 C7         -3.5420   -3.2150    2.0530 cc        1 D8W      0.668300
     12 S2         -3.7660   -4.7450    2.7880 ss        1 D8W      0.133200
     13 N2         -2.4180   -2.5380    2.6580 nd        1 D8W     -0.508000
     14 N3         -1.8710   -3.2030    3.5650 nd        1 D8W     -0.132000
     15 C8         -2.4280   -4.4580    3.8080 cc        1 D8W     -0.251700
     16 S3         -1.7150   -5.4660    4.8490 sy        1 D8W      1.452800
     17 O3         -2.3720   -6.6710    4.9400 o         1 D8W     -0.547300
     18 O4         -0.3520   -5.3400    4.9420 o         1 D8W     -0.547300
     19 N4         -2.2470   -4.6440    6.4670 n4        1 D8W     -0.791500
     20 H1         -0.6420   -0.0860   -0.4820 ha        1 D8W      0.175500
     21 H2          1.6970    0.2110   -1.2590 ha        1 D8W      0.196000
     22 H3          3.5240    0.6910    0.3900 ha        1 D8W      0.194000
     23 H4          2.9890    0.8600    2.8330 ha        1 D8W      0.196000
     24 H5          0.6540    0.5650    3.6270 ha        1 D8W      0.175500
     25 HN1        -4.0800   -1.7630    0.7110 hn        1 D8W      0.495300
     26 HN4        -2.7850   -3.7940    6.3300 hn        1 D8W      0.465467
     27 HN4A       -1.4270   -4.4010    7.0280 hn        1 D8W      0.465467
     28 H12        -5.0400   -3.1850    0.6790 hn        1 D8W      0.495300
     29 H43        -2.8170   -5.2840    7.0240 hn        1 D8W      0.465467
@<TRIPOS>BOND
     1    1    2 ar  
     2    1    6 ar  
     3    1   20 1   
     4    2    3 ar  
     5    2   21 1   
     6    3    4 ar  
     7    3   22 1   
     8    4    5 ar  
     9    4   23 1   
    10    5    6 ar  
    11    5   24 1   
    12    6    7 1   
    13    7    8 1   
    14    7    9 1   
    15   10   11 1   
    16   10   25 1   
    17   10   28 1   
    18   11   12 1   
    19   11   13 2   
    20   12   15 1   
    21   13   14 1   
    22   14   15 2   
    23   15   16 1   
    24   16   17 2   
    25   16   18 2   
    26   16   19 1   
    27   19   26 1   
    28   19   27 1   
    29   19   29 1   
@<TRIPOS>SUBSTRUCTURE
     1 D8W         1 TEMP              0 ****  ****    0 ROOT
