@<TRIPOS>MOLECULE
D8W
   28    29     1     0     0
SMALL
bcc


@<TRIPOS>ATOM
      1 C1         -0.1810    0.0120   -0.0840 ca        1 D8W      0.005000
      2 C2          1.1770    0.0420   -0.3780 ca        1 D8W     -0.153500
      3 C3          2.1120    0.1290    0.6570 ca        1 D8W     -0.025000
      4 C4          1.6800    0.1900    1.9840 ca        1 D8W     -0.153500
      5 C5          0.3210    0.1590    2.2740 ca        1 D8W      0.005000
      6 C6         -0.6360    0.0660    1.2470 ca        1 D8W     -0.468500
      7 S1         -2.2370    0.1070    1.5780 sy        1 D8W      1.515200
      8 O1         -2.5150    0.5860    2.8550 o         1 D8W     -0.602300
      9 O2         -2.9860    0.5820    0.4990 o         1 D8W     -0.602300
     10 N1         -2.6620   -1.5890    1.5820 nh        1 D8W     -0.723800
     11 C7         -2.3730   -2.5050    2.5180 cc        1 D8W      0.682300
     12 S2         -2.9680   -4.0960    2.6400 ss        1 D8W      0.112200
     13 N2         -1.4810   -2.2170    3.6240 nd        1 D8W     -0.322000
     14 N3         -1.3400   -3.1770    4.3940 nd        1 D8W     -0.153000
     15 C8         -2.0640   -4.3450    4.0540 cc        1 D8W     -0.320700
     16 S3         -1.8620   -5.6490    4.9340 sy        1 D8W      1.478800
     17 O3         -2.7880   -6.6370    4.6770 o         1 D8W     -0.571300
     18 O4         -0.5780   -5.9640    5.3020 o         1 D8W     -0.571300
     19 N4         -2.5130   -4.9710    6.5960 n4        1 D8W     -0.781500
     20 H1         -0.9190   -0.0290   -0.9060 ha        1 D8W      0.163000
     21 H2          1.5150    0.0060   -1.4260 ha        1 D8W      0.161000
     22 H3          3.1900    0.1580    0.4250 ha        1 D8W      0.158000
     23 H4          2.4150    0.2700    2.8000 ha        1 D8W      0.161000
     24 H5         -0.0190    0.2250    3.3240 ha        1 D8W      0.163000
     25 HN1        -3.2480   -1.9050    0.8320 hn        1 D8W      0.471800
     26 HN4        -1.7590   -4.9530    7.2830 hn        1 D8W      0.457800
     27 HN4A       -3.2530   -5.5680    6.9600 hn        1 D8W      0.457800
     28 H43        -2.8830   -4.0280    6.5210 hn        1 D8W      0.457800
@<TRIPOS>BOND
     1    1    2 ar  
     2    1    6 ar  
     3    1   20 1   
     4    2    3 ar  
     5    2   21 1   
     6    3    4 ar  
     7    3   22 1   
     8    4    5 ar  
     9    4   23 1   
    10    5    6 ar  
    11    5   24 1   
    12    6    7 1   
    13    7    8 2   
    14    7    9 2   
    15    7   10 1   
    16   10   11 1   
    17   10   25 1   
    18   11   12 1   
    19   11   13 2   
    20   12   15 1   
    21   13   14 1   
    22   14   15 2   
    23   15   16 1   
    24   16   17 2   
    25   16   18 2   
    26   16   19 1   
    27   19   26 1   
    28   19   27 1   
    29   19   28 1   
@<TRIPOS>SUBSTRUCTURE
     1 D8W         1 TEMP              0 ****  ****    0 ROOT
