@<TRIPOS>MOLECULE
D8X
   32    31     1     0     0
SMALL
bcc


@<TRIPOS>ATOM
      1 O3P         0.6510    2.6710   -0.8520 o         1 D8X     -0.909833
      2 P           0.7790    1.1990   -0.4790 p5        1 D8X      1.323900
      3 O1P         0.7880    0.8670    0.9780 o         1 D8X     -0.909833
      4 O2P         0.0700    0.2780   -1.4250 o         1 D8X     -0.909833
      5 O5          2.4350    1.0660   -0.9750 os        1 D8X     -0.566200
      6 C5          2.6240    1.1290   -2.3320 c3        1 D8X      0.190400
      7 C4          3.1140    2.5300   -2.7920 c3        1 D8X      0.092100
      8 O4          3.2170    3.4490   -1.7340 oh        1 D8X     -0.662800
      9 C3          2.1720    3.1170   -3.8850 c3        1 D8X      0.252600
     10 O3          2.1010    2.2470   -5.0100 oh        1 D8X     -0.673800
     11 O3'         0.8410    3.2720   -3.5040 oh        1 D8X     -0.673800
     12 C2          2.7300    4.4610   -4.3770 c         1 D8X      0.597100
     13 O2          3.5470    4.5600   -5.2990 o         1 D8X     -0.593100
     14 C1          2.2150    5.6350   -3.5970 c3        1 D8X     -0.197400
     15 C1'         2.7830    6.9760   -4.0300 c3        1 D8X     -0.057700
     16 C2'         1.9160    8.1030   -3.5080 c3        1 D8X     -0.085600
     17 C22         4.2100    7.1390   -3.5510 c3        1 D8X     -0.085600
     18 H3          1.6710    0.8630   -2.8760 h1        1 D8X      0.005700
     19 H4          3.4250    0.3900   -2.6290 h1        1 D8X      0.005700
     20 H5          4.1420    2.4570   -3.2420 h1        1 D8X      0.029700
     21 H6          2.5040    3.2190   -1.0860 ho        1 D8X      0.485000
     22 H7          1.3690    1.6400   -4.8350 ho        1 D8X      0.473000
     23 H8          0.7120    2.9650   -2.5510 ho        1 D8X      0.473000
     24 H9          2.4430    5.4300   -2.5110 hc        1 D8X      0.103700
     25 H10         1.0950    5.6320   -3.6950 hc        1 D8X      0.103700
     26 H11         2.7840    7.0110   -5.1560 hc        1 D8X      0.042700
     27 H12         2.3420    9.0920   -3.8030 hc        1 D8X      0.025033
     28 H13         1.8530    8.0610   -2.3940 hc        1 D8X      0.025033
     29 H14         0.8820    8.0230   -3.9220 hc        1 D8X      0.025033
     30 H15         4.2550    7.1160   -2.4350 hc        1 D8X      0.025033
     31 H16         4.6340    8.1100   -3.9050 hc        1 D8X      0.025033
     32 H17         4.8340    6.3030   -3.9500 hc        1 D8X      0.025033
@<TRIPOS>BOND
     1    1    2 1   
     2    2    3 1   
     3    2    4 1   
     4    2    5 1   
     5    5    6 1   
     6    6    7 1   
     7    6   18 1   
     8    6   19 1   
     9    7    8 1   
    10    7    9 1   
    11    7   20 1   
    12    8   21 1   
    13    9   10 1   
    14    9   11 1   
    15    9   12 1   
    16   10   22 1   
    17   11   23 1   
    18   12   13 2   
    19   12   14 1   
    20   14   15 1   
    21   14   24 1   
    22   14   25 1   
    23   15   16 1   
    24   15   17 1   
    25   15   26 1   
    26   16   27 1   
    27   16   28 1   
    28   16   29 1   
    29   17   30 1   
    30   17   31 1   
    31   17   32 1   
@<TRIPOS>SUBSTRUCTURE
     1 D8X         1 TEMP              0 ****  ****    0 ROOT
