@<TRIPOS>MOLECULE
D8X
   32    31     1     0     0
SMALL
bcc


@<TRIPOS>ATOM
      1 O3P         1.2680   -1.1860   -1.2500 o         1 D8X     -0.909833
      2 P           2.6640   -0.7430   -0.8300 p5        1 D8X      1.323900
      3 O1P         3.6910   -1.8140   -0.6570 o         1 D8X     -0.909833
      4 O2P         3.0800    0.5690   -1.4230 o         1 D8X     -0.909833
      5 O5          2.2000   -0.3090    0.7840 os        1 D8X     -0.566200
      6 C5          1.4100    0.8090    0.8620 c3        1 D8X      0.190400
      7 C4         -0.0910    0.4560    1.0550 c3        1 D8X      0.092100
      8 O4         -0.3310   -0.9290    1.0610 oh        1 D8X     -0.662800
      9 C3         -0.9640    1.1170   -0.0530 c3        1 D8X      0.252600
     10 O3         -0.8050    2.5310   -0.0430 oh        1 D8X     -0.673800
     11 O3'        -0.6400    0.7590   -1.3610 oh        1 D8X     -0.673800
     12 C2         -2.4470    0.8170    0.2130 c         1 D8X      0.597100
     13 O2         -3.1630    1.5240    0.9320 o         1 D8X     -0.593100
     14 C1         -2.9250   -0.4410   -0.4510 c3        1 D8X     -0.197400
     15 C1'        -4.3750   -0.7890   -0.1710 c3        1 D8X     -0.057700
     16 C2'        -4.8800   -1.7890   -1.1900 c3        1 D8X     -0.085600
     17 C22        -4.5400   -1.3340    1.2330 c3        1 D8X     -0.085600
     18 H3          1.7180    1.4180    1.7620 h1        1 D8X      0.005700
     19 H4          1.5340    1.4460   -0.0610 h1        1 D8X      0.005700
     20 H5         -0.4610    0.8410    2.0440 h1        1 D8X      0.029700
     21 H6          0.3330   -1.3370    0.4500 ho        1 D8X      0.485000
     22 H7         -0.0670    2.7240   -0.6370 ho        1 D8X      0.473000
     23 H8          0.1330    0.1090   -1.3640 ho        1 D8X      0.473000
     24 H9         -2.7570   -0.3150   -1.5560 hc        1 D8X      0.103700
     25 H10        -2.2360   -1.2680   -0.1140 hc        1 D8X      0.103700
     26 H11        -4.9870    0.1540   -0.2540 hc        1 D8X      0.042700
     27 H12        -4.2570   -2.7150   -1.1660 hc        1 D8X      0.025033
     28 H13        -5.9400   -2.0670   -0.9730 hc        1 D8X      0.025033
     29 H14        -4.8280   -1.3570   -2.2180 hc        1 D8X      0.025033
     30 H15        -3.9520   -2.2750    1.3600 hc        1 D8X      0.025033
     31 H16        -4.1680   -0.5800    1.9700 hc        1 D8X      0.025033
     32 H17        -5.6140   -1.5520    1.4460 hc        1 D8X      0.025033
@<TRIPOS>BOND
     1    1    2 1   
     2    2    3 1   
     3    2    4 1   
     4    2    5 1   
     5    5    6 1   
     6    6    7 1   
     7    6   18 1   
     8    6   19 1   
     9    7    8 1   
    10    7    9 1   
    11    7   20 1   
    12    8   21 1   
    13    9   10 1   
    14    9   11 1   
    15    9   12 1   
    16   10   22 1   
    17   11   23 1   
    18   12   13 2   
    19   12   14 1   
    20   14   15 1   
    21   14   24 1   
    22   14   25 1   
    23   15   16 1   
    24   15   17 1   
    25   15   26 1   
    26   16   27 1   
    27   16   28 1   
    28   16   29 1   
    29   17   30 1   
    30   17   31 1   
    31   17   32 1   
@<TRIPOS>SUBSTRUCTURE
     1 D8X         1 TEMP              0 ****  ****    0 ROOT
