@<TRIPOS>MOLECULE
D8X
   32    31     1     0     0
SMALL
bcc


@<TRIPOS>ATOM
      1 O3P        -0.6500    0.2180   -0.8340 o         1 D8X     -0.912500
      2 P           0.7380    0.7680   -0.7760 p5        1 D8X      1.322900
      3 O1P         0.8760    2.2520   -0.4770 o         1 D8X     -0.912500
      4 O2P         1.8200   -0.0940   -0.1990 o         1 D8X     -0.912500
      5 O5          1.1960    0.9220   -2.4480 os        1 D8X     -0.585200
      6 C5          2.5380    1.1340   -2.6500 c3        1 D8X      0.178400
      7 C4          2.8780    2.6210   -2.9190 c3        1 D8X      0.081100
      8 O4          3.1340    3.3250   -1.7250 oh        1 D8X     -0.683800
      9 C3          1.7460    3.3400   -3.7070 c3        1 D8X      0.268600
     10 O3          1.2120    2.5360   -4.7380 oh        1 D8X     -0.667300
     11 O3'         0.6450    3.7000   -2.9180 oh        1 D8X     -0.667300
     12 C2          2.3170    4.6150   -4.3430 c         1 D8X      0.600100
     13 O2          2.8200    4.6510   -5.4710 o         1 D8X     -0.589100
     14 C1          2.2560    5.8040   -3.4280 c3        1 D8X     -0.196400
     15 C1'         2.9460    7.0460   -3.9640 c3        1 D8X     -0.059700
     16 C2'         2.4880    8.2710   -3.1990 c3        1 D8X     -0.085100
     17 C22         4.4510    6.9060   -3.8860 c3        1 D8X     -0.085100
     18 H3          3.1350    0.7920   -1.7560 h1        1 D8X      0.016200
     19 H4          2.8640    0.5560   -3.5640 h1        1 D8X      0.016200
     20 H5          3.8260    2.6870   -3.5200 h1        1 D8X      0.023700
     21 H6          2.4490    3.0370   -1.0680 ho        1 D8X      0.492000
     22 H7          0.7480    1.8040   -4.2950 ho        1 D8X      0.481500
     23 H8          0.5820    3.0710   -2.1490 ho        1 D8X      0.481500
     24 H9          1.1680    6.0120   -3.2340 hc        1 D8X      0.100200
     25 H10         2.7020    5.4830   -2.4430 hc        1 D8X      0.100200
     26 H11         2.6600    7.1680   -5.0480 hc        1 D8X      0.045700
     27 H12         3.0070    9.1850   -3.5770 hc        1 D8X      0.024700
     28 H13         2.7140    8.1580   -2.1120 hc        1 D8X      0.024700
     29 H14         1.3870    8.4140   -3.3160 hc        1 D8X      0.024700
     30 H15         4.7810    6.7840   -2.8260 hc        1 D8X      0.024700
     31 H16         4.7710    6.0040   -4.4640 hc        1 D8X      0.024700
     32 H17         4.9520    7.8070   -4.3130 hc        1 D8X      0.024700
@<TRIPOS>BOND
     1    1    2 1   
     2    2    3 1   
     3    2    4 1   
     4    2    5 1   
     5    5    6 1   
     6    6    7 1   
     7    6   18 1   
     8    6   19 1   
     9    7    8 1   
    10    7    9 1   
    11    7   20 1   
    12    8   21 1   
    13    9   10 1   
    14    9   11 1   
    15    9   12 1   
    16   10   22 1   
    17   11   23 1   
    18   12   13 2   
    19   12   14 1   
    20   14   15 1   
    21   14   24 1   
    22   14   25 1   
    23   15   16 1   
    24   15   17 1   
    25   15   26 1   
    26   16   27 1   
    27   16   28 1   
    28   16   29 1   
    29   17   30 1   
    30   17   31 1   
    31   17   32 1   
@<TRIPOS>SUBSTRUCTURE
     1 D8X         1 TEMP              0 ****  ****    0 ROOT
