@<TRIPOS>MOLECULE
D8Y
   29    30     1     0     0
SMALL
bcc


@<TRIPOS>ATOM
      1 C1         -0.0540    0.0130   -0.0020 ca        1 D8Y      0.434200
      2 N1          1.2810   -0.0550   -0.0770 nb        1 D8Y     -0.724000
      3 CL1         2.5280    1.1630    9.1430 cl        1 D8Y     -0.097400
      4 C2          1.9960   -0.0160    1.0970 ca        1 D8Y      0.631200
      5 N2          3.3950    0.0280    1.0170 nh        1 D8Y     -0.925500
      6 C3          1.3420    0.0550    2.3720 ca        1 D8Y     -0.248600
      7 C4         -0.0540    0.1150    2.3920 ca        1 D8Y     -0.059000
      8 C5         -0.7750    0.1000    1.2010 ca        1 D8Y     -0.292300
      9 C6          2.0920    0.0590    3.6550 c3        1 D8Y     -0.018100
     10 C7          2.6730    1.4290    3.9720 c3        1 D8Y     -0.042100
     11 C8          3.4070    1.4230    5.2680 ca        1 D8Y     -0.070300
     12 C9          4.8000    1.5500    5.2970 ca        1 D8Y     -0.128000
     13 C10         5.4810    1.5550    6.5130 ca        1 D8Y     -0.120000
     14 C11         4.7840    1.4330    7.7140 ca        1 D8Y     -0.127000
     15 C12         3.3920    1.3090    7.6840 ca        1 D8Y      0.020400
     16 C13         2.7000    1.3050    6.4700 ca        1 D8Y     -0.125000
     17 H1         -0.5780   -0.0130   -0.9760 h4        1 D8Y      0.020100
     18 HN2         3.7860   -0.2140    0.1320 hn        1 D8Y      0.403800
     19 HN2A        3.8590   -0.3920    1.7910 hn        1 D8Y      0.403800
     20 H4         -0.5830    0.1730    3.3560 ha        1 D8Y      0.135000
     21 H5         -1.8700    0.1500    1.1940 ha        1 D8Y      0.144000
     22 H6          1.4030   -0.2410    4.4920 hc        1 D8Y      0.046200
     23 H6A         2.9140   -0.7050    3.6360 hc        1 D8Y      0.046200
     24 H7          1.8380    2.1800    4.0220 hc        1 D8Y      0.061700
     25 H7A         3.3570    1.7520    3.1430 hc        1 D8Y      0.061700
     26 H9          5.3600    1.6510    4.3550 ha        1 D8Y      0.136000
     27 H10         6.5770    1.6560    6.5280 ha        1 D8Y      0.137000
     28 H11         5.3230    1.4380    8.6730 ha        1 D8Y      0.147000
     29 H13         1.6040    1.2110    6.4540 ha        1 D8Y      0.146000
@<TRIPOS>BOND
     1    1    2 ar  
     2    1    8 ar  
     3    1   17 1   
     4    2    4 ar  
     5    3   15 1   
     6    4    5 1   
     7    4    6 ar  
     8    5   18 1   
     9    5   19 1   
    10    6    7 ar  
    11    6    9 1   
    12    7    8 ar  
    13    7   20 1   
    14    8   21 1   
    15    9   10 1   
    16    9   22 1   
    17    9   23 1   
    18   10   11 1   
    19   10   24 1   
    20   10   25 1   
    21   11   12 ar  
    22   11   16 ar  
    23   12   13 ar  
    24   12   26 1   
    25   13   14 ar  
    26   13   27 1   
    27   14   15 ar  
    28   14   28 1   
    29   15   16 ar  
    30   16   29 1   
@<TRIPOS>SUBSTRUCTURE
     1 D8Y         1 TEMP              0 ****  ****    0 ROOT
