@<TRIPOS>MOLECULE
D8Y
   30    31     1     0     0
SMALL
bcc


@<TRIPOS>ATOM
      1 C1          1.4470   -0.2510    0.0050 ca        1 D8Y      0.434200
      2 N1          2.3980   -0.5770    0.8840 nb        1 D8Y     -0.650000
      3 CL1         4.6520   -0.9350    7.7230 cl        1 D8Y     -0.040400
      4 C2          2.1710   -0.2650    2.1950 ca        1 D8Y      0.435200
      5 N2          3.2560   -0.6180    3.1320 n4        1 D8Y     -0.820300
      6 C3          1.0010    0.3650    2.6770 ca        1 D8Y     -0.130600
      7 C4          0.0260    0.6920    1.7110 ca        1 D8Y     -0.079000
      8 C5          0.2400    0.3910    0.3730 ca        1 D8Y     -0.181300
      9 C6          0.7450    0.6600    4.1120 c3        1 D8Y     -0.062100
     10 C7          1.5380    1.8390    4.6540 c3        1 D8Y     -0.050100
     11 C8          2.9180    1.4990    5.0990 ca        1 D8Y     -0.121300
     12 C9          4.0160    2.2040    4.5900 ca        1 D8Y     -0.161000
     13 C10         5.3020    1.9380    5.0620 ca        1 D8Y     -0.112000
     14 C11         5.5110    0.9620    6.0340 ca        1 D8Y     -0.120000
     15 C12         4.4160    0.2500    6.5400 ca        1 D8Y      0.013400
     16 C13         3.1230    0.5180    6.0790 ca        1 D8Y     -0.178000
     17 H1          1.6600   -0.5180   -1.0500 h4        1 D8Y      0.067100
     18 HN2         2.8520   -0.8550    4.0490 hn        1 D8Y      0.472800
     19 HN2A        3.8690    0.2050    3.2510 hn        1 D8Y      0.472800
     20 H4         -0.9070    1.1870    2.0310 ha        1 D8Y      0.177000
     21 H5         -0.5090    0.6380   -0.3970 ha        1 D8Y      0.185000
     22 H6          0.9310   -0.2570    4.7360 hc        1 D8Y      0.075200
     23 H6A        -0.3500    0.8990    4.2360 hc        1 D8Y      0.075200
     24 H7          1.5680    2.6570    3.8850 hc        1 D8Y      0.084200
     25 H7A         0.9830    2.2510    5.5450 hc        1 D8Y      0.084200
     26 H9          3.8610    3.0040    3.8480 ha        1 D8Y      0.156000
     27 H10         6.1580    2.5200    4.6790 ha        1 D8Y      0.164000
     28 H11         6.5270    0.7670    6.4180 ha        1 D8Y      0.174000
     29 H13         2.2600    0.0000    6.5290 ha        1 D8Y      0.161000
     30 H23         3.8070   -1.4080    2.7750 hn        1 D8Y      0.472800
@<TRIPOS>BOND
     1    1    2 ar  
     2    1    8 ar  
     3    1   17 1   
     4    2    4 ar  
     5    3   15 1   
     6    4    5 1   
     7    4    6 ar  
     8    5   18 1   
     9    5   19 1   
    10    5   30 1   
    11    6    7 ar  
    12    6    9 1   
    13    7    8 ar  
    14    7   20 1   
    15    8   21 1   
    16    9   10 1   
    17    9   22 1   
    18    9   23 1   
    19   10   11 1   
    20   10   24 1   
    21   10   25 1   
    22   11   12 ar  
    23   11   16 ar  
    24   12   13 ar  
    25   12   26 1   
    26   13   14 ar  
    27   13   27 1   
    28   14   15 ar  
    29   14   28 1   
    30   15   16 ar  
    31   16   29 1   
@<TRIPOS>SUBSTRUCTURE
     1 D8Y         1 TEMP              0 ****  ****    0 ROOT
