@<TRIPOS>MOLECULE
D8Y
   29    30     1     0     0
SMALL
bcc


@<TRIPOS>ATOM
      1 C1         -0.0560    0.0340   -0.0040 ca        1 D8Y      0.434200
      2 N1          1.2790   -0.0360   -0.0790 nb        1 D8Y     -0.724000
      3 Cl1         2.5350    1.1340    9.1450 cl        1 D8Y     -0.097400
      4 C2          1.9940   -0.0040    1.0960 ca        1 D8Y      0.631200
      5 N2          3.3930    0.0370    1.0150 nv        1 D8Y     -0.925500
      6 C3          1.3400    0.0640    2.3710 ca        1 D8Y     -0.248600
      7 C4         -0.0560    0.1260    2.3900 ca        1 D8Y     -0.059000
      8 C5         -0.7770    0.1170    1.1990 ca        1 D8Y     -0.292300
      9 C6          2.0890    0.0620    3.6540 c3        1 D8Y     -0.018100
     10 C7          2.6730    1.4290    3.9760 c3        1 D8Y     -0.042100
     11 C8          3.4080    1.4160    5.2710 ca        1 D8Y     -0.070300
     12 C9          4.8020    1.5440    5.2990 ca        1 D8Y     -0.128000
     13 C10         5.4840    1.5420    6.5140 ca        1 D8Y     -0.120000
     14 C11         4.7890    1.4140    7.7150 ca        1 D8Y     -0.127000
     15 C12         3.3970    1.2890    7.6860 ca        1 D8Y      0.020400
     16 C13         2.7040    1.2900    6.4740 ca        1 D8Y     -0.125000
     17 H1         -0.5790    0.0140   -0.9780 h4        1 D8Y      0.020100
     18 HN2         3.8560   -0.3860    1.7880 hn        1 D8Y      0.403800
     19 HN2A        3.7840   -0.2020    0.1300 hn        1 D8Y      0.403800
     20 H4         -0.5850    0.1820    3.3540 ha        1 D8Y      0.135000
     21 H5         -1.8720    0.1700    1.1920 ha        1 D8Y      0.144000
     22 H6          1.3990   -0.2410    4.4890 hc        1 D8Y      0.046200
     23 H6A         2.9100   -0.7040    3.6320 hc        1 D8Y      0.046200
     24 H7          3.3570    1.7550    3.1470 hc        1 D8Y      0.061700
     25 H7A         1.8390    2.1800    4.0310 hc        1 D8Y      0.061700
     26 H9          5.3610    1.6510    4.3570 ha        1 D8Y      0.136000
     27 H10         6.5800    1.6450    6.5280 ha        1 D8Y      0.137000
     28 H11         5.3300    1.4130    8.6730 ha        1 D8Y      0.147000
     29 H13         1.6070    1.1960    6.4580 ha        1 D8Y      0.146000
@<TRIPOS>BOND
     1    1    2 ar  
     2    1    8 ar  
     3    1   17 1   
     4    2    4 ar  
     5    3   15 1   
     6    4    5 1   
     7    4    6 ar  
     8    5   18 1   
     9    5   19 1   
    10    6    7 ar  
    11    6    9 1   
    12    7    8 ar  
    13    7   20 1   
    14    8   21 1   
    15    9   10 1   
    16    9   22 1   
    17    9   23 1   
    18   10   11 1   
    19   10   24 1   
    20   10   25 1   
    21   11   12 ar  
    22   11   16 ar  
    23   12   13 ar  
    24   12   26 1   
    25   13   14 ar  
    26   13   27 1   
    27   14   15 ar  
    28   14   28 1   
    29   15   16 ar  
    30   16   29 1   
@<TRIPOS>SUBSTRUCTURE
     1 D8Y         1 TEMP              0 ****  ****    0 ROOT
