@<TRIPOS>MOLECULE
D8Y
   29    30     1     0     0
SMALL
bcc


@<TRIPOS>ATOM
      1 C1         -5.0790   -0.8580    0.2250 ca        1 D8Y      0.434200
      2 N1         -4.7180    0.4220    0.0730 nb        1 D8Y     -0.724000
      3 CL1         4.4400   -1.5330   -0.5230 cl        1 D8Y     -0.097400
      4 C2         -3.3890    0.6940   -0.1580 ca        1 D8Y      0.631200
      5 N2         -2.9890    2.0370   -0.2050 nh        1 D8Y     -0.925500
      6 C3         -2.4170   -0.3550   -0.2730 ca        1 D8Y     -0.248600
      7 C4         -2.8520   -1.6740   -0.1130 ca        1 D8Y     -0.059000
      8 C5         -4.1930   -1.9450    0.1440 ca        1 D8Y     -0.292300
      9 C6         -0.9840   -0.0870   -0.5590 c3        1 D8Y     -0.018100
     10 C7         -0.2280    0.3620    0.6830 c3        1 D8Y     -0.042100
     11 C8          1.2100    0.6120    0.3840 ca        1 D8Y     -0.070300
     12 C9          1.7240    1.9130    0.4030 ca        1 D8Y     -0.128000
     13 C10         3.0730    2.1400    0.1340 ca        1 D8Y     -0.120000
     14 C11         3.9250    1.0760   -0.1570 ca        1 D8Y     -0.127000
     15 C12         3.4110   -0.2240   -0.1720 ca        1 D8Y      0.020400
     16 C13         2.0610   -0.4620    0.0970 ca        1 D8Y     -0.125000
     17 H1         -6.1560   -1.0190    0.4180 h4        1 D8Y      0.020100
     18 HN2        -3.7230    2.7040   -0.3090 hn        1 D8Y      0.403800
     19 HN2A       -2.2040    2.2050   -0.7920 hn        1 D8Y      0.403800
     20 H4         -2.1270   -2.4990   -0.1930 ha        1 D8Y      0.135000
     21 H5         -4.5530   -2.9720    0.2770 ha        1 D8Y      0.144000
     22 H6         -0.5000   -1.0230   -0.9550 hc        1 D8Y      0.046200
     23 H6A        -0.8780    0.6860   -1.3660 hc        1 D8Y      0.046200
     24 H7         -0.7020    1.2890    1.1010 hc        1 D8Y      0.061700
     25 H7A        -0.3090   -0.4350    1.4710 hc        1 D8Y      0.061700
     26 H9          1.0620    2.7600    0.6350 ha        1 D8Y      0.136000
     27 H10         3.4710    3.1660    0.1510 ha        1 D8Y      0.137000
     28 H11         4.9890    1.2580   -0.3680 ha        1 D8Y      0.147000
     29 H13         1.6630   -1.4880    0.0870 ha        1 D8Y      0.146000
@<TRIPOS>BOND
     1    1    2 ar  
     2    1    8 ar  
     3    1   17 1   
     4    2    4 ar  
     5    3   15 1   
     6    4    5 1   
     7    4    6 ar  
     8    5   18 1   
     9    5   19 1   
    10    6    7 ar  
    11    6    9 1   
    12    7    8 ar  
    13    7   20 1   
    14    8   21 1   
    15    9   10 1   
    16    9   22 1   
    17    9   23 1   
    18   10   11 1   
    19   10   24 1   
    20   10   25 1   
    21   11   12 ar  
    22   11   16 ar  
    23   12   13 ar  
    24   12   26 1   
    25   13   14 ar  
    26   13   27 1   
    27   14   15 ar  
    28   14   28 1   
    29   15   16 ar  
    30   16   29 1   
@<TRIPOS>SUBSTRUCTURE
     1 D8Y         1 TEMP              0 ****  ****    0 ROOT
