@<TRIPOS>MOLECULE
D8Y
   29    26     1     0     0
SMALL
bcc


@<TRIPOS>ATOM
      1 C1         -1.9750   -0.4970   -4.1210 c1        1 D8Y     -0.129000
      2 N1         -2.6030   -0.9200   -2.9880 n1        1 D8Y     -0.198000
      3 CL1        -0.9170    1.0300    4.9210 cl        1 D8Y     -0.019000
      4 C2         -1.9190   -0.9810   -1.8110 c1        1 D8Y      0.112000
      5 N2         -2.5570   -1.4830   -0.6470 n3        1 D8Y     -0.324000
      6 C3         -0.5820   -0.6130   -1.7660 c1        1 D8Y     -0.178000
      7 C4          0.0470   -0.1900   -2.9000 c1        1 D8Y     -0.059000
      8 C5         -0.6390   -0.1290   -4.0780 c1        1 D8Y     -0.129000
      9 C6          0.1840   -0.7020   -0.4610 c3        1 D8Y     -0.104000
     10 C7          0.6420    0.6810   -0.0510 c3        1 D8Y     -0.128000
     11 C8          0.9990    0.6780    1.4220 c2        1 D8Y     -0.063000
     12 C9          2.3280    0.6060    1.8120 c2        1 D8Y     -0.129000
     13 C10         2.6610    0.6820    3.1550 c1        1 D8Y     -0.119000
     14 C11         1.6660    0.8300    4.1080 c1        1 D8Y     -0.127000
     15 C12         0.3370    0.9010    3.7190 c2        1 D8Y     -0.059000
     16 C13         0.0040    0.8250    2.3750 c2        1 D8Y     -0.124000
     17 H1         -2.4660   -0.4540   -4.9640 ha        1 D8Y      0.150000
     18 HN2        -2.0560   -1.7440    0.0710 hn        1 D8Y      0.200500
     19 HN2A       -3.4660   -1.5790   -0.6290 hn        1 D8Y      0.200500
     20 H4          0.9890    0.0690   -2.8680 ha        1 D8Y      0.134000
     21 H5         -0.1890    0.1740   -4.8890 ha        1 D8Y      0.150000
     22 H6         -0.3960   -1.0720    0.2320 hc        1 D8Y      0.085500
     23 H6A         0.9620   -1.2820   -0.5790 hc        1 D8Y      0.085500
     24 H7         -0.0780    1.3240   -0.2110 hc        1 D8Y      0.101500
     25 H7A         1.4270    0.9330   -0.5760 hc        1 D8Y      0.101500
     26 H9          3.0280    0.5030    1.1410 ha        1 D8Y      0.135000
     27 H10         3.5970    0.6320    3.4300 ha        1 D8Y      0.137000
     28 H11         1.9010    0.8830    5.0550 ha        1 D8Y      0.147000
     29 H13        -0.9290    0.8960    2.0990 ha        1 D8Y      0.147000
@<TRIPOS>BOND
     1    1    8 1   
     2    1   17 1   
     3    2    4 1   
     4    3   15 1   
     5    4    5 1   
     6    5   18 1   
     7    5   19 1   
     8    6    7 1   
     9    6    9 1   
    10    7   20 1   
    11    8   21 1   
    12    9   10 1   
    13    9   22 1   
    14    9   23 1   
    15   10   11 1   
    16   10   24 1   
    17   10   25 1   
    18   11   12 1   
    19   11   16 1   
    20   12   13 1   
    21   12   26 1   
    22   13   27 1   
    23   14   15 1   
    24   14   28 1   
    25   15   16 1   
    26   16   29 1   
@<TRIPOS>SUBSTRUCTURE
     1 D8Y         1 TEMP              0 ****  ****    0 ROOT
