@<TRIPOS>MOLECULE
D90
   52    56     1     0     0
SMALL
bcc


@<TRIPOS>ATOM
      1 C1         -0.2070   -0.0830   -0.2010 cc        1 D90     -0.143300
      2 N1          1.1810   -0.1540   -0.4210 na        1 D90     -0.172400
      3 O1         -2.2290    0.7400   -1.1220 o         1 D90     -0.567100
      4 CL1         2.9910   -0.4750    5.1310 cl        1 D90     -0.102400
      5 C2         -1.2060    0.0550   -1.2910 c         1 D90      0.701300
      6 C3         -0.4830   -0.1390    1.1670 cd        1 D90     -0.101200
      7 C4          0.7850   -0.2260    1.8480 ca        1 D90     -0.111800
      8 C5          1.8060   -0.2070    0.8220 ca        1 D90     -0.030200
      9 C6          1.1530   -0.3120    3.1930 ca        1 D90     -0.063000
     10 C7          3.1700   -0.2640    1.1620 ca        1 D90     -0.140000
     11 C8          3.5030   -0.3450    2.5010 ca        1 D90     -0.098000
     12 C9          2.5050   -0.3700    3.5010 ca        1 D90     -0.016600
     13 C10        -2.4590    0.2140   -6.3070 ca        1 D90     -0.145000
     14 C11        -1.2860   -0.5140   -6.1740 ca        1 D90     -0.128000
     15 C13        -3.1360    0.6450   -5.1680 ca        1 D90     -0.105000
     16 C15        -2.6430    0.3560   -3.9030 ca        1 D90     -0.149000
     17 CC1         1.6030   -1.3140   -4.2980 c         1 D90      0.605600
     18 OC1         1.7260   -0.4100   -3.4420 o         1 D90     -0.644100
     19 CP1        -1.4440   -0.3760   -3.7320 ca        1 D90      0.088600
     20 NP1        -0.9430   -0.6680   -2.4550 n         1 D90     -0.453100
     21 CP2        -0.7580   -0.8300   -4.9040 ca        1 D90     -0.022400
     22 NP2         0.3910   -1.6610   -4.8620 n         1 D90     -0.439100
     23 CZ1         2.7970   -2.1230   -4.6790 cc        1 D90      0.279900
     24 NZ1         2.8290   -2.9980   -5.7010 nd        1 D90     -0.610000
     25 SZ1         4.2710   -1.9680   -3.8260 ss        1 D90      0.077700
     26 CZ2         4.9980   -3.0820   -4.8170 cc        1 D90     -0.222700
     27 NZ2         6.6790   -4.7110   -5.5910 n3        1 D90     -0.728600
     28 CZ3         6.4030   -3.5520   -4.7470 c3        1 D90      0.248100
     29 CZ4         6.0070   -4.6690   -6.8830 c3        1 D90      0.167800
     30 CZ5         4.4820   -4.5820   -6.7770 c3        1 D90     -0.106700
     31 CZ6         4.0890   -3.5510   -5.7830 cd        1 D90      0.351600
     32 CZ7         8.0980   -4.9600   -5.7130 c3        1 D90      0.156100
     33 HN1         1.6290    0.0220   -1.2870 hn        1 D90      0.326700
     34 H3         -1.4680   -0.1150    1.6270 ha        1 D90      0.173000
     35 H6          0.3830   -0.3300    3.9780 ha        1 D90      0.152000
     36 H7          3.9470   -0.2430    0.3850 ha        1 D90      0.139000
     37 H8          4.5620   -0.3900    2.7980 ha        1 D90      0.145000
     38 H10        -2.8500    0.4490   -7.3080 ha        1 D90      0.138000
     39 H11        -0.7630   -0.8540   -7.0830 ha        1 D90      0.136000
     40 H13        -4.0710    1.2190   -5.2650 ha        1 D90      0.140000
     41 H15        -3.2040    0.7090   -3.0200 ha        1 D90      0.179000
     42 HNP1       -0.1300   -1.2470   -2.4320 hn        1 D90      0.327500
     43 HNP2        0.4020   -2.3630   -5.5740 hn        1 D90      0.338500
     44 HZ3         6.6440   -3.8650   -3.6880 h1        1 D90      0.048700
     45 HZ3A        7.0780   -2.6790   -5.0060 h1        1 D90      0.048700
     46 HZ4         6.2650   -5.6200   -7.4300 h1        1 D90      0.039200
     47 HZ4A        6.3730   -3.8040   -7.5110 h1        1 D90      0.039200
     48 HZ5         4.0650   -4.3430   -7.7900 hc        1 D90      0.071700
     49 HZ5A        4.0620   -5.5730   -6.4550 hc        1 D90      0.071700
     50 HZ7         8.2470   -5.9330   -6.2490 h1        1 D90      0.036700
     51 HZ7A        8.6470   -4.1530   -6.2730 h1        1 D90      0.036700
     52 HZ7B        8.5390   -5.0440   -4.6850 h1        1 D90      0.036700
@<TRIPOS>BOND
     1    1    2 1   
     2    1    5 1   
     3    1    6 2   
     4    2    8 1   
     5    2   33 1   
     6    3    5 2   
     7    4   12 1   
     8    5   20 1   
     9    6    7 1   
    10    6   34 1   
    11    7    8 ar  
    12    7    9 ar  
    13    8   10 ar  
    14    9   12 ar  
    15    9   35 1   
    16   10   11 ar  
    17   10   36 1   
    18   11   12 ar  
    19   11   37 1   
    20   13   14 ar  
    21   13   15 ar  
    22   13   38 1   
    23   14   21 ar  
    24   14   39 1   
    25   15   16 ar  
    26   15   40 1   
    27   16   19 ar  
    28   16   41 1   
    29   17   18 2   
    30   17   22 1   
    31   17   23 1   
    32   19   20 1   
    33   19   21 ar  
    34   20   42 1   
    35   21   22 1   
    36   22   43 1   
    37   23   24 2   
    38   23   25 1   
    39   24   31 1   
    40   25   26 1   
    41   26   28 1   
    42   26   31 2   
    43   27   28 1   
    44   27   29 1   
    45   27   32 1   
    46   28   44 1   
    47   28   45 1   
    48   29   30 1   
    49   29   46 1   
    50   29   47 1   
    51   30   31 1   
    52   30   48 1   
    53   30   49 1   
    54   32   50 1   
    55   32   51 1   
    56   32   52 1   
@<TRIPOS>SUBSTRUCTURE
     1 D90         1 TEMP              0 ****  ****    0 ROOT
