@<TRIPOS>MOLECULE
D90
   52    56     1     0     0
SMALL
bcc


@<TRIPOS>ATOM
      1 C1         -3.0630    1.2220   -0.1250 cc        1 D90     -0.143300
      2 N1         -2.4360    0.0940    0.4360 na        1 D90     -0.172400
      3 O1         -3.1090    3.5900   -0.0590 o         1 D90     -0.567100
      4 CL1        -6.7630   -3.7890   -0.1980 cl        1 D90     -0.102400
      5 C2         -2.4270    2.5620   -0.2040 c         1 D90      0.701300
      6 C3         -4.3480    0.8940   -0.5630 cd        1 D90     -0.101200
      7 C4         -4.5570   -0.4970   -0.2450 ca        1 D90     -0.111800
      8 C5         -3.3470   -0.9580    0.4020 ca        1 D90     -0.030200
      9 C6         -5.6230   -1.3800   -0.4360 ca        1 D90     -0.063000
     10 C7         -3.2330   -2.2860    0.8550 ca        1 D90     -0.140000
     11 C8         -4.3060   -3.1340    0.6550 ca        1 D90     -0.098000
     12 C9         -5.4840   -2.6850    0.0160 ca        1 D90     -0.016600
     13 C10         1.6380    5.7000    0.4140 ca        1 D90     -0.145000
     14 C11         2.1100    4.4080    0.2310 ca        1 D90     -0.128000
     15 C13         0.2750    5.9620    0.2860 ca        1 D90     -0.105000
     16 C15        -0.6130    4.9390   -0.0160 ca        1 D90     -0.149000
     17 CC1         1.5480    0.9180    0.3550 c         1 D90      0.605600
     18 OC1         0.5110    0.7540    1.0380 o         1 D90     -0.643100
     19 CP1        -0.1680    3.6090   -0.1980 ca        1 D90      0.088600
     20 NP1        -1.0640    2.5740   -0.5030 n         1 D90     -0.453100
     21 CP2         1.2350    3.3450   -0.0810 ca        1 D90     -0.022400
     22 NP2         1.8150    2.0780   -0.3460 n         1 D90     -0.439100
     23 CZ1         2.5110   -0.2110    0.2120 cc        1 D90      0.279900
     24 NZ1         3.7330   -0.1040   -0.3430 nd        1 D90     -0.610000
     25 SZ1         2.1260   -1.7730    0.7900 ss        1 D90      0.077700
     26 CZ2         3.6020   -2.3520    0.3060 cc        1 D90     -0.222700
     27 NZ2         5.3400   -4.0000   -0.2810 n3        1 D90     -0.728600
     28 CZ3         4.1090   -3.7370    0.4600 c3        1 D90      0.248100
     29 CZ4         6.2840   -2.8910   -0.2620 c3        1 D90      0.167800
     30 CZ5         5.7160   -1.5930   -0.8400 c3        1 D90     -0.106700
     31 CZ6         4.3610   -1.3290   -0.2920 cd        1 D90      0.351600
     32 CZ7         5.9460   -5.2520    0.1140 c3        1 D90      0.156100
     33 HN1        -1.5900    0.1110    0.9520 hn        1 D90      0.326700
     34 H3         -5.0550    1.5640   -1.0460 ha        1 D90      0.173000
     35 H6         -6.5440   -1.0380   -0.9310 ha        1 D90      0.152000
     36 H7         -2.3190   -2.6360    1.3530 ha        1 D90      0.139000
     37 H8         -4.2470   -4.1780    1.0000 ha        1 D90      0.145000
     38 H10         2.3400    6.5110    0.6580 ha        1 D90      0.138000
     39 H11         3.1910    4.2150    0.3300 ha        1 D90      0.136000
     40 H13        -0.1050    6.9850    0.4240 ha        1 D90      0.140000
     41 H15        -1.6860    5.1800   -0.1140 ha        1 D90      0.179000
     42 HNP1       -0.6510    1.6830   -0.6810 hn        1 D90      0.327500
     43 HNP2        2.6930    2.1320   -0.8220 hn        1 D90      0.338500
     44 HZ3         4.2390   -3.9420    1.5670 h1        1 D90      0.048700
     45 HZ3A        3.3400   -4.4660    0.0680 h1        1 D90      0.048700
     46 HZ4         6.6570   -2.6850    0.7850 h1        1 D90      0.039200
     47 HZ4A        7.1730   -3.1930   -0.8860 h1        1 D90      0.039200
     48 HZ5         6.4190   -0.7530   -0.5970 hc        1 D90      0.071700
     49 HZ5A        5.6440   -1.6690   -1.9590 hc        1 D90      0.071700
     50 HZ7         5.1840   -6.0690    0.0140 h1        1 D90      0.036700
     51 HZ7A        6.8010   -5.4700   -0.5780 h1        1 D90      0.036700
     52 HZ7B        6.3310   -5.2480    1.1710 h1        1 D90      0.036700
@<TRIPOS>BOND
     1    1    2 1   
     2    1    5 1   
     3    1    6 2   
     4    2    8 1   
     5    2   33 1   
     6    3    5 2   
     7    4   12 1   
     8    5   20 1   
     9    6    7 1   
    10    6   34 1   
    11    7    8 ar  
    12    7    9 ar  
    13    8   10 ar  
    14    9   12 ar  
    15    9   35 1   
    16   10   11 ar  
    17   10   36 1   
    18   11   12 ar  
    19   11   37 1   
    20   13   14 ar  
    21   13   15 ar  
    22   13   38 1   
    23   14   21 ar  
    24   14   39 1   
    25   15   16 ar  
    26   15   40 1   
    27   16   19 ar  
    28   16   41 1   
    29   17   18 2   
    30   17   22 1   
    31   17   23 1   
    32   19   20 1   
    33   19   21 ar  
    34   20   42 1   
    35   21   22 1   
    36   22   43 1   
    37   23   24 2   
    38   23   25 1   
    39   24   31 1   
    40   25   26 1   
    41   26   28 1   
    42   26   31 2   
    43   27   28 1   
    44   27   29 1   
    45   27   32 1   
    46   28   44 1   
    47   28   45 1   
    48   29   30 1   
    49   29   46 1   
    50   29   47 1   
    51   30   31 1   
    52   30   48 1   
    53   30   49 1   
    54   32   50 1   
    55   32   51 1   
    56   32   52 1   
@<TRIPOS>SUBSTRUCTURE
     1 D90         1 TEMP              0 ****  ****    0 ROOT
