@<TRIPOS>MOLECULE
D90
   52    45     1     0     0
SMALL
bcc


@<TRIPOS>ATOM
      1 C1         -1.2400    2.8600    2.9550 c1        1 D90     -0.101000
      2 N1          0.1440    2.8110    2.9830 n2        1 D90     -0.199000
      3 O1         -3.5300    2.7940    2.1440 o         1 D90     -0.330000
      4 CL1         0.9610    1.8860    8.8020 cl        1 D90     -0.019000
      5 C2         -2.3650    2.6900    1.8440 c1        1 D90      0.370000
      6 C3         -1.6990    2.6600    4.2390 c1        1 D90     -0.102000
      7 C4         -0.5790    2.4830    5.0800 c1        1 D90     -0.097000
      8 C5          0.5450    2.5750    4.3150 c1        1 D90      0.013000
      9 C6         -0.4740    2.2020    6.4770 c1        1 D90     -0.064000
     10 C7          1.8040    2.3930    4.9000 c1        1 D90     -0.139000
     11 C8          1.9060    2.1140    6.2860 c1        1 D90     -0.095000
     12 C9          0.7640    2.0230    7.0540 c1        1 D90     -0.091000
     13 C10        -4.8720    2.1850   -2.5730 c1        1 D90     -0.125500
     14 C11        -3.7280    1.3880   -2.6280 c1        1 D90     -0.116000
     15 C13        -5.0650    3.0520   -1.4920 c1        1 D90     -0.125500
     16 C15        -4.1220    3.1170   -0.4800 c1        1 D90     -0.123000
     17 CC1        -1.4720   -0.3090   -2.6900 c1        1 D90      0.385000
     18 OC1        -2.2650   -0.3270   -3.6180 o         1 D90     -0.357000
     19 CP1        -2.9740    2.3150   -0.5390 c1        1 D90      0.040000
     20 NP1        -1.9860    2.4350    0.4420 n2        1 D90     -0.335000
     21 CP2        -2.7800    1.4570   -1.6060 c2        1 D90      0.025000
     22 NP2        -1.6670    0.5850   -1.6100 n2        1 D90     -0.316000
     23 CZ1        -0.2410   -1.2650   -2.7000 c2        1 D90     -0.384000
     24 NZ1         0.8370   -1.2910   -1.7070 n2        1 D90     -0.090000
     25 SZ1         0.0970   -2.3170   -3.8040 ss        1 D90      0.673000
     26 CZ2         1.4490   -2.9850   -3.4180 c1        1 D90     -0.429000
     27 NZ2         3.6600   -4.1750   -3.5550 n3        1 D90     -0.254000
     28 CZ3         2.4140   -4.0400   -4.1040 c2        1 D90      0.006000
     29 CZ4         3.7760   -4.0840   -2.1660 c3        1 D90     -0.068000
     30 CZ5         3.1980   -2.8950   -1.5360 c3        1 D90     -0.090000
     31 CZ6         1.9050   -2.3710   -2.1510 c2        1 D90     -0.072000
     32 CZ7         4.2620   -5.4220   -4.0060 c3        1 D90     -0.120000
     33 HN1         0.7080    3.0070    2.2730 DU        1 D90      0.212500
     34 H3         -2.6060    2.6430    4.5090 DU        1 D90      0.212500
     35 H6         -1.2460    2.0370    6.9770 ha        1 D90      0.154000
     36 H7          2.6030    2.4570    4.3590 ha        1 D90      0.142000
     37 H8          2.8070    2.0700    6.7240 ha        1 D90      0.149000
     38 H10        -5.5080    2.1400   -3.2580 ha        1 D90      0.138000
     39 H11        -3.5810    0.7380   -3.4310 ha        1 D90      0.159000
     40 H13        -5.9220    3.6510   -1.4470 ha        1 D90      0.138000
     41 H15        -4.2540    3.7170    0.2680 ha        1 D90      0.160000
     42 HNP1       -1.0720    2.4440    0.1910 hn        1 D90      0.239000
     43 HNP2       -1.0520    0.6500   -0.9740 hn        1 D90      0.254000
     44 HZ3         2.5200   -3.7920   -5.0100 h4        1 D90      0.087000
     45 HZ3A        1.9660   -4.9340   -4.0770 h4        1 D90      0.087000
     46 HZ4         4.6570   -4.0770   -1.9770 h1        1 D90      0.077500
     47 HZ4A        3.2960   -4.8750   -1.7840 h1        1 D90      0.077500
     48 HZ5         2.9810   -3.1490   -0.5570 hc        1 D90      0.110000
     49 HZ5A        3.8900   -2.1500   -1.6160 hc        1 D90      0.110000
     50 HZ7         4.1730   -5.4970   -4.9660 h1        1 D90      0.075333
     51 HZ7A        5.1770   -5.4270   -3.7740 h1        1 D90      0.075333
     52 HZ7B        3.8000   -6.1970   -3.5640 h1        1 D90      0.075333
@<TRIPOS>BOND
     1    1    2 1   
     2    1    6 1   
     3    2    8 1   
     4    3    5 1   
     5    4   12 1   
     6    5   20 1   
     7    6    7 1   
     8    7    9 1   
     9    8   10 1   
    10    9   35 1   
    11   10   36 1   
    12   11   12 1   
    13   11   37 1   
    14   13   15 1   
    15   13   38 1   
    16   14   21 1   
    17   14   39 1   
    18   15   40 1   
    19   16   19 1   
    20   16   41 1   
    21   17   18 1   
    22   17   23 1   
    23   19   21 1   
    24   20   42 1   
    25   21   22 1   
    26   22   43 1   
    27   23   24 1   
    28   23   25 1   
    29   24   31 1   
    30   25   26 1   
    31   26   31 1   
    32   27   28 1   
    33   27   29 1   
    34   27   32 1   
    35   28   44 1   
    36   28   45 1   
    37   29   30 1   
    38   29   46 1   
    39   29   47 1   
    40   30   31 1   
    41   30   48 1   
    42   30   49 1   
    43   32   50 1   
    44   32   51 1   
    45   32   52 1   
@<TRIPOS>SUBSTRUCTURE
     1 D90         1 TEMP              0 ****  ****    0 ROOT
