@<TRIPOS>MOLECULE
D90
   52    56     1     0     0
SMALL
bcc


@<TRIPOS>ATOM
      1 C1         -0.2130   -0.0720   -0.2120 cc        1 D90     -0.143300
      2 N1          1.1740   -0.1320   -0.4350 na        1 D90     -0.172400
      3 O1         -2.2460    0.7200   -1.1360 o         1 D90     -0.567100
      4 Cl1         3.0030   -0.3760    5.1150 cl        1 D90     -0.102400
      5 C2         -1.2170    0.0440   -1.3010 c         1 D90      0.701300
      6 C3         -0.4850   -0.1170    1.1570 cd        1 D90     -0.101200
      7 C4          0.7850   -0.1840    1.8360 ca        1 D90     -0.111800
      8 C5          1.8030   -0.1660    0.8060 ca        1 D90     -0.030200
      9 C6          1.1580   -0.2520    3.1800 ca        1 D90     -0.063000
     10 C7          3.1690   -0.2060    1.1430 ca        1 D90     -0.140000
     11 C8          3.5060   -0.2690    2.4820 ca        1 D90     -0.098000
     12 C9          2.5110   -0.2940    3.4860 ca        1 D90     -0.016600
     13 C10        -2.4830    0.1390   -6.3150 ca        1 D90     -0.145000
     14 C11        -1.3040   -0.5780   -6.1780 ca        1 D90     -0.128000
     15 C13        -3.1610    0.5760   -5.1780 ca        1 D90     -0.105000
     16 C15        -2.6620    0.3050   -3.9130 ca        1 D90     -0.149000
     17 CC1         1.5970   -1.3330   -4.3010 c         1 D90      0.605600
     18 OC1         1.7150   -0.4180   -3.4540 o         1 D90     -0.643100
     19 CP1        -1.4570   -0.4140   -3.7360 ca        1 D90      0.088600
     20 NP1        -0.9500   -0.6890   -2.4580 ns        1 D90     -0.453100
     21 CP2        -0.7700   -0.8760   -4.9050 ca        1 D90     -0.022400
     22 NP2         0.3870   -1.6960   -4.8570 ns        1 D90     -0.439100
     23 CZ1         2.7970   -2.1350   -4.6750 cc        1 D90      0.279900
     24 NZ1         2.8360   -3.0170   -5.6920 nd        1 D90     -0.610000
     25 SZ1         4.2700   -1.9640   -3.8240 ss        1 D90      0.077700
     26 CZ2         5.0040   -3.0800   -4.8060 cc        1 D90     -0.222700
     27 NZ2         6.6970   -4.7020   -5.5700 n3        1 D90     -0.728600
     28 CZ3         6.4130   -3.5390   -4.7330 c3        1 D90      0.248100
     29 CZ4         6.0250   -4.6730   -6.8620 c3        1 D90      0.167800
     30 CZ5         4.5000   -4.5960   -6.7570 c3        1 D90     -0.106700
     31 CZ6         4.0990   -3.5620   -5.7690 cd        1 D90      0.351600
     32 CZ7         8.1180   -4.9410   -5.6900 c3        1 D90      0.156100
     33 HN1         1.6190    0.0380   -1.3040 hn        1 D90      0.326700
     34 H3         -1.4690   -0.0980    1.6200 ha        1 D90      0.173000
     35 H6          0.3900   -0.2690    3.9680 ha        1 D90      0.152000
     36 H7          3.9430   -0.1850    0.3640 ha        1 D90      0.139000
     37 H8          4.5670   -0.3000    2.7760 ha        1 D90      0.145000
     38 H10        -2.8780    0.3590   -7.3170 ha        1 D90      0.138000
     39 H11        -0.7800   -0.9230   -7.0840 ha        1 D90      0.136000
     40 H13        -4.1010    1.1410   -5.2790 ha        1 D90      0.140000
     41 H15        -3.2240    0.6620   -3.0320 ha        1 D90      0.179000
     42 HNP1       -0.1320   -1.2600   -2.4310 hn        1 D90      0.327500
     43 HNP2        0.4020   -2.4050   -5.5620 hn        1 D90      0.338500
     44 HZ3         7.0820   -2.6630   -4.9980 h1        1 D90      0.048700
     45 HZ3A        6.6560   -3.8430   -3.6730 h1        1 D90      0.048700
     46 HZ4         6.2900   -5.6260   -7.4020 h1        1 D90      0.039200
     47 HZ4A        6.3850   -3.8100   -7.4960 h1        1 D90      0.039200
     48 HZ5         4.0860   -5.5880   -6.4290 hc        1 D90      0.071700
     49 HZ5A        4.0810   -4.3670   -7.7720 hc        1 D90      0.071700
     50 HZ7         8.2740   -5.9160   -6.2200 h1        1 D90      0.036700
     51 HZ7A        8.6610   -4.1340   -6.2550 h1        1 D90      0.036700
     52 HZ7B        8.5600   -5.0150   -4.6610 h1        1 D90      0.036700
@<TRIPOS>BOND
     1    1    2 1   
     2    1    5 1   
     3    1    6 2   
     4    2    8 1   
     5    2   33 1   
     6    3    5 2   
     7    4   12 1   
     8    5   20 1   
     9    6    7 1   
    10    6   34 1   
    11    7    8 ar  
    12    7    9 ar  
    13    8   10 ar  
    14    9   12 ar  
    15    9   35 1   
    16   10   11 ar  
    17   10   36 1   
    18   11   12 ar  
    19   11   37 1   
    20   13   14 ar  
    21   13   15 ar  
    22   13   38 1   
    23   14   21 ar  
    24   14   39 1   
    25   15   16 ar  
    26   15   40 1   
    27   16   19 ar  
    28   16   41 1   
    29   17   18 2   
    30   17   22 1   
    31   17   23 1   
    32   19   20 1   
    33   19   21 ar  
    34   20   42 1   
    35   21   22 1   
    36   22   43 1   
    37   23   24 2   
    38   23   25 1   
    39   24   31 1   
    40   25   26 1   
    41   26   28 1   
    42   26   31 2   
    43   27   28 1   
    44   27   29 1   
    45   27   32 1   
    46   28   44 1   
    47   28   45 1   
    48   29   30 1   
    49   29   46 1   
    50   29   47 1   
    51   30   31 1   
    52   30   48 1   
    53   30   49 1   
    54   32   50 1   
    55   32   51 1   
    56   32   52 1   
@<TRIPOS>SUBSTRUCTURE
     1 D90         1 TEMP              0 ****  ****    0 ROOT
