@<TRIPOS>MOLECULE
D90
   54    58     1     0     0
SMALL
bcc


@<TRIPOS>ATOM
      1 C1          0.5250   -0.1220    0.6740 cc        1 D90     -0.298300
      2 N1          0.1020    1.2520    0.6090 na        1 D90     -0.158400
      3 O1          1.4220   -2.0410   -0.4530 o         1 D90     -0.521100
      4 CL1        -1.5620    1.8220    6.2150 cl        1 D90     -0.009400
      5 C2          1.1830   -0.8350   -0.3650 c         1 D90      0.616300
      6 C3          0.3810   -0.6270    1.9880 cd        1 D90      0.103800
      7 C4         -0.2000    0.4130    2.7790 ca        1 D90     -0.151800
      8 C5         -0.4040    1.5460    1.9010 ca        1 D90     -0.000200
      9 C6         -0.5550    0.4940    4.1310 ca        1 D90     -0.031000
     10 C7         -0.9750    2.7290    2.3840 ca        1 D90     -0.143000
     11 C8         -1.3220    2.7820    3.7280 ca        1 D90     -0.024000
     12 C9         -1.1160    1.6810    4.5930 ca        1 D90     -0.004600
     13 C10        -0.5080   -0.3930   -5.1480 ca        1 D90     -0.061000
     14 C11         0.3730   -1.4170   -4.7940 ca        1 D90     -0.077000
     15 C13        -0.6420    0.7270   -4.3320 ca        1 D90     -0.059000
     16 C15         0.1030    0.8300   -3.1560 ca        1 D90     -0.096000
     17 CC1         3.4830   -2.1360   -3.6660 c         1 D90      0.539600
     18 OC1         4.0150   -1.3120   -2.9190 o         1 D90     -0.529100
     19 CP1         0.9920   -0.1900   -2.7760 ca        1 D90     -0.003400
     20 NP1         1.7510   -0.0150   -1.5380 n4        1 D90     -0.571200
     21 CP2         1.1290   -1.3350   -3.6120 ca        1 D90      0.002600
     22 NP2         2.0260   -2.4480   -3.2980 n4        1 D90     -0.560200
     23 CZ1         4.0260   -2.8430   -4.7800 cc        1 D90      0.096900
     24 NZ1         3.2550   -3.6590   -5.5910 nd        1 D90     -0.628000
     25 SZ1         5.6640   -2.7870   -5.2320 ss        1 D90      0.341700
     26 CZ2         5.4180   -3.7950   -6.4730 cc        1 D90     -0.185700
     27 NZ2         5.9670   -5.4880   -8.1600 n3        1 D90     -0.726600
     28 CZ3         6.4160   -4.2930   -7.4580 c3        1 D90      0.221100
     29 CZ4         4.6130   -5.3570   -8.6780 c3        1 D90      0.158800
     30 CZ5         3.5690   -5.1750   -7.5720 c3        1 D90     -0.123700
     31 CZ6         4.0320   -4.2030   -6.5450 cd        1 D90      0.401600
     32 CZ7         6.9210   -5.9300   -9.1550 c3        1 D90      0.149100
     33 HN1        -0.4890    1.5030   -0.1570 hn        1 D90      0.264700
     34 H3          0.6900   -1.6180    2.3330 ha        1 D90      0.198000
     35 H6         -0.3870   -0.3620    4.8060 ha        1 D90      0.180000
     36 H7         -1.1390    3.5980    1.7290 ha        1 D90      0.168000
     37 H8         -1.7710    3.7070    4.1340 ha        1 D90      0.184000
     38 H10        -1.0960   -0.4780   -6.0820 ha        1 D90      0.199000
     39 H11         0.4680   -2.2930   -5.4650 ha        1 D90      0.193000
     40 H13        -1.3360    1.5420   -4.6110 ha        1 D90      0.198000
     41 H15        -0.0150    1.7370   -2.5340 ha        1 D90      0.173000
     42 HNP1        2.7340   -0.3040   -1.6840 hn        1 D90      0.482800
     43 HNP2        1.9820   -2.6770   -2.2920 hn        1 D90      0.490300
     44 HZ3         7.3770   -4.5610   -6.9280 h1        1 D90      0.078700
     45 HZ3A        6.6460   -3.4400   -8.1710 h1        1 D90      0.078700
     46 HZ4         4.3640   -6.3040   -9.2370 h1        1 D90      0.061700
     47 HZ4A        4.5250   -4.4970   -9.4050 h1        1 D90      0.061700
     48 HZ5         2.6060   -4.8350   -8.0380 hc        1 D90      0.089700
     49 HZ5A        3.3790   -6.1610   -7.0650 hc        1 D90      0.089700
     50 HZ7         7.9180   -6.0760   -8.6630 h1        1 D90      0.055367
     51 HZ7A        7.0380   -5.2060  -10.0070 h1        1 D90      0.055367
     52 HZ7B        6.5740   -6.9170   -9.5620 h1        1 D90      0.055367
     53 HP12        1.7640    0.9850   -1.2900 hn        1 D90      0.482800
     54 HP22        1.7080   -3.2820   -3.8200 hn        1 D90      0.490300
@<TRIPOS>BOND
     1    1    2 1   
     2    1    5 1   
     3    1    6 2   
     4    2    8 1   
     5    2   33 1   
     6    3    5 2   
     7    4   12 1   
     8    5   20 1   
     9    6    7 1   
    10    6   34 1   
    11    7    8 ar  
    12    7    9 ar  
    13    8   10 ar  
    14    9   12 ar  
    15    9   35 1   
    16   10   11 ar  
    17   10   36 1   
    18   11   12 ar  
    19   11   37 1   
    20   13   14 ar  
    21   13   15 ar  
    22   13   38 1   
    23   14   21 ar  
    24   14   39 1   
    25   15   16 ar  
    26   15   40 1   
    27   16   19 ar  
    28   16   41 1   
    29   17   18 2   
    30   17   22 1   
    31   17   23 1   
    32   19   20 1   
    33   19   21 ar  
    34   20   42 1   
    35   20   53 1   
    36   21   22 1   
    37   22   43 1   
    38   22   54 1   
    39   23   24 2   
    40   23   25 1   
    41   24   31 1   
    42   25   26 1   
    43   26   28 1   
    44   26   31 2   
    45   27   28 1   
    46   27   29 1   
    47   27   32 1   
    48   28   44 1   
    49   28   45 1   
    50   29   30 1   
    51   29   46 1   
    52   29   47 1   
    53   30   31 1   
    54   30   48 1   
    55   30   49 1   
    56   32   50 1   
    57   32   51 1   
    58   32   52 1   
@<TRIPOS>SUBSTRUCTURE
     1 D90         1 TEMP              0 ****  ****    0 ROOT
