@<TRIPOS>MOLECULE
D91
   64    68     1     0     0
SMALL
bcc


@<TRIPOS>ATOM
      1 C18        -2.3440    0.8100    1.0860 c3        1 D91      0.100700
      2 C19        -2.8110   -0.1470   -0.0560 c3        1 D91      0.212800
      3 N17        -1.6540    1.9840    0.5620 n         1 D91     -0.449800
      4 C16        -1.1270    1.8420   -0.7770 c3        1 D91      0.084000
      5 C15        -2.1990    1.4280   -1.8120 c3        1 D91      0.193800
      6 N12        -3.1710    0.5010   -1.2870 n3        1 D91     -0.813500
      7 S11        -4.5680    0.2120   -2.0620 sy        1 D91      1.519800
      8 O13        -4.9420    1.3310   -2.8250 o         1 D91     -0.646800
      9 O14        -5.5200   -0.3190   -1.1610 o         1 D91     -0.646800
     10 C8         -4.1690   -1.0390   -3.1300 cc        1 D91     -0.351200
     11 C9         -3.5100   -0.9460   -4.3640 cd        1 D91     -0.024200
     12 C4         -3.4310   -2.2670   -4.9210 ca        1 D91     -0.129800
     13 C5         -2.8950   -2.7910   -6.1040 ca        1 D91     -0.054000
     14 C6         -3.0050   -4.1540   -6.3260 ca        1 D91     -0.019600
     15 CL         -2.3670   -4.8300   -7.7520 cl        1 D91     -0.093400
     16 C3         -4.0730   -3.1470   -3.9680 ca        1 D91     -0.011200
     17 N7         -4.4700   -2.3920   -2.8760 na        1 D91     -0.118400
     18 C2         -4.1730   -4.5320   -4.2200 ca        1 D91     -0.145000
     19 C1         -3.6380   -5.0160   -5.3960 ca        1 D91     -0.083000
     20 C20        -1.8020    3.2490    1.1000 c         1 D91      0.602600
     21 O22        -1.2900    4.2570    0.5880 o         1 D91     -0.566100
     22 C21        -2.5810    3.4090    2.4010 ca        1 D91      0.608500
     23 N23        -1.8820    3.2780    3.5680 nb        1 D91     -0.663500
     24 C24        -2.5630    3.5430    4.6990 ca        1 D91      0.440700
     25 C25        -3.9240    3.9310    4.7000 cp        1 D91     -0.264600
     26 C26        -4.5480    4.0180    3.4320 ca        1 D91      0.440700
     27 N27        -3.8970    3.7630    2.2820 nb        1 D91     -0.663500
     28 C28        -4.6400    4.2230    5.9290 cp        1 D91      0.002000
     29 C29        -4.3790    3.5020    7.1050 ca        1 D91     -0.235300
     30 C30        -5.1000    3.8240    8.2680 ca        1 D91      0.398700
     31 N31        -6.0340    4.7930    8.3230 nb        1 D91     -0.655000
     32 C32        -6.2750    5.4800    7.1890 ca        1 D91      0.398700
     33 C33        -5.6110    5.2360    5.9740 ca        1 D91     -0.235300
     34 C7         -1.4490    0.0250    2.0630 c3        1 D91     -0.092400
     35 C10        -2.1290   -1.0790    2.8610 c3        1 D91     -0.066700
     36 C11        -3.5110   -0.7070    3.3510 c3        1 D91     -0.094600
     37 C12        -2.1630   -2.4020    2.1250 c3        1 D91     -0.094600
     38 H18        -3.2660    1.1550    1.6410 h1        1 D91      0.068700
     39 H191       -1.9820   -0.8870   -0.2550 h1        1 D91      0.064700
     40 H192       -3.7090   -0.7090    0.3360 h1        1 D91      0.064700
     41 H161       -0.3250    1.0520   -0.7450 h1        1 D91      0.076200
     42 H162       -0.6660    2.8130   -1.1130 h1        1 D91      0.076200
     43 H151       -2.7390    2.3500   -2.1770 h1        1 D91      0.059200
     44 H152       -1.6610    0.9630   -2.6880 h1        1 D91      0.059200
     45 H9         -3.1330   -0.0330   -4.8250 ha        1 D91      0.169000
     46 H5         -2.4030   -2.1260   -6.8300 ha        1 D91      0.154000
     47 HN7        -5.1180   -2.6770   -2.1820 hn        1 D91      0.316700
     48 H2         -4.6630   -5.2020   -3.5000 ha        1 D91      0.145000
     49 H1         -3.7020   -6.0920   -5.6240 ha        1 D91      0.150000
     50 H24        -1.9930    3.4500    5.6420 h4        1 D91      0.040600
     51 H26        -5.6130    4.3000    3.3350 h4        1 D91      0.040600
     52 H29        -3.6350    2.6950    7.1210 ha        1 D91      0.147000
     53 H30        -4.9220    3.2760    9.2100 h4        1 D91      0.027600
     54 H32        -7.0440    6.2710    7.2600 h4        1 D91      0.027600
     55 H33        -5.8440    5.8360    5.0850 ha        1 D91      0.147000
     56 H71        -0.5870   -0.4160    1.4960 hc        1 D91      0.057700
     57 H72        -1.0160    0.7560    2.8000 hc        1 D91      0.057700
     58 H10        -1.4790   -1.2340    3.7750 hc        1 D91      0.049700
     59 H111       -4.2410   -0.6590    2.5070 hc        1 D91      0.036033
     60 H112       -3.4900    0.2840    3.8640 hc        1 D91      0.036033
     61 H113       -3.8740   -1.4740    4.0790 hc        1 D91      0.036033
     62 H121       -2.9070   -2.3900    1.2940 hc        1 D91      0.036033
     63 H122       -2.4500   -3.2200    2.8300 hc        1 D91      0.036033
     64 H123       -1.1590   -2.6410    1.6980 hc        1 D91      0.036033
@<TRIPOS>BOND
     1    1    2 1   
     2    1    3 1   
     3    1   34 1   
     4    1   38 1   
     5    2    6 1   
     6    2   39 1   
     7    2   40 1   
     8    3    4 1   
     9    3   20 1   
    10    4    5 1   
    11    4   41 1   
    12    4   42 1   
    13    5    6 1   
    14    5   43 1   
    15    5   44 1   
    16    6    7 1   
    17    7    8 2   
    18    7    9 2   
    19    7   10 1   
    20   10   11 2   
    21   10   17 1   
    22   11   12 1   
    23   11   45 1   
    24   12   13 ar  
    25   12   16 ar  
    26   13   14 ar  
    27   13   46 1   
    28   14   15 1   
    29   14   19 ar  
    30   16   17 1   
    31   16   18 ar  
    32   17   47 1   
    33   18   19 ar  
    34   18   48 1   
    35   19   49 1   
    36   20   21 2   
    37   20   22 1   
    38   22   23 ar  
    39   22   27 ar  
    40   23   24 ar  
    41   24   25 ar  
    42   24   50 1   
    43   25   26 ar  
    44   25   28 1   
    45   26   27 ar  
    46   26   51 1   
    47   28   29 ar  
    48   28   33 ar  
    49   29   30 ar  
    50   29   52 1   
    51   30   31 ar  
    52   30   53 1   
    53   31   32 ar  
    54   32   33 ar  
    55   32   54 1   
    56   33   55 1   
    57   34   35 1   
    58   34   56 1   
    59   34   57 1   
    60   35   36 1   
    61   35   37 1   
    62   35   58 1   
    63   36   59 1   
    64   36   60 1   
    65   36   61 1   
    66   37   62 1   
    67   37   63 1   
    68   37   64 1   
@<TRIPOS>SUBSTRUCTURE
     1 D91         1 TEMP              0 ****  ****    0 ROOT
