@<TRIPOS>MOLECULE
D91
   64    55     1     0     0
SMALL
bcc


@<TRIPOS>ATOM
      1 C18         1.4240    1.0080   -0.6750 c3        1 D91      0.003000
      2 C19         2.7440    0.6820   -0.0220 c3        1 D91     -0.040000
      3 N17         0.4100   -0.0640   -0.4670 n         1 D91     -0.275000
      4 C16         0.2290   -0.4640    0.9580 c3        1 D91     -0.042000
      5 C15         1.5420   -0.8010    1.6300 c3        1 D91     -0.052000
      6 N12         2.5810    0.2980    1.4460 n3        1 D91     -0.831000
      7 S11         4.0300    0.3160    2.5220 s4        1 D91      2.073800
      8 O13         5.0870   -0.5540    2.0080 o         1 D91     -0.537400
      9 O14         3.7420   -0.3130    3.7940 o         1 D91     -0.537400
     10 C8          4.6330    2.0240    2.7500 c1        1 D91     -0.774000
     11 C9          4.2870    2.0850    4.0820 c1        1 D91     -0.036000
     12 C4          3.2390    3.0140    4.2170 c1        1 D91     -0.118000
     13 C5          2.3510    3.2340    5.2870 c1        1 D91     -0.054000
     14 C6          1.1870    3.9560    5.0840 c1        1 D91     -0.098000
     15 CL          0.4970    4.5730    6.5830 cl        1 D91     -0.016000
     16 C3          2.9500    3.5180    2.9640 c1        1 D91      0.033000
     17 N7          3.8130    2.9070    2.0480 n1        1 D91     -0.142000
     18 C2          1.7700    4.2500    2.7560 c1        1 D91     -0.144000
     19 C1          0.8930    4.4680    3.8110 c2        1 D91     -0.083000
     20 C20        -0.3210   -0.6450   -1.5470 c2        1 D91      0.268000
     21 O22        -0.1100   -0.2600   -2.6790 o         1 D91     -0.298000
     22 C21        -1.6010   -1.4290   -1.2510 c2        1 D91     -0.022000
     23 N23        -1.7410   -2.6500   -1.7770 n2        1 D91     -0.171000
     24 C24        -2.9770   -3.2070   -1.8950 c1        1 D91     -0.024000
     25 C25        -4.0770   -2.5210   -1.4770 c1        1 D91     -0.068500
     26 C26        -3.9340   -1.2710   -0.9390 c1        1 D91     -0.098000
     27 N27        -2.7300   -0.7290   -0.8240 n1        1 D91     -0.144000
     28 C28        -5.3570   -2.9620   -1.8650 c1        1 D91     -0.068500
     29 C29        -6.1250   -3.6940   -0.9930 c1        1 D91     -0.118500
     30 C30        -7.3860   -4.1180   -1.3690 c1        1 D91     -0.118500
     31 N31        -7.8790   -3.8010   -2.6340 n1        1 D91     -0.130000
     32 C32        -7.1190   -3.0740   -3.5040 c1        1 D91     -0.067000
     33 C33        -5.8500   -2.6470   -3.1270 c1        1 D91     -0.098000
     34 C7          1.6390    1.1980   -2.1700 c3        1 D91     -0.158000
     35 C10         1.7540   -0.2480   -2.8950 c3        1 D91     -0.097000
     36 C11         0.8530   -1.2620   -2.1610 c3        1 D91     -0.204500
     37 C12         1.2960   -0.1270   -4.3800 c3        1 D91     -0.204500
     38 H18         1.0670    1.8820   -0.2790 h1        1 D91      0.107000
     39 H191        3.3580    1.4940   -0.0870 h1        1 D91      0.096000
     40 H192        3.1660   -0.0920   -0.5120 h1        1 D91      0.096000
     41 H161       -0.1950    0.2640    1.4420 h1        1 D91      0.099500
     42 H162       -0.3550   -1.2540    0.9950 h1        1 D91      0.099500
     43 H151        1.3860   -0.9300    2.5900 h1        1 D91      0.105000
     44 H152        1.8990   -1.6530    1.2400 h1        1 D91      0.105000
     45 H9          4.6980    1.5870    4.7970 DU        1 D91      0.217000
     46 H5          2.5240    2.8220    6.1530 ha        1 D91      0.153000
     47 HN7         3.7760    2.9960    1.1180 DU        1 D91      0.217000
     48 H2          1.5730    4.5930    1.9020 ha        1 D91      0.145000
     49 H1          0.0490    4.9900    3.6620 ha        1 D91      0.150000
     50 H24        -3.0760   -4.1020   -2.2790 ha        1 D91      0.174000
     51 H26        -4.7280   -0.7700   -0.6350 ha        1 D91      0.160500
     52 H29        -5.7790   -3.9160   -0.1040 ha        1 D91      0.155500
     53 H30        -7.9280   -4.6360   -0.7500 ha        1 D91      0.155500
     54 H32        -7.4690   -2.8500   -4.4000 ha        1 D91      0.164000
     55 H33        -5.2890   -2.1110   -3.7660 ha        1 D91      0.160500
     56 H71         0.8890    1.6860   -2.5420 hc        1 D91      0.102000
     57 H72         2.4600    1.7050   -2.3180 hc        1 D91      0.102000
     58 H10         2.7170   -0.5680   -2.8650 hc        1 D91      0.086000
     59 H111       -0.0450   -1.1860   -2.4840 hc        1 D91      0.106667
     60 H112        0.8690   -1.0830   -1.2390 hc        1 D91      0.106667
     61 H113        1.1820   -2.1630   -2.3220 hc        1 D91      0.106667
     62 H121        0.3560    0.2060   -4.4110 hc        1 D91      0.106667
     63 H122        1.3480   -1.0440   -4.8290 hc        1 D91      0.106667
     64 H123        1.9170    0.5420   -4.8800 hc        1 D91      0.106667
@<TRIPOS>BOND
     1    1    2 1   
     2    1    3 1   
     3    1   34 1   
     4    1   38 1   
     5    2    6 1   
     6    2   39 1   
     7    2   40 1   
     8    3    4 1   
     9    3   20 1   
    10    4    5 1   
    11    4   41 1   
    12    4   42 1   
    13    5    6 1   
    14    5   43 1   
    15    5   44 1   
    16    6    7 1   
    17    7    8 1   
    18    7    9 1   
    19   10   11 1   
    20   10   17 1   
    21   11   12 1   
    22   12   16 1   
    23   13   14 1   
    24   13   46 1   
    25   14   19 1   
    26   18   19 1   
    27   18   48 1   
    28   19   49 1   
    29   20   21 1   
    30   20   22 1   
    31   22   23 1   
    32   22   27 1   
    33   23   24 1   
    34   24   50 1   
    35   25   26 1   
    36   26   51 1   
    37   28   33 1   
    38   29   30 1   
    39   29   52 1   
    40   30   53 1   
    41   31   32 1   
    42   32   54 1   
    43   33   55 1   
    44   34   35 1   
    45   34   56 1   
    46   34   57 1   
    47   35   36 1   
    48   35   37 1   
    49   35   58 1   
    50   36   59 1   
    51   36   60 1   
    52   36   61 1   
    53   37   62 1   
    54   37   63 1   
    55   37   64 1   
@<TRIPOS>SUBSTRUCTURE
     1 D91         1 TEMP              0 ****  ****    0 ROOT
