@<TRIPOS>MOLECULE
D92
   60    64     1     0     0
SMALL
bcc


@<TRIPOS>ATOM
      1 CL1         2.9570   -4.1400    2.6040 cl        1 D92     -0.011400
      2 C16         3.3030   -2.8070    1.6280 ca        1 D92      0.004400
      3 C17         2.8640   -1.5170    2.0660 ca        1 D92     -0.019000
      4 C18         3.1050   -0.3810    1.3310 ca        1 D92     -0.160000
      5 C12         3.8100   -0.5190    0.1100 ca        1 D92      0.049800
      6 N11         4.1920    0.4230   -0.8170 na        1 D92     -0.122400
      7 C15         3.9900   -2.9720    0.4450 ca        1 D92     -0.067000
      8 C13         4.2590   -1.8310   -0.3440 ca        1 D92     -0.112800
      9 C14         4.9170   -1.6390   -1.5780 cc        1 D92     -0.031200
     10 C10         4.8710   -0.2400   -1.8710 cd        1 D92     -0.257300
     11 C9          5.3710    0.4930   -2.9790 c         1 D92      0.594300
     12 O19         5.3450    1.7120   -3.1890 o         1 D92     -0.552100
     13 N7          6.0140   -0.3150   -4.0980 n4        1 D92     -0.677800
     14 C1          7.4720    0.0010   -4.3030 c3        1 D92      0.120500
     15 C6          8.2590   -1.2820   -4.6260 c3        1 D92     -0.110400
     16 C5          7.8720   -1.8630   -5.9670 c3        1 D92     -0.105400
     17 C4          8.0300   -0.8590   -7.0870 c3        1 D92     -0.092400
     18 C3          7.3130    0.4480   -6.8070 c3        1 D92     -0.111400
     19 C2          7.7700    1.0040   -5.4520 c3        1 D92      0.106500
     20 N8          7.2880    2.4020   -5.2230 n4        1 D92     -0.678800
     21 C20         8.1740    3.2100   -4.2680 c         1 D92      0.527600
     22 O31         8.8280    2.5410   -3.4720 o         1 D92     -0.488100
     23 C21         8.1090    4.6330   -4.4300 cc        1 D92      0.095900
     24 S25         9.0240    5.7320   -3.5140 ss        1 D92      0.330700
     25 C24         8.3930    7.0010   -4.2920 cc        1 D92     -0.232700
     26 C26         8.7180    8.4520   -4.1250 c3        1 D92      0.229100
     27 N27         7.7810    9.3750   -4.7270 n3        1 D92     -0.709600
     28 C30         6.7140    9.8130   -3.8560 c3        1 D92      0.144100
     29 C28         7.3490    8.9480   -6.0430 c3        1 D92      0.161800
     30 C29         6.6920    7.5620   -6.1170 c3        1 D92     -0.157700
     31 C23         7.4370    6.5770   -5.2860 cd        1 D92      0.386600
     32 N22         7.2840    5.2390   -5.3580 nd        1 D92     -0.621000
     33 H17         2.3160   -1.4450    3.0240 ha        1 D92      0.185000
     34 H18         2.7630    0.6070    1.6760 ha        1 D92      0.173000
     35 HN11        4.0090    1.3970   -0.7910 hn        1 D92      0.336700
     36 H15         4.3280   -3.9650    0.1050 ha        1 D92      0.174000
     37 H14         5.3740   -2.4240   -2.1790 ha        1 D92      0.161000
     38 HN7         5.4940   -0.1370   -4.9660 hn        1 D92      0.462300
     39 H1          7.8570    0.4350   -3.3260 hx        1 D92      0.145700
     40 H61         8.1130   -2.0410   -3.8110 hc        1 D92      0.099700
     41 H62         9.3530   -1.0180   -4.6210 hc        1 D92      0.099700
     42 H51         6.8170   -2.2470   -5.9410 hc        1 D92      0.076200
     43 H52         8.5300   -2.7520   -6.1790 hc        1 D92      0.076200
     44 H41         9.1230   -0.6560   -7.2570 hc        1 D92      0.092700
     45 H42         7.6250   -1.2940   -8.0410 hc        1 D92      0.092700
     46 H31         7.5700    1.1730   -7.6290 hc        1 D92      0.075200
     47 H32         6.2030    0.3040   -6.8390 hc        1 D92      0.075200
     48 H2          8.9080    1.0740   -5.4740 hx        1 D92      0.147700
     49 HN8         6.3320    2.4220   -4.8420 hn        1 D92      0.479300
     50 H261        8.8370    8.6950   -3.0290 h1        1 D92      0.094200
     51 H262        9.7190    8.6290   -4.6290 h1        1 D92      0.094200
     52 H301        5.9870    8.9970   -3.5950 h1        1 D92      0.048700
     53 H302        7.1570   10.2210   -2.9090 h1        1 D92      0.048700
     54 H303        6.1560   10.6410   -4.3700 h1        1 D92      0.048700
     55 H281        8.2590    8.9540   -6.7100 h1        1 D92      0.082200
     56 H282        6.6210    9.7070   -6.4460 h1        1 D92      0.082200
     57 H291        5.6330    7.6180   -5.7420 hc        1 D92      0.086200
     58 H292        6.6570    7.2340   -7.1890 hc        1 D92      0.086200
     59 H72         5.9280   -1.3180   -3.8850 hn        1 D92      0.462300
     60 H82         7.2680    2.8850   -6.1350 hn        1 D92      0.479300
@<TRIPOS>BOND
     1    1    2 1   
     2    2    3 ar  
     3    2    7 ar  
     4    3    4 ar  
     5    3   33 1   
     6    4    5 ar  
     7    4   34 1   
     8    5    6 1   
     9    5    8 ar  
    10    6   10 1   
    11    6   35 1   
    12    7    8 ar  
    13    7   36 1   
    14    8    9 1   
    15    9   10 2   
    16    9   37 1   
    17   10   11 1   
    18   11   12 2   
    19   11   13 1   
    20   13   14 1   
    21   13   38 1   
    22   13   59 1   
    23   14   15 1   
    24   14   19 1   
    25   14   39 1   
    26   15   16 1   
    27   15   40 1   
    28   15   41 1   
    29   16   17 1   
    30   16   42 1   
    31   16   43 1   
    32   17   18 1   
    33   17   44 1   
    34   17   45 1   
    35   18   19 1   
    36   18   46 1   
    37   18   47 1   
    38   19   20 1   
    39   19   48 1   
    40   20   21 1   
    41   20   49 1   
    42   20   60 1   
    43   21   22 2   
    44   21   23 1   
    45   23   24 1   
    46   23   32 2   
    47   24   25 1   
    48   25   26 1   
    49   25   31 2   
    50   26   27 1   
    51   26   50 1   
    52   26   51 1   
    53   27   28 1   
    54   27   29 1   
    55   28   52 1   
    56   28   53 1   
    57   28   54 1   
    58   29   30 1   
    59   29   55 1   
    60   29   56 1   
    61   30   31 1   
    62   30   57 1   
    63   30   58 1   
    64   31   32 1   
@<TRIPOS>SUBSTRUCTURE
     1 D92         1 TEMP              0 ****  ****    0 ROOT
