@<TRIPOS>MOLECULE
D92
   58    62     1     0     0
SMALL
bcc


@<TRIPOS>ATOM
      1 CL1         5.4960    7.0370    1.6270 cl        1 D92     -0.099400
      2 C16         4.0210    6.3830    2.1710 ca        1 D92     -0.012600
      3 C17         3.1590    7.2060    2.9340 ca        1 D92     -0.097000
      4 C18         1.9490    6.7330    3.4040 ca        1 D92     -0.136000
      5 C12         1.5970    5.4030    3.1000 ca        1 D92     -0.030200
      6 N11         0.4680    4.6640    3.4260 na        1 D92     -0.150400
      7 C15         3.6970    5.0710    1.8590 ca        1 D92     -0.068000
      8 C13         2.4790    4.5610    2.3190 ca        1 D92     -0.106800
      9 C14         1.8250    3.2840    2.1960 cc        1 D92     -0.140200
     10 C10         0.6080    3.3790    2.8790 cd        1 D92     -0.126300
     11 C9         -0.4600    2.3660    3.0730 c         1 D92      0.690300
     12 O19        -1.4860    2.6320    3.7350 o         1 D92     -0.614100
     13 N7         -0.2450    1.1220    2.5170 n         1 D92     -0.553900
     14 C1         -1.2470    0.0830    2.5410 c3        1 D92      0.081700
     15 C6         -1.9120   -0.1580    1.1760 c3        1 D92     -0.098400
     16 C5         -0.9640   -0.7630    0.1650 c3        1 D92     -0.081400
     17 C4         -0.3590   -2.0520    0.6790 c3        1 D92     -0.080400
     18 C3          0.3150   -1.8610    2.0200 c3        1 D92     -0.090400
     19 C2         -0.6770   -1.2870    3.0450 c3        1 D92      0.092700
     20 N8         -0.1030   -1.1950    4.3660 n         1 D92     -0.538900
     21 C20        -0.6920   -1.7810    5.4600 c         1 D92      0.599600
     22 O31        -1.7310   -2.4720    5.3660 o         1 D92     -0.621100
     23 C21        -0.0500   -1.5830    6.7910 cc        1 D92      0.293900
     24 S25        -0.8340   -2.1000    8.2190 ss        1 D92      0.088700
     25 C24         0.4300   -1.5670    9.1450 cc        1 D92     -0.268700
     26 C26         0.5800   -1.6620   10.6220 c3        1 D92      0.244100
     27 N27         1.6270   -0.8240   11.1920 n3        1 D92     -0.713600
     28 C30         1.1830    0.5100   11.5310 c3        1 D92      0.146100
     29 C28         2.8340   -0.8420   10.3790 c3        1 D92      0.160800
     30 C29         2.6750   -0.4230    8.9120 c3        1 D92     -0.139700
     31 C23         1.4330   -1.0020    8.3350 cd        1 D92      0.340600
     32 N22         1.1520   -1.0120    6.9850 nd        1 D92     -0.611000
     33 H17         3.4630    8.2410    3.1550 ha        1 D92      0.148000
     34 H18         1.2810    7.3730    3.9960 ha        1 D92      0.143000
     35 HN11       -0.3080    4.9580    3.9620 hn        1 D92      0.322700
     36 H15         4.3730    4.4380    1.2650 ha        1 D92      0.150000
     37 H14         2.2230    2.4220    1.6690 ha        1 D92      0.156000
     38 HN7         0.5250    0.9920    1.9050 hn        1 D92      0.312500
     39 H1         -2.0570    0.4090    3.2650 h1        1 D92      0.100700
     40 H61        -2.3240    0.8060    0.7810 hc        1 D92      0.056700
     41 H62        -2.7790   -0.8520    1.3400 hc        1 D92      0.056700
     42 H51        -0.1480   -0.0340   -0.0810 hc        1 D92      0.041200
     43 H52        -1.5200   -0.9660   -0.7880 hc        1 D92      0.041200
     44 H41        -1.1640   -2.8290    0.7740 hc        1 D92      0.047200
     45 H42         0.3920   -2.4360   -0.0600 hc        1 D92      0.047200
     46 H31         0.6960   -2.8520    2.3840 hc        1 D92      0.047200
     47 H32         1.2030   -1.1860    1.9110 hc        1 D92      0.047200
     48 H2         -1.5680   -1.9880    3.0990 h1        1 D92      0.098700
     49 HN8         0.7010   -0.6240    4.4780 hn        1 D92      0.334500
     50 H261       -0.4000   -1.4230   11.1240 h1        1 D92      0.064700
     51 H262        0.8500   -2.7290   10.8830 h1        1 D92      0.064700
     52 H301        0.8780    1.1230   10.6400 h1        1 D92      0.036033
     53 H302        2.0180    1.0410   12.0600 h1        1 D92      0.036033
     54 H303        0.3090    0.4350   12.2300 h1        1 D92      0.036033
     55 H281        3.2280   -1.8980   10.4100 h1        1 D92      0.058200
     56 H282        3.5980   -0.1720   10.8620 h1        1 D92      0.058200
     57 H291        3.5750   -0.7620    8.3360 hc        1 D92      0.066700
     58 H292        2.6230    0.6970    8.8340 hc        1 D92      0.066700
@<TRIPOS>BOND
     1    1    2 1   
     2    2    3 ar  
     3    2    7 ar  
     4    3    4 ar  
     5    3   33 1   
     6    4    5 ar  
     7    4   34 1   
     8    5    6 1   
     9    5    8 ar  
    10    6   10 1   
    11    6   35 1   
    12    7    8 ar  
    13    7   36 1   
    14    8    9 1   
    15    9   10 2   
    16    9   37 1   
    17   10   11 1   
    18   11   12 2   
    19   11   13 1   
    20   13   14 1   
    21   13   38 1   
    22   14   15 1   
    23   14   19 1   
    24   14   39 1   
    25   15   16 1   
    26   15   40 1   
    27   15   41 1   
    28   16   17 1   
    29   16   42 1   
    30   16   43 1   
    31   17   18 1   
    32   17   44 1   
    33   17   45 1   
    34   18   19 1   
    35   18   46 1   
    36   18   47 1   
    37   19   20 1   
    38   19   48 1   
    39   20   21 1   
    40   20   49 1   
    41   21   22 2   
    42   21   23 1   
    43   23   24 1   
    44   23   32 2   
    45   24   25 1   
    46   25   26 1   
    47   25   31 2   
    48   26   27 1   
    49   26   50 1   
    50   26   51 1   
    51   27   28 1   
    52   27   29 1   
    53   28   52 1   
    54   28   53 1   
    55   28   54 1   
    56   29   30 1   
    57   29   55 1   
    58   29   56 1   
    59   30   31 1   
    60   30   57 1   
    61   30   58 1   
    62   31   32 1   
@<TRIPOS>SUBSTRUCTURE
     1 D92         1 TEMP              0 ****  ****    0 ROOT
