@<TRIPOS>MOLECULE
D92
   60    64     1     0     0
SMALL
bcc


@<TRIPOS>ATOM
      1 Cl1         2.8340   -4.1250    2.5510 cl        1 D92     -0.011400
      2 C16         3.2040   -2.7930    1.5820 ca        1 D92      0.004400
      3 C17         2.7750   -1.5000    2.0200 ca        1 D92     -0.019000
      4 C18         3.0340   -0.3640    1.2920 ca        1 D92     -0.160000
      5 C12         3.7490   -0.5070    0.0760 ca        1 D92      0.049800
      6 N11         4.1490    0.4350   -0.8440 na        1 D92     -0.122400
      7 C15         3.8990   -2.9620    0.4050 ca        1 D92     -0.067000
      8 C13         4.1880   -1.8220   -0.3780 ca        1 D92     -0.112800
      9 C14         4.8580   -1.6330   -1.6060 cc        1 D92     -0.031200
     10 C10         4.8300   -0.2330   -1.8950 cd        1 D92     -0.257300
     11 C9          5.3480    0.4980   -2.9950 c         1 D92      0.594300
     12 O19         5.3370    1.7180   -3.2020 o         1 D92     -0.552100
     13 N7          5.9920   -0.3140   -4.1120 ny        1 D92     -0.677800
     14 C1          7.4550   -0.0120   -4.3030 c3        1 D92      0.120500
     15 C6          8.2310   -1.3030   -4.6240 c3        1 D92     -0.110400
     16 C5          7.8490   -1.8760   -5.9700 c3        1 D92     -0.105400
     17 C4          8.0280   -0.8700   -7.0850 c3        1 D92     -0.092400
     18 C3          7.3220    0.4440   -6.8070 c3        1 D92     -0.111400
     19 C2          7.7730    0.9910   -5.4460 c3        1 D92      0.106500
     20 N8          7.3050    2.3930   -5.2170 ny        1 D92     -0.678800
     21 C20         8.1910    3.1890   -4.2520 c         1 D92      0.527600
     22 O31         8.8320    2.5100   -3.4540 o         1 D92     -0.487100
     23 C21         8.1400    4.6130   -4.4080 cc        1 D92      0.095900
     24 S25         9.0590    5.6990   -3.4800 ss        1 D92      0.330700
     25 C24         8.4460    6.9780   -4.2570 cc        1 D92     -0.232700
     26 C26         8.7840    8.4240   -4.0820 c3        1 D92      0.229100
     27 N27         7.8610    9.3590   -4.6870 n3        1 D92     -0.709600
     28 C30         6.7910    9.8040   -3.8220 c3        1 D92      0.144100
     29 C28         7.4340    8.9420   -6.0090 c3        1 D92      0.161800
     30 C29         6.7650    7.5620   -6.0930 c3        1 D92     -0.157700
     31 C23         7.4940    6.5660   -5.2610 cd        1 D92      0.386600
     32 N22         7.3280    5.2300   -5.3400 nd        1 D92     -0.621000
     33 H17         2.2180   -1.4250    2.9730 ha        1 D92      0.185000
     34 H18         2.7000    0.6260    1.6360 ha        1 D92      0.173000
     35 HN11        3.9770    1.4100   -0.8180 hn        1 D92      0.336700
     36 H15         4.2300   -3.9570    0.0650 ha        1 D92      0.174000
     37 H14         5.3120   -2.4210   -2.2050 ha        1 D92      0.161000
     38 HN7         5.8930   -1.3170   -3.9030 hn        1 D92      0.462300
     39 H1          7.8360    0.4140   -3.3220 hx        1 D92      0.145700
     40 H61         8.0700   -2.0630   -3.8130 hc        1 D92      0.099700
     41 H62         9.3280   -1.0500   -4.6090 hc        1 D92      0.099700
     42 H51         6.7900   -2.2480   -5.9540 hc        1 D92      0.076200
     43 H52         8.4990   -2.7710   -6.1790 hc        1 D92      0.076200
     44 H41         7.6260   -1.2980   -8.0440 hc        1 D92      0.092700
     45 H42         9.1230   -0.6780   -7.2460 hc        1 D92      0.092700
     46 H31         7.5940    1.1690   -7.6250 hc        1 D92      0.075200
     47 H32         6.2110    0.3110   -6.8490 hc        1 D92      0.075200
     48 H2          8.9130    1.0490   -5.4590 hx        1 D92      0.147700
     49 HN8         6.3460    2.4220   -4.8450 hn        1 D92      0.479300
     50 H261        8.8970    8.6620   -2.9850 h1        1 D92      0.094200
     51 H262        9.7900    8.5940   -4.5770 h1        1 D92      0.094200
     52 H301        7.2300   10.2030   -2.8700 h1        1 D92      0.048700
     53 H302        6.0540    8.9930   -3.5710 h1        1 D92      0.048700
     54 H303        6.2450   10.6390   -4.3370 h1        1 D92      0.048700
     55 H281        6.7160    9.7100   -6.4130 h1        1 D92      0.082200
     56 H282        8.3490    8.9420   -6.6680 h1        1 D92      0.082200
     57 H291        5.7040    7.6270   -5.7260 hc        1 D92      0.086200
     58 H292        6.7350    7.2390   -7.1670 hc        1 D92      0.086200
     59 H72         5.4820   -0.1280   -4.9830 hn        1 D92      0.462300
     60 H82         7.2990    2.8790   -6.1280 hn        1 D92      0.479300
@<TRIPOS>BOND
     1    1    2 1   
     2    2    3 ar  
     3    2    7 ar  
     4    3    4 ar  
     5    3   33 1   
     6    4    5 ar  
     7    4   34 1   
     8    5    6 1   
     9    5    8 ar  
    10    6   10 1   
    11    6   35 1   
    12    7    8 ar  
    13    7   36 1   
    14    8    9 1   
    15    9   10 2   
    16    9   37 1   
    17   10   11 1   
    18   11   12 2   
    19   11   13 1   
    20   13   14 1   
    21   13   38 1   
    22   13   59 1   
    23   14   15 1   
    24   14   19 1   
    25   14   39 1   
    26   15   16 1   
    27   15   40 1   
    28   15   41 1   
    29   16   17 1   
    30   16   42 1   
    31   16   43 1   
    32   17   18 1   
    33   17   44 1   
    34   17   45 1   
    35   18   19 1   
    36   18   46 1   
    37   18   47 1   
    38   19   20 1   
    39   19   48 1   
    40   20   21 1   
    41   20   49 1   
    42   20   60 1   
    43   21   22 2   
    44   21   23 1   
    45   23   24 1   
    46   23   32 2   
    47   24   25 1   
    48   25   26 1   
    49   25   31 2   
    50   26   27 1   
    51   26   50 1   
    52   26   51 1   
    53   27   28 1   
    54   27   29 1   
    55   28   52 1   
    56   28   53 1   
    57   28   54 1   
    58   29   30 1   
    59   29   55 1   
    60   29   56 1   
    61   30   31 1   
    62   30   57 1   
    63   30   58 1   
    64   31   32 1   
@<TRIPOS>SUBSTRUCTURE
     1 D92         1 TEMP              0 ****  ****    0 ROOT
