@<TRIPOS>MOLECULE
D92
   60    64     1     0     0
SMALL
bcc


@<TRIPOS>ATOM
      1 CL1         2.8350   -4.1280    2.5470 cl        1 D92     -0.011400
      2 C16         3.2010   -2.7970    1.5750 ca        1 D92      0.004400
      3 C17         2.7560   -1.5060    2.0020 ca        1 D92     -0.019000
      4 C18         3.0130   -0.3720    1.2700 ca        1 D92     -0.160000
      5 C12         3.7400   -0.5140    0.0620 ca        1 D92      0.049800
      6 N11         4.1410    0.4270   -0.8580 na        1 D92     -0.122400
      7 C15         3.9100   -2.9660    0.4060 ca        1 D92     -0.067000
      8 C13         4.1960   -1.8270   -0.3800 ca        1 D92     -0.112800
      9 C14         4.8780   -1.6380   -1.6020 cc        1 D92     -0.031200
     10 C10         4.8390   -0.2400   -1.8980 cd        1 D92     -0.257300
     11 C9          5.3620    0.4900   -2.9970 c         1 D92      0.594300
     12 O19         5.3410    1.7080   -3.2110 o         1 D92     -0.552100
     13 N7          6.0250   -0.3210   -4.1030 n4        1 D92     -0.677800
     14 C1          7.4870   -0.0060   -4.2810 c3        1 D92      0.120500
     15 C6          8.2800   -1.2900   -4.5850 c3        1 D92     -0.110400
     16 C5          7.9170   -1.8750   -5.9320 c3        1 D92     -0.105400
     17 C4          8.0970   -0.8740   -7.0520 c3        1 D92     -0.092400
     18 C3          7.3750    0.4340   -6.7890 c3        1 D92     -0.111400
     19 C2          7.8060    0.9940   -5.4270 c3        1 D92      0.106500
     20 N8          7.3210    2.3930   -5.2110 n4        1 D92     -0.678800
     21 C20         8.1890    3.2030   -4.2410 c         1 D92      0.527600
     22 O31         8.8300    2.5360   -3.4340 o         1 D92     -0.487100
     23 C21         8.1240    4.6260   -4.4070 cc        1 D92      0.095900
     24 S25         9.0220    5.7270   -3.4770 ss        1 D92      0.330700
     25 C24         8.4010    6.9950   -4.2660 cc        1 D92     -0.232700
     26 C26         8.7210    8.4460   -4.0950 c3        1 D92      0.229100
     27 N27         7.7920    9.3670   -4.7130 n3        1 D92     -0.709600
     28 C30         6.7100    9.8040   -3.8600 c3        1 D92      0.144100
     29 C28         7.3820    8.9380   -6.0360 c3        1 D92      0.161800
     30 C29         6.7290    7.5510   -6.1190 c3        1 D92     -0.157700
     31 C23         7.4620    6.5670   -5.2750 cd        1 D92      0.386600
     32 N22         7.3130    5.2290   -5.3490 nd        1 D92     -0.621000
     33 H17         2.1890   -1.4310    2.9500 ha        1 D92      0.185000
     34 H18         2.6650    0.6170    1.6060 ha        1 D92      0.173000
     35 HN11        3.9590    1.4010   -0.8380 hn        1 D92      0.336700
     36 H15         4.2530   -3.9600    0.0750 ha        1 D92      0.174000
     37 H14         5.3450   -2.4250   -2.1920 ha        1 D92      0.161000
     38 HN7         5.9350   -1.3240   -3.8890 hn        1 D92      0.462300
     39 H1          7.8540    0.4300   -3.2980 hx        1 D92      0.145700
     40 H61         9.3730   -1.0260   -4.5610 hc        1 D92      0.099700
     41 H62         8.1180   -2.0470   -3.7720 hc        1 D92      0.099700
     42 H51         6.8620   -2.2580   -5.9250 hc        1 D92      0.076200
     43 H52         8.5790   -2.7650   -6.1300 hc        1 D92      0.076200
     44 H41         9.1920   -0.6720   -7.2020 hc        1 D92      0.092700
     45 H42         7.7090   -1.3120   -8.0120 hc        1 D92      0.092700
     46 H31         7.6480    1.1570   -7.6080 hc        1 D92      0.075200
     47 H32         6.2650    0.2900   -6.8410 hc        1 D92      0.075200
     48 H2          8.9450    1.0640   -5.4280 hx        1 D92      0.147700
     49 HN8         7.3190    2.8730   -6.1240 hn        1 D92      0.479300
     50 H261        9.7290    8.6250   -4.5830 h1        1 D92      0.094200
     51 H262        8.8220    8.6910   -2.9990 h1        1 D92      0.094200
     52 H301        5.9810    8.9860   -3.6100 h1        1 D92      0.048700
     53 H302        7.1370   10.2130   -2.9060 h1        1 D92      0.048700
     54 H303        6.1590   10.6300   -4.3840 h1        1 D92      0.048700
     55 H281        8.3020    8.9450   -6.6880 h1        1 D92      0.082200
     56 H282        6.6590    9.6950   -6.4510 h1        1 D92      0.082200
     57 H291        5.6640    7.6040   -5.7620 hc        1 D92      0.086200
     58 H292        6.7120    7.2210   -7.1910 hc        1 D92      0.086200
     59 H72         5.5220   -0.1450   -4.9800 hn        1 D92      0.462300
     60 H82         6.3580    2.4140   -4.8480 hn        1 D92      0.479300
@<TRIPOS>BOND
     1    1    2 1   
     2    2    3 ar  
     3    2    7 ar  
     4    3    4 ar  
     5    3   33 1   
     6    4    5 ar  
     7    4   34 1   
     8    5    6 1   
     9    5    8 ar  
    10    6   10 1   
    11    6   35 1   
    12    7    8 ar  
    13    7   36 1   
    14    8    9 1   
    15    9   10 2   
    16    9   37 1   
    17   10   11 1   
    18   11   12 2   
    19   11   13 1   
    20   13   14 1   
    21   13   38 1   
    22   13   59 1   
    23   14   15 1   
    24   14   19 1   
    25   14   39 1   
    26   15   16 1   
    27   15   40 1   
    28   15   41 1   
    29   16   17 1   
    30   16   42 1   
    31   16   43 1   
    32   17   18 1   
    33   17   44 1   
    34   17   45 1   
    35   18   19 1   
    36   18   46 1   
    37   18   47 1   
    38   19   20 1   
    39   19   48 1   
    40   20   21 1   
    41   20   49 1   
    42   20   60 1   
    43   21   22 2   
    44   21   23 1   
    45   23   24 1   
    46   23   32 2   
    47   24   25 1   
    48   25   26 1   
    49   25   31 2   
    50   26   27 1   
    51   26   50 1   
    52   26   51 1   
    53   27   28 1   
    54   27   29 1   
    55   28   52 1   
    56   28   53 1   
    57   28   54 1   
    58   29   30 1   
    59   29   55 1   
    60   29   56 1   
    61   30   31 1   
    62   30   57 1   
    63   30   58 1   
    64   31   32 1   
@<TRIPOS>SUBSTRUCTURE
     1 D92         1 TEMP              0 ****  ****    0 ROOT
