@<TRIPOS>MOLECULE
D92
   58    60     1     0     0
SMALL
bcc


@<TRIPOS>ATOM
      1 CL1        -6.5770   -2.9000    5.8810 cl        1 D92     -0.021000
      2 C16        -4.9550   -2.3190    5.6830 c2        1 D92     -0.091000
      3 C17        -4.2450   -1.6720    6.9030 c2        1 D92     -0.097000
      4 C18        -2.8360   -1.0770    6.7440 c1        1 D92     -0.136000
      5 C12        -2.1080   -1.1810    5.3990 c1        1 D92      0.015000
      6 N11        -0.7140   -0.7250    4.8350 n3        1 D92     -0.173000
      7 C15        -4.1830   -2.5080    4.3460 c1        1 D92     -0.068000
      8 C13        -2.8050   -1.9020    4.1780 c1        1 D92     -0.095000
      9 C14        -1.8510   -1.8020    3.1370 c2        1 D92     -0.152000
     10 C10        -0.7250   -1.1710    3.4910 c2        1 D92     -0.080000
     11 C9          0.5780   -1.5260    2.8130 c2        1 D92      0.365000
     12 O19         1.6340   -1.3280    3.3870 o         1 D92     -0.374000
     13 N7          0.5770   -1.9760    1.4590 n         1 D92     -0.363000
     14 C1          1.8080   -2.1910    0.7810 c3        1 D92      0.005000
     15 C6          2.2900   -3.6060    1.0730 c3        1 D92     -0.177000
     16 C5          1.4160   -4.6640    0.4220 c3        1 D92     -0.160000
     17 C4          1.2100   -4.4160   -1.0660 c3        1 D92     -0.159000
     18 C3          0.7260   -3.0020   -1.3610 c3        1 D92     -0.170000
     19 C2          1.6030   -1.9410   -0.7080 c3        1 D92      0.016000
     20 N8          0.9880   -0.6660   -0.8780 n         1 D92     -0.348000
     21 C20         1.5500    0.2860   -1.7900 c2        1 D92      0.383000
     22 O31         2.5610    0.0030   -2.4250 o         1 D92     -0.382000
     23 C21         0.8700    1.6420   -1.9980 c2        1 D92     -0.373000
     24 S25         1.7310    3.1060   -1.6390 ss        1 D92      0.673000
     25 C24         1.1150    4.1070   -2.8270 c2        1 D92     -0.466000
     26 C26         1.0330    5.5410   -2.9130 c3        1 D92      0.000000
     27 N27         0.5840    6.0300   -4.3250 n3        1 D92     -0.239000
     28 C30         1.6580    5.8900   -5.2480 c3        1 D92     -0.129000
     29 C28        -0.3640    5.5460   -4.7620 c3        1 D92     -0.076000
     30 C29        -0.3230    3.9230   -4.9050 c3        1 D92     -0.124000
     31 C23         0.0670    3.3040   -3.7070 c2        1 D92     -0.082000
     32 N22        -0.0510    1.8580   -3.1970 n2        1 D92     -0.085000
     33 H17        -4.7180   -1.6160    7.7910 ha        1 D92      0.148000
     34 H18        -2.3760   -0.6580    7.5330 ha        1 D92      0.143000
     35 HN11       -0.1940   -0.0610    5.1730 hn        1 D92      0.273000
     36 H15        -4.5640   -3.0510    3.6370 ha        1 D92      0.150000
     37 H14        -1.8330   -2.4630    2.4330 ha        1 D92      0.156000
     38 HN7        -0.2090   -2.1610    1.0430 hn        1 D92      0.226000
     39 H1          2.4540   -1.5730    1.1110 h1        1 D92      0.140000
     40 H61         2.2890   -3.7480    2.0450 hc        1 D92      0.096000
     41 H62         3.1880   -3.7010    0.7460 hc        1 D92      0.096000
     42 H51         0.5360   -4.6690    0.8690 hc        1 D92      0.080500
     43 H52         1.8370   -5.5410    0.5420 hc        1 D92      0.080500
     44 H41         0.5620   -5.0440   -1.4000 hc        1 D92      0.086500
     45 H42         2.0740   -4.5640   -1.5390 hc        1 D92      0.086500
     46 H31         0.7290   -2.8600   -2.3470 hc        1 D92      0.086500
     47 H32        -0.2040   -2.9030   -1.0240 hc        1 D92      0.086500
     48 H2          2.4840   -1.9340   -1.1550 h1        1 D92      0.138000
     49 HN8         0.1740   -0.4630   -0.4170 hn        1 D92      0.248000
     50 H261        0.4320    5.9520   -2.2290 h1        1 D92      0.104500
     51 H262        1.8930    5.9230   -2.6530 h1        1 D92      0.104500
     52 H301        2.3480    6.6030   -5.0730 h1        1 D92      0.075000
     53 H302        1.3160    5.9850   -6.1600 h1        1 D92      0.075000
     54 H303        2.0750    4.9890   -5.1410 h1        1 D92      0.075000
     55 H281       -0.4840    5.9080   -5.6610 h1        1 D92      0.097500
     56 H282       -1.0870    5.7580   -4.1640 h1        1 D92      0.097500
     57 H291        0.2210    3.5430   -5.6310 hc        1 D92      0.106000
     58 H292       -1.2070    3.6890   -5.1130 hc        1 D92      0.106000
@<TRIPOS>BOND
     1    1    2 1   
     2    2    3 1   
     3    2    7 1   
     4    3    4 1   
     5    3   33 1   
     6    4   34 1   
     7    5    6 1   
     8    5    8 1   
     9    6   10 1   
    10    6   35 1   
    11    7   36 1   
    12    8    9 1   
    13    9   10 1   
    14    9   37 1   
    15   10   11 1   
    16   11   12 1   
    17   11   13 1   
    18   13   14 1   
    19   13   38 1   
    20   14   15 1   
    21   14   19 1   
    22   14   39 1   
    23   15   16 1   
    24   15   40 1   
    25   15   41 1   
    26   16   17 1   
    27   16   42 1   
    28   16   43 1   
    29   17   18 1   
    30   17   44 1   
    31   17   45 1   
    32   18   19 1   
    33   18   46 1   
    34   18   47 1   
    35   19   20 1   
    36   19   48 1   
    37   20   21 1   
    38   20   49 1   
    39   21   22 1   
    40   21   23 1   
    41   23   24 1   
    42   23   32 1   
    43   24   25 1   
    44   25   26 1   
    45   25   31 1   
    46   26   27 1   
    47   26   50 1   
    48   26   51 1   
    49   27   28 1   
    50   27   29 1   
    51   28   52 1   
    52   28   53 1   
    53   28   54 1   
    54   29   30 1   
    55   29   55 1   
    56   29   56 1   
    57   30   31 1   
    58   30   57 1   
    59   30   58 1   
    60   31   32 1   
@<TRIPOS>SUBSTRUCTURE
     1 D92         1 TEMP              0 ****  ****    0 ROOT
