@<TRIPOS>MOLECULE
D93
   58    62     1     0     0
SMALL
bcc


@<TRIPOS>ATOM
      1 CL1        -1.7580    6.5970    6.4390 cl        1 D93     -0.100400
      2 C16        -1.0440    6.4290    4.9020 ca        1 D93     -0.012600
      3 C17        -0.7820    7.5970    4.1480 ca        1 D93     -0.097000
      4 C18        -0.2050    7.5250    2.8950 ca        1 D93     -0.136000
      5 C12         0.1160    6.2510    2.3890 ca        1 D93     -0.030200
      6 N11         0.6920    5.8700    1.1840 na        1 D93     -0.150400
      7 C15        -0.7370    5.1630    4.4260 ca        1 D93     -0.068000
      8 C13        -0.1520    5.0550    3.1610 ca        1 D93     -0.106800
      9 C14         0.2920    3.9420    2.3620 cc        1 D93     -0.140200
     10 C10         0.7990    4.4700    1.1690 cd        1 D93     -0.124300
     11 C9          1.3840    3.7800   -0.0090 c         1 D93      0.695300
     12 O19         1.7540    4.4250   -1.0140 o         1 D93     -0.615100
     13 N7          1.4970    2.4100    0.0670 n         1 D93     -0.556900
     14 C1          2.0330    1.6130   -1.0110 c3        1 D93      0.091700
     15 C6          0.9900    0.6670   -1.6260 c3        1 D93     -0.096400
     16 C5          0.5900   -0.4550   -0.6950 c3        1 D93     -0.080400
     17 C4          1.7930   -1.2440   -0.2250 c3        1 D93     -0.083400
     18 C3          2.8370   -0.3470    0.4010 c3        1 D93     -0.096400
     19 C2          3.2840    0.7900   -0.5300 c3        1 D93      0.087700
     20 N8          4.0510    0.3220   -1.6610 n         1 D93     -0.542900
     21 C20         5.3950    0.5820   -1.7940 c         1 D93      0.599600
     22 O31         6.0230    1.2840   -0.9730 o         1 D93     -0.613100
     23 C21         6.1000    0.0170   -2.9800 cc        1 D93      0.289900
     24 S25         7.6850    0.5210   -3.3710 ss        1 D93      0.093700
     25 C24         7.7210   -0.4950   -4.6770 cc        1 D93     -0.268700
     26 C26         8.8430   -0.7120   -5.6300 c3        1 D93      0.244100
     27 N27         8.4840   -1.4090   -6.8590 n3        1 D93     -0.713600
     28 C30         8.0340   -0.5280   -7.9150 c3        1 D93      0.147100
     29 C28         7.5760   -2.5180   -6.6050 c3        1 D93      0.161800
     30 C29         6.2650   -2.1750   -5.8860 c3        1 D93     -0.139700
     31 C23         6.5110   -1.2060   -4.7860 cd        1 D93      0.339600
     32 N22         5.5820   -0.9070   -3.8100 nd        1 D93     -0.615000
     33 H17        -1.0450    8.5790    4.5720 ha        1 D93      0.148000
     34 H18        -0.0020    8.4330    2.3110 ha        1 D93      0.143000
     35 HN11        0.9910    6.4580    0.4480 hn        1 D93      0.322700
     36 H15        -0.9440    4.2600    5.0190 ha        1 D93      0.150000
     37 H14         0.2350    2.8970    2.6510 ha        1 D93      0.156000
     38 HN7         1.1580    1.9320    0.8670 hn        1 D93      0.315500
     39 H1          2.3710    2.3310   -1.8210 h1        1 D93      0.101700
     40 H61         1.4240    0.2390   -2.5680 hc        1 D93      0.053700
     41 H62         0.0790    1.2520   -1.9210 hc        1 D93      0.053700
     42 H51        -0.1220   -1.1400   -1.2260 hc        1 D93      0.041700
     43 H52         0.0440   -0.0380    0.1920 hc        1 D93      0.041700
     44 H41         1.4660   -2.0120    0.5250 hc        1 D93      0.045200
     45 H42         2.2380   -1.8000   -1.0920 hc        1 D93      0.045200
     46 H31         2.4260    0.1130    1.3380 hc        1 D93      0.050700
     47 H32         3.7270   -0.9610    0.7000 hc        1 D93      0.050700
     48 H2          3.9540    1.4830    0.0670 h1        1 D93      0.099700
     49 HN8         3.5990   -0.2990   -2.2910 hn        1 D93      0.330500
     50 H261        9.3240    0.2730   -5.8890 h1        1 D93      0.065700
     51 H262        9.6230   -1.3530   -5.1190 h1        1 D93      0.065700
     52 H301        8.8280    0.2410   -8.1100 h1        1 D93      0.036033
     53 H302        7.0720    0.0020   -7.6800 h1        1 D93      0.036033
     54 H303        7.8890   -1.1340   -8.8480 h1        1 D93      0.036033
     55 H281        8.1450   -3.2630   -5.9800 h1        1 D93      0.058700
     56 H282        7.3280   -3.0060   -7.5880 h1        1 D93      0.058700
     57 H291        5.8100   -3.1200   -5.4880 hc        1 D93      0.066200
     58 H292        5.5340   -1.7250   -6.6100 hc        1 D93      0.066200
@<TRIPOS>BOND
     1    1    2 1   
     2    2    3 ar  
     3    2    7 ar  
     4    3    4 ar  
     5    3   33 1   
     6    4    5 ar  
     7    4   34 1   
     8    5    6 1   
     9    5    8 ar  
    10    6   10 1   
    11    6   35 1   
    12    7    8 ar  
    13    7   36 1   
    14    8    9 1   
    15    9   10 2   
    16    9   37 1   
    17   10   11 1   
    18   11   12 2   
    19   11   13 1   
    20   13   14 1   
    21   13   38 1   
    22   14   15 1   
    23   14   19 1   
    24   14   39 1   
    25   15   16 1   
    26   15   40 1   
    27   15   41 1   
    28   16   17 1   
    29   16   42 1   
    30   16   43 1   
    31   17   18 1   
    32   17   44 1   
    33   17   45 1   
    34   18   19 1   
    35   18   46 1   
    36   18   47 1   
    37   19   20 1   
    38   19   48 1   
    39   20   21 1   
    40   20   49 1   
    41   21   22 2   
    42   21   23 1   
    43   23   24 1   
    44   23   32 2   
    45   24   25 1   
    46   25   26 1   
    47   25   31 2   
    48   26   27 1   
    49   26   50 1   
    50   26   51 1   
    51   27   28 1   
    52   27   29 1   
    53   28   52 1   
    54   28   53 1   
    55   28   54 1   
    56   29   30 1   
    57   29   55 1   
    58   29   56 1   
    59   30   31 1   
    60   30   57 1   
    61   30   58 1   
    62   31   32 1   
@<TRIPOS>SUBSTRUCTURE
     1 D93         1 TEMP              0 ****  ****    0 ROOT
