@<TRIPOS>MOLECULE
D93
   60    64     1     0     0
SMALL
bcc


@<TRIPOS>ATOM
      1 CL1         3.0880    2.9680    1.8870 cl        1 D93     -0.018400
      2 C16         3.8960    1.6850    1.1430 ca        1 D93      0.005400
      3 C17         4.2420    0.5500    1.9420 ca        1 D93     -0.030000
      4 C18         4.9000   -0.5340    1.4130 ca        1 D93     -0.153000
      5 C12         5.2310   -0.4990    0.0360 ca        1 D93      0.036800
      6 N11         5.8810   -1.4220   -0.7540 na        1 D93     -0.121400
      7 C15         4.2060    1.7460   -0.1990 ca        1 D93     -0.069000
      8 C13         4.8810    0.6530   -0.7840 ca        1 D93     -0.113800
      9 C14         5.3360    0.3800   -2.0960 cc        1 D93     -0.046200
     10 C10         5.9490   -0.9050   -2.0710 cd        1 D93     -0.253300
     11 C9          6.5570   -1.6710   -3.1100 c         1 D93      0.592300
     12 O19         7.1070   -2.7690   -3.0600 o         1 D93     -0.483100
     13 N7          6.4890   -1.0630   -4.5150 n4        1 D93     -0.670800
     14 C1          7.8340   -0.6610   -5.0520 c3        1 D93      0.120500
     15 C6          7.6870    0.3350   -6.2090 c3        1 D93     -0.121400
     16 C5          7.1190   -0.3010   -7.4590 c3        1 D93     -0.103400
     17 C4          7.9230   -1.5050   -7.8940 c3        1 D93     -0.105400
     18 C3          8.0740   -2.5180   -6.7820 c3        1 D93     -0.118400
     19 C2          8.6580   -1.9120   -5.5000 c3        1 D93      0.110500
     20 N8         10.1080   -1.5790   -5.6810 n4        1 D93     -0.663800
     21 C20        10.8900   -1.3530   -4.3840 c         1 D93      0.521600
     22 O31        10.2090   -1.2490   -3.3670 o         1 D93     -0.487100
     23 C21        12.3120   -1.2850   -4.5480 cc        1 D93      0.085900
     24 S25        13.4120   -1.1410   -3.2620 ss        1 D93      0.335700
     25 C24        14.6800   -1.1480   -4.2640 cc        1 D93     -0.230700
     26 C26        16.1370   -1.1080   -3.9240 c3        1 D93      0.229100
     27 N27        17.0260   -0.8100   -5.0250 n3        1 D93     -0.709600
     28 C30        17.3290    0.5920   -5.2020 c3        1 D93      0.144100
     29 C28        16.6580   -1.5080   -6.2410 c3        1 D93      0.161800
     30 C29        15.2360   -1.2480   -6.7580 c3        1 D93     -0.158700
     31 C23        14.2540   -1.2550   -5.6400 cd        1 D93      0.390600
     32 N22        12.9170   -1.3340   -5.7910 nd        1 D93     -0.624000
     33 H17         3.9650    0.5550    3.0130 ha        1 D93      0.183000
     34 H18         5.1610   -1.4050    2.0330 ha        1 D93      0.172000
     35 HN11        6.2140   -2.3150   -0.4820 hn        1 D93      0.336700
     36 H15         3.9370    2.6180   -0.8160 ha        1 D93      0.171000
     37 H14         5.2290    1.0470   -2.9500 ha        1 D93      0.157000
     38 HN7         6.0650   -1.7560   -5.1450 hn        1 D93      0.463800
     39 H1          8.3690   -0.1550   -4.1880 hx        1 D93      0.130700
     40 H61         7.0440    1.2030   -5.8980 hc        1 D93      0.087700
     41 H62         8.7010    0.7680   -6.4260 hc        1 D93      0.087700
     42 H51         6.0490   -0.5960   -7.2940 hc        1 D93      0.081200
     43 H52         7.1160    0.4620   -8.2860 hc        1 D93      0.081200
     44 H41         7.4100   -1.9970   -8.7670 hc        1 D93      0.083200
     45 H42         8.9320   -1.1770   -8.2620 hc        1 D93      0.083200
     46 H31         8.7130   -3.3760   -7.1330 hc        1 D93      0.091200
     47 H32         7.0770   -2.9700   -6.5310 hc        1 D93      0.091200
     48 H2          8.6230   -2.6910   -4.6700 hx        1 D93      0.148700
     49 HN8        10.5500   -2.3650   -6.1830 hn        1 D93      0.476300
     50 H261       16.4190   -2.1390   -3.5470 h1        1 D93      0.095200
     51 H262       16.3150   -0.3740   -3.0850 h1        1 D93      0.095200
     52 H301       16.4480    1.1980   -5.5460 h1        1 D93      0.050033
     53 H302       18.1480    0.6820   -5.9660 h1        1 D93      0.050033
     54 H303       17.7040    1.0120   -4.2320 h1        1 D93      0.050033
     55 H281       17.3870   -1.2260   -7.0520 h1        1 D93      0.082700
     56 H282       16.7750   -2.6120   -6.0410 h1        1 D93      0.082700
     57 H291       15.1900   -0.2470   -7.2690 hc        1 D93      0.088200
     58 H292       14.9780   -2.0310   -7.5200 hc        1 D93      0.088200
     59 H72         5.8870   -0.2300   -4.5020 hn        1 D93      0.463800
     60 H82        10.2120   -0.7440   -6.2700 hn        1 D93      0.476300
@<TRIPOS>BOND
     1    1    2 1   
     2    2    3 ar  
     3    2    7 ar  
     4    3    4 ar  
     5    3   33 1   
     6    4    5 ar  
     7    4   34 1   
     8    5    6 1   
     9    5    8 ar  
    10    6   10 1   
    11    6   35 1   
    12    7    8 ar  
    13    7   36 1   
    14    8    9 1   
    15    9   10 2   
    16    9   37 1   
    17   10   11 1   
    18   11   12 2   
    19   11   13 1   
    20   13   14 1   
    21   13   38 1   
    22   13   59 1   
    23   14   15 1   
    24   14   19 1   
    25   14   39 1   
    26   15   16 1   
    27   15   40 1   
    28   15   41 1   
    29   16   17 1   
    30   16   42 1   
    31   16   43 1   
    32   17   18 1   
    33   17   44 1   
    34   17   45 1   
    35   18   19 1   
    36   18   46 1   
    37   18   47 1   
    38   19   20 1   
    39   19   48 1   
    40   20   21 1   
    41   20   49 1   
    42   20   60 1   
    43   21   22 2   
    44   21   23 1   
    45   23   24 1   
    46   23   32 2   
    47   24   25 1   
    48   25   26 1   
    49   25   31 2   
    50   26   27 1   
    51   26   50 1   
    52   26   51 1   
    53   27   28 1   
    54   27   29 1   
    55   28   52 1   
    56   28   53 1   
    57   28   54 1   
    58   29   30 1   
    59   29   55 1   
    60   29   56 1   
    61   30   31 1   
    62   30   57 1   
    63   30   58 1   
    64   31   32 1   
@<TRIPOS>SUBSTRUCTURE
     1 D93         1 TEMP              0 ****  ****    0 ROOT
