@<TRIPOS>MOLECULE
D93
   60    64     1     0     0
SMALL
bcc


@<TRIPOS>ATOM
      1 CL1         3.0310    3.0310    1.8200 cl        1 D93     -0.018400
      2 C16         3.8630    1.7450    1.1070 ca        1 D93      0.005400
      3 C17         4.2310    0.6380    1.9330 ca        1 D93     -0.030000
      4 C18         4.9090   -0.4460    1.4300 ca        1 D93     -0.153000
      5 C12         5.2370   -0.4390    0.0520 ca        1 D93      0.036800
      6 N11         5.9030   -1.3700   -0.7160 na        1 D93     -0.121400
      7 C15         4.1690    1.7780   -0.2370 ca        1 D93     -0.069000
      8 C13         4.8630    0.6840   -0.7960 ca        1 D93     -0.113800
      9 C14         5.3220    0.3870   -2.1020 cc        1 D93     -0.046200
     10 C10         5.9590   -0.8850   -2.0460 cd        1 D93     -0.253300
     11 C9          6.5790   -1.6650   -3.0670 c         1 D93      0.592300
     12 O19         7.1490   -2.7520   -2.9900 o         1 D93     -0.484100
     13 N7          6.4980   -1.0940   -4.4860 n4        1 D93     -0.670800
     14 C1          7.8350   -0.6890   -5.0390 c3        1 D93      0.120500
     15 C6          7.6710    0.2770   -6.2190 c3        1 D93     -0.121400
     16 C5          7.1050   -0.3950   -7.4500 c3        1 D93     -0.103400
     17 C4          7.9220   -1.6000   -7.8610 c3        1 D93     -0.105400
     18 C3          8.0910   -2.5840   -6.7250 c3        1 D93     -0.118400
     19 C2          8.6730   -1.9400   -5.4600 c3        1 D93      0.110500
     20 N8         10.1170   -1.5940   -5.6570 n4        1 D93     -0.663800
     21 C20        10.9030   -1.3270   -4.3690 c         1 D93      0.521600
     22 O31        10.2260   -1.2050   -3.3530 o         1 D93     -0.487100
     23 C21        12.3230   -1.2490   -4.5420 cc        1 D93      0.085900
     24 S25        13.4270   -1.0610   -3.2660 ss        1 D93      0.335700
     25 C24        14.6910   -1.0800   -4.2720 cc        1 D93     -0.230700
     26 C26        16.1490   -1.0160   -3.9410 c3        1 D93      0.229100
     27 N27        17.0300   -0.7370   -5.0530 n3        1 D93     -0.709600
     28 C30        17.3180    0.6630   -5.2660 c3        1 D93      0.144100
     29 C28        16.6640   -1.4690   -6.2500 c3        1 D93      0.161800
     30 C29        15.2370   -1.2370   -6.7660 c3        1 D93     -0.158700
     31 C23        14.2600   -1.2250   -5.6440 cd        1 D93      0.390600
     32 N22        12.9240   -1.3220   -5.7860 nd        1 D93     -0.624000
     33 H17         3.9560    0.6650    3.0040 ha        1 D93      0.183000
     34 H18         5.1880   -1.2960    2.0720 ha        1 D93      0.172000
     35 HN11        6.2530   -2.2490   -0.4220 hn        1 D93      0.336700
     36 H15         3.8830    2.6300   -0.8750 ha        1 D93      0.171000
     37 H14         5.2000    1.0300   -2.9710 ha        1 D93      0.157000
     38 HN7         6.0800   -1.8080   -5.0960 hn        1 D93      0.463800
     39 H1          8.3680   -0.1560   -4.1890 hx        1 D93      0.130700
     40 H61         7.0190    1.1450   -5.9250 hc        1 D93      0.087700
     41 H62         8.6780    0.7180   -6.4500 hc        1 D93      0.087700
     42 H51         7.0900    0.3480   -8.2950 hc        1 D93      0.081200
     43 H52         6.0400   -0.6990   -7.2730 hc        1 D93      0.081200
     44 H41         7.4110   -2.1190   -8.7190 hc        1 D93      0.083200
     45 H42         8.9250   -1.2680   -8.2410 hc        1 D93      0.083200
     46 H31         7.1000   -3.0410   -6.4580 hc        1 D93      0.091200
     47 H32         8.7380   -3.4410   -7.0590 hc        1 D93      0.091200
     48 H2          8.6510   -2.6990   -4.6120 hx        1 D93      0.148700
     49 HN8        10.5670   -2.3860   -6.1420 hn        1 D93      0.476300
     50 H261       16.3230   -0.2600   -3.1210 h1        1 D93      0.095200
     51 H262       16.4440   -2.0350   -3.5390 h1        1 D93      0.095200
     52 H301       18.1320    0.7430   -6.0360 h1        1 D93      0.050033
     53 H302       16.4280    1.2520   -5.6210 h1        1 D93      0.050033
     54 H303       17.6920    1.1120   -4.3090 h1        1 D93      0.050033
     55 H281       17.3870   -1.1990   -7.0710 h1        1 D93      0.082700
     56 H282       16.7940   -2.5660   -6.0220 h1        1 D93      0.082700
     57 H291       14.9840   -2.0410   -7.5070 hc        1 D93      0.088200
     58 H292       15.1780   -0.2490   -7.3020 hc        1 D93      0.088200
     59 H72         5.8850   -0.2690   -4.4910 hn        1 D93      0.463800
     60 H82        10.2080   -0.7710   -6.2660 hn        1 D93      0.476300
@<TRIPOS>BOND
     1    1    2 1   
     2    2    3 ar  
     3    2    7 ar  
     4    3    4 ar  
     5    3   33 1   
     6    4    5 ar  
     7    4   34 1   
     8    5    6 1   
     9    5    8 ar  
    10    6   10 1   
    11    6   35 1   
    12    7    8 ar  
    13    7   36 1   
    14    8    9 1   
    15    9   10 2   
    16    9   37 1   
    17   10   11 1   
    18   11   12 2   
    19   11   13 1   
    20   13   14 1   
    21   13   38 1   
    22   13   59 1   
    23   14   15 1   
    24   14   19 1   
    25   14   39 1   
    26   15   16 1   
    27   15   40 1   
    28   15   41 1   
    29   16   17 1   
    30   16   42 1   
    31   16   43 1   
    32   17   18 1   
    33   17   44 1   
    34   17   45 1   
    35   18   19 1   
    36   18   46 1   
    37   18   47 1   
    38   19   20 1   
    39   19   48 1   
    40   20   21 1   
    41   20   49 1   
    42   20   60 1   
    43   21   22 2   
    44   21   23 1   
    45   23   24 1   
    46   23   32 2   
    47   24   25 1   
    48   25   26 1   
    49   25   31 2   
    50   26   27 1   
    51   26   50 1   
    52   26   51 1   
    53   27   28 1   
    54   27   29 1   
    55   28   52 1   
    56   28   53 1   
    57   28   54 1   
    58   29   30 1   
    59   29   55 1   
    60   29   56 1   
    61   30   31 1   
    62   30   57 1   
    63   30   58 1   
    64   31   32 1   
@<TRIPOS>SUBSTRUCTURE
     1 D93         1 TEMP              0 ****  ****    0 ROOT
