@<TRIPOS>MOLECULE
D93
   60    64     1     0     0
SMALL
bcc


@<TRIPOS>ATOM
      1 Cl1         3.0610    3.0180    1.8360 cl        1 D93     -0.018400
      2 C16         3.8810    1.7300    1.1140 ca        1 D93      0.005400
      3 C17         4.2410    0.6150    1.9330 ca        1 D93     -0.030000
      4 C18         4.9100   -0.4720    1.4230 ca        1 D93     -0.153000
      5 C12         5.2380   -0.4590    0.0440 ca        1 D93      0.036800
      6 N11         5.8960   -1.3890   -0.7300 na        1 D93     -0.121400
      7 C15         4.1870    1.7690   -0.2300 ca        1 D93     -0.069000
      8 C13         4.8730    0.6730   -0.7950 ca        1 D93     -0.113800
      9 C14         5.3290    0.3810   -2.1040 cc        1 D93     -0.046200
     10 C10         5.9560   -0.8970   -2.0560 cd        1 D93     -0.253300
     11 C9          6.5700   -1.6750   -3.0820 c         1 D93      0.592300
     12 O19         7.1320   -2.7660   -3.0130 o         1 D93     -0.483100
     13 N7          6.4930   -1.0930   -4.4970 ny        1 D93     -0.670800
     14 C1          7.8320   -0.6880   -5.0450 c3        1 D93      0.120500
     15 C6          7.6740    0.2850   -6.2200 c3        1 D93     -0.121400
     16 C5          7.1090   -0.3790   -7.4560 c3        1 D93     -0.103400
     17 C4          7.9250   -1.5830   -7.8720 c3        1 D93     -0.105400
     18 C3          8.0880   -2.5740   -6.7420 c3        1 D93     -0.118400
     19 C2          8.6680   -1.9390   -5.4720 c3        1 D93      0.110500
     20 N8         10.1140   -1.5960   -5.6620 ny        1 D93     -0.663800
     21 C20        10.8970   -1.3390   -4.3710 c         1 D93      0.521600
     22 O31        10.2170   -1.2230   -3.3560 o         1 D93     -0.487100
     23 C21        12.3180   -1.2610   -4.5400 cc        1 D93      0.085900
     24 S25        13.4190   -1.0840   -3.2600 ss        1 D93      0.335700
     25 C24        14.6850   -1.0970   -4.2630 cc        1 D93     -0.230700
     26 C26        16.1420   -1.0370   -3.9280 c3        1 D93      0.229100
     27 N27        17.0270   -0.7510   -5.0360 n3        1 D93     -0.709600
     28 C30        17.3160    0.6510   -5.2390 c3        1 D93      0.144100
     29 C28        16.6630   -1.4740   -6.2390 c3        1 D93      0.161800
     30 C29        15.2370   -1.2360   -6.7570 c3        1 D93     -0.158700
     31 C23        14.2570   -1.2320   -5.6370 cd        1 D93      0.390600
     32 N22        12.9210   -1.3260   -5.7830 nd        1 D93     -0.624000
     33 H17         3.9670    0.6360    3.0040 ha        1 D93      0.183000
     34 H18         5.1820   -1.3280    2.0590 ha        1 D93      0.172000
     35 HN11        6.2390   -2.2740   -0.4420 hn        1 D93      0.336700
     36 H15         3.9080    2.6270   -0.8620 ha        1 D93      0.171000
     37 H14         5.2130    1.0310   -2.9690 ha        1 D93      0.157000
     38 HN7         6.0750   -1.8020   -5.1140 hn        1 D93      0.463800
     39 H1          8.3650   -0.1620   -4.1910 hx        1 D93      0.130700
     40 H61         8.6830    0.7240   -6.4460 hc        1 D93      0.087700
     41 H62         7.0230    1.1530   -5.9220 hc        1 D93      0.087700
     42 H51         6.0430   -0.6820   -7.2830 hc        1 D93      0.081200
     43 H52         7.0970    0.3690   -8.2970 hc        1 D93      0.081200
     44 H41         7.4140   -2.0960   -8.7340 hc        1 D93      0.083200
     45 H42         8.9290   -1.2520   -8.2480 hc        1 D93      0.083200
     46 H31         7.0950   -3.0310   -6.4800 hc        1 D93      0.091200
     47 H32         8.7340   -3.4320   -7.0790 hc        1 D93      0.091200
     48 H2          8.6420   -2.7030   -4.6280 hx        1 D93      0.148700
     49 HN8        10.5630   -2.3860   -6.1510 hn        1 D93      0.476300
     50 H261       16.4350   -2.0590   -3.5330 h1        1 D93      0.095200
     51 H262       16.3160   -0.2870   -3.1030 h1        1 D93      0.095200
     52 H301       18.1320    0.7350   -6.0050 h1        1 D93      0.050033
     53 H302       16.4290    1.2430   -5.5910 h1        1 D93      0.050033
     54 H303       17.6890    1.0920   -4.2770 h1        1 D93      0.050033
     55 H281       16.7900   -2.5720   -6.0190 h1        1 D93      0.082700
     56 H282       17.3870   -1.1980   -7.0560 h1        1 D93      0.082700
     57 H291       15.1800   -0.2440   -7.2850 hc        1 D93      0.088200
     58 H292       14.9850   -2.0340   -7.5040 hc        1 D93      0.088200
     59 H72         5.8830   -0.2670   -4.4980 hn        1 D93      0.463800
     60 H82        10.2090   -0.7700   -6.2660 hn        1 D93      0.476300
@<TRIPOS>BOND
     1    1    2 1   
     2    2    3 ar  
     3    2    7 ar  
     4    3    4 ar  
     5    3   33 1   
     6    4    5 ar  
     7    4   34 1   
     8    5    6 1   
     9    5    8 ar  
    10    6   10 1   
    11    6   35 1   
    12    7    8 ar  
    13    7   36 1   
    14    8    9 1   
    15    9   10 2   
    16    9   37 1   
    17   10   11 1   
    18   11   12 2   
    19   11   13 1   
    20   13   14 1   
    21   13   38 1   
    22   13   59 1   
    23   14   15 1   
    24   14   19 1   
    25   14   39 1   
    26   15   16 1   
    27   15   40 1   
    28   15   41 1   
    29   16   17 1   
    30   16   42 1   
    31   16   43 1   
    32   17   18 1   
    33   17   44 1   
    34   17   45 1   
    35   18   19 1   
    36   18   46 1   
    37   18   47 1   
    38   19   20 1   
    39   19   48 1   
    40   20   21 1   
    41   20   49 1   
    42   20   60 1   
    43   21   22 2   
    44   21   23 1   
    45   23   24 1   
    46   23   32 2   
    47   24   25 1   
    48   25   26 1   
    49   25   31 2   
    50   26   27 1   
    51   26   50 1   
    52   26   51 1   
    53   27   28 1   
    54   27   29 1   
    55   28   52 1   
    56   28   53 1   
    57   28   54 1   
    58   29   30 1   
    59   29   55 1   
    60   29   56 1   
    61   30   31 1   
    62   30   57 1   
    63   30   58 1   
    64   31   32 1   
@<TRIPOS>SUBSTRUCTURE
     1 D93         1 TEMP              0 ****  ****    0 ROOT
