@<TRIPOS>MOLECULE
D94
   69    75     1     0     0
SMALL
bcc


@<TRIPOS>ATOM
      1 N5         -0.2740    0.9190    1.6840 n4        1 D94     -0.819300
      2 C3          1.1880    0.8940    1.4920 cc        1 D94      0.500200
      3 C4          1.9220   -0.1240    2.2020 cc        1 D94     -0.249600
      4 N2          3.3480   -0.1270    2.0230 na        1 D94     -0.065200
      5 C2          3.9250    0.8030    1.1900 cc        1 D94     -0.082600
      6 C1          3.1180    1.7320    0.5440 cd        1 D94      0.329200
      7 N1          1.7520    1.7930    0.6880 nd        1 D94     -0.603000
      8 C5          3.8520   -1.1600    2.8440 cc        1 D94      0.443800
      9 C22         5.2930   -1.5100    2.9080 cy        1 D94     -0.116000
     10 C23         5.7630   -2.1780    4.2230 cy        1 D94     -0.080900
     11 C24         6.8310   -1.0530    4.4160 cy        1 D94      0.173500
     12 N6          6.7580   -0.2970    5.6520 n3        1 D94     -0.724600
     13 C26         7.6510    0.8580    5.6320 c3        1 D94      0.165300
     14 C27         7.6260    1.6530    6.9510 c3        1 D94      0.170300
     15 N7          7.8510    0.8120    8.1170 n3        1 D94     -0.732600
     16 C30         7.8300    1.5570    9.3540 c3        1 D94      0.156100
     17 C28         6.9650   -0.3420    8.1400 c3        1 D94      0.170300
     18 C29         6.9870   -1.1380    6.8220 c3        1 D94      0.165300
     19 C25         6.2700   -0.3340    3.1450 cy        1 D94     -0.080900
     20 N3          2.8340   -1.7840    3.4960 nd        1 D94     -0.496300
     21 C6          1.6450   -1.1720    3.1150 cd        1 D94      0.133400
     22 C7          0.3290   -1.5630    3.6000 ca        1 D94     -0.032800
     23 C8         -0.6940   -1.7960    2.6990 ca        1 D94     -0.236300
     24 C12        -2.0110   -2.0960    3.1640 ca        1 D94      0.392600
     25 C11        -2.2170   -2.2420    4.5700 ca        1 D94     -0.145300
     26 C9         -1.1340   -2.0540    5.4620 ca        1 D94     -0.080000
     27 C10         0.1120   -1.7070    4.9940 ca        1 D94     -0.114000
     28 N4         -3.0330   -2.2250    2.2450 nb        1 D94     -0.689000
     29 C13        -4.2480   -2.5370    2.6950 cp        1 D94      0.517800
     30 C14        -4.5310   -2.7410    4.0960 ca        1 D94     -0.221300
     31 C15        -3.5270   -2.5880    5.0140 ca        1 D94     -0.076000
     32 C16        -5.3640   -2.6850    1.7430 cp        1 D94     -0.181500
     33 C17        -5.1800   -3.3520    0.5260 ca        1 D94     -0.098500
     34 C18        -6.2520   -3.5010   -0.3540 ca        1 D94     -0.132000
     35 C19        -7.5040   -2.9800   -0.0300 ca        1 D94     -0.102000
     36 C20        -7.6870   -2.3070    1.1800 ca        1 D94     -0.132000
     37 C21        -6.6230   -2.1600    2.0660 ca        1 D94     -0.098500
     38 HN5        -0.7120    0.2680    1.0170 hn        1 D94      0.479133
     39 HN5A       -0.4840    0.5950    2.6420 hn        1 D94      0.479133
     40 H2          5.0250    0.7690    1.0770 h4        1 D94      0.207000
     41 H1          3.5440    2.4930   -0.1360 h4        1 D94      0.077100
     42 H22         5.5510   -2.1170    2.0030 hc        1 D94      0.090700
     43 H23         6.2090   -3.1830    4.0680 hc        1 D94      0.070950
     44 H23A        4.9900   -2.2260    5.0180 hc        1 D94      0.070950
     45 H24         7.8680   -1.4470    4.2240 h1        1 D94      0.046700
     46 H26         7.3090    1.5440    4.8080 h1        1 D94      0.039700
     47 H26A        8.7170    0.5560    5.4120 h1        1 D94      0.039700
     48 H27         8.4550    2.4130    6.9090 h1        1 D94      0.039700
     49 H27A        6.6460    2.2110    7.0190 h1        1 D94      0.039700
     50 H30         8.0990    0.8650   10.1950 h1        1 D94      0.036700
     51 H30A        6.8310    2.0220    9.5780 h1        1 D94      0.036700
     52 H30B        8.5990    2.3710    9.2970 h1        1 D94      0.036700
     53 H28         5.8990   -0.0470    8.3680 h1        1 D94      0.039700
     54 H28A        7.3160   -1.0290    8.9600 h1        1 D94      0.039700
     55 H29         7.9700   -1.6900    6.7500 h1        1 D94      0.039700
     56 H29A        6.1630   -1.9030    6.8660 h1        1 D94      0.039700
     57 H25         5.7750    0.6380    3.3530 hc        1 D94      0.070950
     58 H25A        7.0270   -0.2140    2.3410 hc        1 D94      0.070950
     59 H8         -0.4910   -1.8420    1.6170 ha        1 D94      0.143000
     60 H9         -1.3060   -2.1950    6.5420 ha        1 D94      0.157000
     61 H10         0.9550   -1.5590    5.6870 ha        1 D94      0.165000
     62 H14        -5.5510   -3.0260    4.3940 ha        1 D94      0.167000
     63 H15        -3.7070   -2.7310    6.0910 ha        1 D94      0.156000
     64 H17        -4.1950   -3.7680    0.2650 ha        1 D94      0.140000
     65 H18        -6.1080   -4.0340   -1.3060 ha        1 D94      0.144000
     66 H19        -8.3490   -3.0990   -0.7250 ha        1 D94      0.145000
     67 H20        -8.6740   -1.8930    1.4360 ha        1 D94      0.144000
     68 H21        -6.7720   -1.6260    3.0170 ha        1 D94      0.140000
     69 H53        -0.6500    1.8640    1.5380 hn        1 D94      0.479133
@<TRIPOS>BOND
     1    1    2 1   
     2    1   38 1   
     3    1   39 1   
     4    1   69 1   
     5    2    3 1   
     6    2    7 2   
     7    3    4 1   
     8    3   21 2   
     9    4    5 1   
    10    4    8 1   
    11    5    6 2   
    12    5   40 1   
    13    6    7 1   
    14    6   41 1   
    15    8    9 1   
    16    8   20 2   
    17    9   10 1   
    18    9   19 1   
    19    9   42 1   
    20   10   11 1   
    21   10   43 1   
    22   10   44 1   
    23   11   12 1   
    24   11   19 1   
    25   11   45 1   
    26   12   13 1   
    27   12   18 1   
    28   13   14 1   
    29   13   46 1   
    30   13   47 1   
    31   14   15 1   
    32   14   48 1   
    33   14   49 1   
    34   15   16 1   
    35   15   17 1   
    36   16   50 1   
    37   16   51 1   
    38   16   52 1   
    39   17   18 1   
    40   17   53 1   
    41   17   54 1   
    42   18   55 1   
    43   18   56 1   
    44   19   57 1   
    45   19   58 1   
    46   20   21 1   
    47   21   22 1   
    48   22   23 ar  
    49   22   27 ar  
    50   23   24 ar  
    51   23   59 1   
    52   24   25 ar  
    53   24   28 ar  
    54   25   26 ar  
    55   25   31 ar  
    56   26   27 ar  
    57   26   60 1   
    58   27   61 1   
    59   28   29 ar  
    60   29   30 ar  
    61   29   32 1   
    62   30   31 ar  
    63   30   62 1   
    64   31   63 1   
    65   32   33 ar  
    66   32   37 ar  
    67   33   34 ar  
    68   33   64 1   
    69   34   35 ar  
    70   34   65 1   
    71   35   36 ar  
    72   35   66 1   
    73   36   37 ar  
    74   36   67 1   
    75   37   68 1   
@<TRIPOS>SUBSTRUCTURE
     1 D94         1 TEMP              0 ****  ****    0 ROOT
