@<TRIPOS>MOLECULE
D94
   68    74     1     0     0
SMALL
bcc


@<TRIPOS>ATOM
      1 N5          1.4550    2.0650   -2.0150 nh        1 D94     -0.952500
      2 C3          0.3150    2.5620   -1.4220 cc        1 D94      0.727200
      3 C4         -0.3820    1.7190   -0.4490 cc        1 D94     -0.237600
      4 N2         -1.6240    2.1780    0.0600 na        1 D94     -0.019200
      5 C2         -2.1170    3.4110   -0.3360 cc        1 D94     -0.262600
      6 C1         -1.3710    4.1570   -1.2280 cd        1 D94      0.413200
      7 N1         -0.1740    3.7730   -1.7750 nd        1 D94     -0.764000
      8 C5         -2.1100    1.1900    0.9290 cc        1 D94      0.363800
      9 C22        -3.3740    1.3300    1.6900 cy        1 D94     -0.086000
     10 C23        -4.0440    0.0130    2.1450 cy        1 D94     -0.078400
     11 C24        -5.3670    0.4360    1.4290 cy        1 D94      0.163500
     12 N6         -5.9040   -0.4900    0.4510 n3        1 D94     -0.718600
     13 C26        -6.9860    0.0990   -0.3260 c3        1 D94      0.168800
     14 C27        -7.5770   -0.8810   -1.3560 c3        1 D94      0.168300
     15 N7         -7.9580   -2.1590   -0.7710 n3        1 D94     -0.733600
     16 C30        -8.4810   -3.0810   -1.7520 c3        1 D94      0.157100
     17 C28        -6.8860   -2.7430    0.0240 c3        1 D94      0.168300
     18 C29        -6.2960   -1.7590    1.0520 c3        1 D94      0.168800
     19 C25        -4.6300    1.6920    0.8610 cy        1 D94     -0.078400
     20 N3         -1.2340    0.1450    0.9950 nd        1 D94     -0.532300
     21 C6         -0.1650    0.4520    0.1640 cd        1 D94      0.084400
     22 C7          0.9770   -0.4380   -0.0030 ca        1 D94      0.002200
     23 C8          2.2490   -0.0250    0.3340 ca        1 D94     -0.180300
     24 C12         3.3650   -0.9050    0.1640 ca        1 D94      0.395600
     25 C11         3.1240   -2.2210   -0.3370 ca        1 D94     -0.146300
     26 C9          1.8020   -2.6210   -0.6540 ca        1 D94     -0.114000
     27 C10         0.7510   -1.7540   -0.4930 ca        1 D94     -0.099000
     28 N4          4.6310   -0.4610    0.4890 nb        1 D94     -0.656000
     29 C13         5.6520   -1.3030    0.3360 cp        1 D94      0.480800
     30 C14         5.4930   -2.6450   -0.1610 ca        1 D94     -0.238300
     31 C15         4.2410   -3.0890   -0.4930 ca        1 D94     -0.082000
     32 C16         7.0180   -0.8610    0.6800 cp        1 D94     -0.152500
     33 C17         7.4660    0.4190    0.3300 ca        1 D94     -0.102000
     34 C18         8.7640    0.8150    0.6480 ca        1 D94     -0.136000
     35 C19         9.6190   -0.0570    1.3220 ca        1 D94     -0.119000
     36 C20         9.1720   -1.3290    1.6810 ca        1 D94     -0.136000
     37 C21         7.8770   -1.7320    1.3630 ca        1 D94     -0.102000
     38 HN5         2.0120    2.6730   -2.5670 hn        1 D94      0.440300
     39 HN5A        1.8940    1.2820   -1.5940 hn        1 D94      0.440300
     40 H2         -3.0830    3.7220    0.0860 h4        1 D94      0.172000
     41 H1         -1.7230    5.1500   -1.5610 h4        1 D94      0.034100
     42 H22        -3.2040    2.0380    2.5410 hc        1 D94      0.071700
     43 H23        -3.5710   -0.9050    1.7360 hc        1 D94      0.065950
     44 H23A       -4.1500   -0.0740    3.2470 hc        1 D94      0.065950
     45 H24        -6.1480    0.7420    2.1810 h1        1 D94      0.029700
     46 H26        -7.8210    0.4730    0.3370 h1        1 D94      0.037450
     47 H26A       -6.5680    0.9810   -0.8860 h1        1 D94      0.037450
     48 H27        -8.5060   -0.4110   -1.7840 h1        1 D94      0.037200
     49 H27A       -6.8350   -1.0120   -2.1980 h1        1 D94      0.037200
     50 H30        -7.7270   -3.3800   -2.5320 h1        1 D94      0.032033
     51 H30A       -8.8340   -4.0060   -1.2260 h1        1 D94      0.032033
     52 H30B       -9.3550   -2.6030   -2.2670 h1        1 D94      0.032033
     53 H28        -7.3170   -3.6140    0.5920 h1        1 D94      0.037200
     54 H28A       -6.0490   -3.1320   -0.6250 h1        1 D94      0.037200
     55 H29        -5.3750   -2.2310    1.4940 h1        1 D94      0.037450
     56 H29A       -7.0460   -1.6120    1.8840 h1        1 D94      0.037450
     57 H25        -5.1050    2.6500    1.1560 hc        1 D94      0.065950
     58 H25A       -4.4650    1.6690   -0.2370 hc        1 D94      0.065950
     59 H8          2.4200    0.9790    0.7580 ha        1 D94      0.156000
     60 H9          1.6350   -3.6420   -1.0300 ha        1 D94      0.137000
     61 H10        -0.2800   -2.0610   -0.7290 ha        1 D94      0.153000
     62 H14         6.3820   -3.2810   -0.2730 ha        1 D94      0.148000
     63 H15         4.0770   -4.1060   -0.8810 ha        1 D94      0.140000
     64 H17         6.7930    1.1150   -0.1940 ha        1 D94      0.140500
     65 H18         9.1130    1.8200    0.3690 ha        1 D94      0.133500
     66 H19        10.6420    0.2590    1.5740 ha        1 D94      0.133000
     67 H20         9.8410   -2.0150    2.2200 ha        1 D94      0.133500
     68 H21         7.5250   -2.7320    1.6580 ha        1 D94      0.140500
@<TRIPOS>BOND
     1    1    2 1   
     2    1   38 1   
     3    1   39 1   
     4    2    3 1   
     5    2    7 2   
     6    3    4 1   
     7    3   21 2   
     8    4    5 1   
     9    4    8 1   
    10    5    6 2   
    11    5   40 1   
    12    6    7 1   
    13    6   41 1   
    14    8    9 1   
    15    8   20 2   
    16    9   10 1   
    17    9   19 1   
    18    9   42 1   
    19   10   11 1   
    20   10   43 1   
    21   10   44 1   
    22   11   12 1   
    23   11   19 1   
    24   11   45 1   
    25   12   13 1   
    26   12   18 1   
    27   13   14 1   
    28   13   46 1   
    29   13   47 1   
    30   14   15 1   
    31   14   48 1   
    32   14   49 1   
    33   15   16 1   
    34   15   17 1   
    35   16   50 1   
    36   16   51 1   
    37   16   52 1   
    38   17   18 1   
    39   17   53 1   
    40   17   54 1   
    41   18   55 1   
    42   18   56 1   
    43   19   57 1   
    44   19   58 1   
    45   20   21 1   
    46   21   22 1   
    47   22   23 ar  
    48   22   27 ar  
    49   23   24 ar  
    50   23   59 1   
    51   24   25 ar  
    52   24   28 ar  
    53   25   26 ar  
    54   25   31 ar  
    55   26   27 ar  
    56   26   60 1   
    57   27   61 1   
    58   28   29 ar  
    59   29   30 ar  
    60   29   32 1   
    61   30   31 ar  
    62   30   62 1   
    63   31   63 1   
    64   32   33 ar  
    65   32   37 ar  
    66   33   34 ar  
    67   33   64 1   
    68   34   35 ar  
    69   34   65 1   
    70   35   36 ar  
    71   35   66 1   
    72   36   37 ar  
    73   36   67 1   
    74   37   68 1   
@<TRIPOS>SUBSTRUCTURE
     1 D94         1 TEMP              0 ****  ****    0 ROOT
