@<TRIPOS>MOLECULE
D94
   68    74     1     0     0
SMALL
bcc


@<TRIPOS>ATOM
      1 N5          0.0670    1.0910    1.1780 nh        1 D94     -0.954500
      2 C3          1.4350    0.9310    1.1290 cc        1 D94      0.727200
      3 C4          2.0460   -0.0570    2.0190 cc        1 D94     -0.238600
      4 N2          3.4500   -0.2480    1.9370 na        1 D94     -0.019200
      5 C2          4.1910    0.4810    1.0190 cc        1 D94     -0.262600
      6 C1          3.5270    1.3890    0.2160 cd        1 D94      0.413200
      7 N1          2.1810    1.6420    0.2540 nd        1 D94     -0.765000
      8 C5          3.7980   -1.2010    2.9040 cc        1 D94      0.364800
      9 C22         5.1830   -1.6960    3.0910 cy        1 D94     -0.086000
     10 C23         5.5110   -2.2910    4.4810 cy        1 D94     -0.078400
     11 C24         6.7040   -1.2930    4.6290 cy        1 D94      0.163500
     12 N6          6.7040   -0.4480    5.8070 n3        1 D94     -0.718600
     13 C26         7.7120    0.6010    5.7290 c3        1 D94      0.168800
     14 C27         7.7350    1.4950    6.9830 c3        1 D94      0.168300
     15 N7          7.8330    0.7340    8.2210 n3        1 D94     -0.733600
     16 C30         7.8220    1.5810    9.3910 c3        1 D94      0.157100
     17 C28         6.8420   -0.3300    8.2950 c3        1 D94      0.168300
     18 C29         6.8200   -1.2200    7.0380 c3        1 D94      0.168800
     19 C25         6.2710   -0.6140    3.2900 cy        1 D94     -0.078400
     20 N3          2.6880   -1.6190    3.5780 nd        1 D94     -0.534300
     21 C6          1.6020   -0.9360    3.0480 cd        1 D94      0.087400
     22 C7          0.2420   -1.1370    3.5300 ca        1 D94     -0.008800
     23 C8         -0.7600   -1.5450    2.6760 ca        1 D94     -0.166300
     24 C12        -2.0920   -1.7440    3.1660 ca        1 D94      0.393600
     25 C11        -2.3460   -1.5300    4.5550 ca        1 D94     -0.146300
     26 C9         -1.2880   -1.1290    5.4090 ca        1 D94     -0.118000
     27 C10        -0.0240   -0.9380    4.9130 ca        1 D94     -0.101000
     28 N4         -3.0820   -2.1390    2.2890 nb        1 D94     -0.652000
     29 C13        -4.3100   -2.3300    2.7690 cp        1 D94      0.478800
     30 C14        -4.6480   -2.1340    4.1550 ca        1 D94     -0.237300
     31 C15        -3.6720   -1.7370    5.0300 ca        1 D94     -0.083000
     32 C16        -5.3890   -2.7580    1.8570 cp        1 D94     -0.152500
     33 C17        -5.5090   -2.1990    0.5780 ca        1 D94     -0.101500
     34 C18        -6.5440   -2.6030   -0.2650 ca        1 D94     -0.136000
     35 C19        -7.4580   -3.5670    0.1580 ca        1 D94     -0.119000
     36 C20        -7.3350   -4.1330    1.4270 ca        1 D94     -0.136000
     37 C21        -6.3050   -3.7320    2.2760 ca        1 D94     -0.101500
     38 HN5        -0.3490    1.8400    0.6800 hn        1 D94      0.440300
     39 HN5A       -0.4140    0.7250    1.9640 hn        1 D94      0.440300
     40 H2          5.2730    0.2920    0.9900 h4        1 D94      0.172000
     41 H1          4.0810    1.9880   -0.5280 h4        1 D94      0.034100
     42 H22         5.4280   -2.4020    2.2580 hc        1 D94      0.072700
     43 H23         4.7050   -2.1630    5.2340 hc        1 D94      0.065950
     44 H23A        5.8300   -3.3540    4.4440 hc        1 D94      0.065950
     45 H24         7.6880   -1.8260    4.5030 h1        1 D94      0.029700
     46 H26         8.7460    0.1760    5.5690 h1        1 D94      0.037450
     47 H26A        7.4650    1.2510    4.8440 h1        1 D94      0.037450
     48 H27         6.8200    2.1570    6.9720 h1        1 D94      0.037200
     49 H27A        8.6420    2.1580    6.9160 h1        1 D94      0.037200
     50 H30         7.9880    0.9440   10.2990 h1        1 D94      0.031700
     51 H30A        6.8590    2.1480    9.5240 h1        1 D94      0.031700
     52 H30B        8.6610    2.3200    9.3100 h1        1 D94      0.031700
     53 H28         5.8040    0.0790    8.4670 h1        1 D94      0.037200
     54 H28A        7.1060   -0.9830    9.1730 h1        1 D94      0.037200
     55 H29         7.7450   -1.8680    7.0380 h1        1 D94      0.037450
     56 H29A        5.9230   -1.8960    7.1080 h1        1 D94      0.037450
     57 H25         7.0660   -0.6250    2.5150 hc        1 D94      0.065950
     58 H25A        5.8660    0.4140    3.4070 hc        1 D94      0.065950
     59 H8         -0.5490   -1.7370    1.6110 ha        1 D94      0.163000
     60 H9         -1.5020   -0.9800    6.4790 ha        1 D94      0.137000
     61 H10         0.8040   -0.6390    5.5750 ha        1 D94      0.152000
     62 H14        -5.6850   -2.2980    4.4790 ha        1 D94      0.148000
     63 H15        -3.8900   -1.5730    6.0960 ha        1 D94      0.140000
     64 H17        -4.7840   -1.4440    0.2360 ha        1 D94      0.141000
     65 H18        -6.6350   -2.1590   -1.2670 ha        1 D94      0.133500
     66 H19        -8.2720   -3.8850   -0.5100 ha        1 D94      0.132000
     67 H20        -8.0490   -4.9010    1.7590 ha        1 D94      0.133500
     68 H21        -6.2050   -4.1890    3.2720 ha        1 D94      0.141000
@<TRIPOS>BOND
     1    1    2 1   
     2    1   38 1   
     3    1   39 1   
     4    2    3 1   
     5    2    7 2   
     6    3    4 1   
     7    3   21 2   
     8    4    5 1   
     9    4    8 1   
    10    5    6 2   
    11    5   40 1   
    12    6    7 1   
    13    6   41 1   
    14    8    9 1   
    15    8   20 2   
    16    9   10 1   
    17    9   19 1   
    18    9   42 1   
    19   10   11 1   
    20   10   43 1   
    21   10   44 1   
    22   11   12 1   
    23   11   19 1   
    24   11   45 1   
    25   12   13 1   
    26   12   18 1   
    27   13   14 1   
    28   13   46 1   
    29   13   47 1   
    30   14   15 1   
    31   14   48 1   
    32   14   49 1   
    33   15   16 1   
    34   15   17 1   
    35   16   50 1   
    36   16   51 1   
    37   16   52 1   
    38   17   18 1   
    39   17   53 1   
    40   17   54 1   
    41   18   55 1   
    42   18   56 1   
    43   19   57 1   
    44   19   58 1   
    45   20   21 1   
    46   21   22 1   
    47   22   23 ar  
    48   22   27 ar  
    49   23   24 ar  
    50   23   59 1   
    51   24   25 ar  
    52   24   28 ar  
    53   25   26 ar  
    54   25   31 ar  
    55   26   27 ar  
    56   26   60 1   
    57   27   61 1   
    58   28   29 ar  
    59   29   30 ar  
    60   29   32 1   
    61   30   31 ar  
    62   30   62 1   
    63   31   63 1   
    64   32   33 ar  
    65   32   37 ar  
    66   33   34 ar  
    67   33   64 1   
    68   34   35 ar  
    69   34   65 1   
    70   35   36 ar  
    71   35   66 1   
    72   36   37 ar  
    73   36   67 1   
    74   37   68 1   
@<TRIPOS>SUBSTRUCTURE
     1 D94         1 TEMP              0 ****  ****    0 ROOT
