@<TRIPOS>MOLECULE
D94
   68    74     1     0     0
SMALL
bcc


@<TRIPOS>ATOM
      1 N5          0.0470    1.1400    1.2260 nv        1 D94     -0.954500
      2 C3          1.4150    0.9850    1.1670 cc        1 D94      0.727200
      3 C4          2.0330   -0.0190    2.0340 cc        1 D94     -0.238600
      4 N2          3.4370   -0.2040    1.9410 na        1 D94     -0.019200
      5 C2          4.1710    0.5440    1.0340 cc        1 D94     -0.262600
      6 C1          3.5020    1.4650    0.2520 cd        1 D94      0.413200
      7 N1          2.1550    1.7140    0.3010 nd        1 D94     -0.765000
      8 C5          3.7930   -1.1750    2.8880 cc        1 D94      0.364800
      9 C22         5.1800   -1.6710    3.0580 cy        1 D94     -0.086000
     10 C23         5.5160   -2.2910    4.4340 cy        1 D94     -0.078400
     11 C24         6.7080   -1.2940    4.5950 cy        1 D94      0.163500
     12 N6          6.7130   -0.4710    5.7890 n3        1 D94     -0.718600
     13 C26         7.7190    0.5810    5.7250 c3        1 D94      0.168800
     14 C27         7.7470    1.4510    6.9960 c3        1 D94      0.168300
     15 N7          7.8540    0.6670    8.2180 n3        1 D94     -0.733600
     16 C30         7.8480    1.4920    9.4050 c3        1 D94      0.157100
     17 C28         6.8650   -0.4000    8.2780 c3        1 D94      0.168300
     18 C29         6.8370   -1.2660    7.0040 c3        1 D94      0.168800
     19 C25         6.2660   -0.5900    3.2720 cy        1 D94     -0.078400
     20 N3          2.6870   -1.6100    3.5590 nd        1 D94     -0.534300
     21 C6          1.5970   -0.9190    3.0480 cd        1 D94      0.087400
     22 C7          0.2400   -1.1320    3.5330 ca        1 D94     -0.008800
     23 C8         -0.7660   -1.5270    2.6760 ca        1 D94     -0.166300
     24 C12        -2.0950   -1.7390    3.1690 ca        1 D94      0.393600
     25 C11        -2.3420   -1.5520    4.5640 ca        1 D94     -0.146300
     26 C9         -1.2810   -1.1650    5.4200 ca        1 D94     -0.118000
     27 C10        -0.0200   -0.9610    4.9210 ca        1 D94     -0.101000
     28 N4         -3.0880   -2.1200    2.2900 nb        1 D94     -0.652000
     29 C13        -4.3130   -2.3240    2.7720 cp        1 D94      0.478800
     30 C14        -4.6440   -2.1550    4.1630 ca        1 D94     -0.237300
     31 C15        -3.6650   -1.7720    5.0410 ca        1 D94     -0.083000
     32 C16        -5.3960   -2.7370    1.8580 cp        1 D94     -0.152500
     33 C17        -5.5230   -2.1540    0.5910 ca        1 D94     -0.101500
     34 C18        -6.5610   -2.5450   -0.2550 ca        1 D94     -0.136000
     35 C19        -7.4710   -3.5200    0.1540 ca        1 D94     -0.119000
     36 C20        -7.3400   -4.1090    1.4120 ca        1 D94     -0.136000
     37 C21        -6.3070   -3.7210    2.2630 ca        1 D94     -0.101500
     38 HN5        -0.3730    1.8970    0.7440 hn        1 D94      0.440300
     39 HN5A       -0.4290    0.7570    2.0070 hn        1 D94      0.440300
     40 H2          5.2540    0.3590    0.9960 h4        1 D94      0.172000
     41 H1          4.0500    2.0800   -0.4830 h4        1 D94      0.034100
     42 H22         5.4220   -2.3600    2.2100 hc        1 D94      0.072700
     43 H23         4.7140   -2.1790    5.1940 hc        1 D94      0.065950
     44 H23A        5.8370   -3.3520    4.3760 hc        1 D94      0.065950
     45 H24         7.6930   -1.8220    4.4530 h1        1 D94      0.029700
     46 H26         8.7530    0.1610    5.5520 h1        1 D94      0.037450
     47 H26A        7.4650    1.2480    4.8540 h1        1 D94      0.037450
     48 H27         6.8310    2.1120    7.0030 h1        1 D94      0.037200
     49 H27A        8.6530    2.1170    6.9360 h1        1 D94      0.037200
     50 H30         6.8860    2.0540    9.5540 h1        1 D94      0.031700
     51 H30A        8.0210    0.8380   10.2990 h1        1 D94      0.031700
     52 H30B        8.6860    2.2330    9.3330 h1        1 D94      0.031700
     53 H28         7.1350   -1.0690    9.1420 h1        1 D94      0.037200
     54 H28A        5.8270    0.0040    8.4630 h1        1 D94      0.037200
     55 H29         7.7630   -1.9130    6.9870 h1        1 D94      0.037450
     56 H29A        5.9420   -1.9450    7.0670 h1        1 D94      0.037450
     57 H25         5.8600    0.4350    3.4110 hc        1 D94      0.065950
     58 H25A        7.0570   -0.5840    2.4930 hc        1 D94      0.065950
     59 H8         -0.5590   -1.6980    1.6070 ha        1 D94      0.163000
     60 H9         -1.4890   -1.0360    6.4930 ha        1 D94      0.137000
     61 H10         0.8110   -0.6720    5.5840 ha        1 D94      0.152000
     62 H14        -5.6790   -2.3280    4.4900 ha        1 D94      0.148000
     63 H15        -3.8780   -1.6280    6.1110 ha        1 D94      0.140000
     64 H17        -4.8020   -1.3920    0.2590 ha        1 D94      0.141000
     65 H18        -6.6590   -2.0830   -1.2480 ha        1 D94      0.133500
     66 H19        -8.2880   -3.8270   -0.5150 ha        1 D94      0.132000
     67 H20        -8.0510   -4.8840    1.7330 ha        1 D94      0.133500
     68 H21        -6.2010   -4.1970    3.2490 ha        1 D94      0.141000
@<TRIPOS>BOND
     1    1    2 1   
     2    1   38 1   
     3    1   39 1   
     4    2    3 1   
     5    2    7 2   
     6    3    4 1   
     7    3   21 2   
     8    4    5 1   
     9    4    8 1   
    10    5    6 2   
    11    5   40 1   
    12    6    7 1   
    13    6   41 1   
    14    8    9 1   
    15    8   20 2   
    16    9   10 1   
    17    9   19 1   
    18    9   42 1   
    19   10   11 1   
    20   10   43 1   
    21   10   44 1   
    22   11   12 1   
    23   11   19 1   
    24   11   45 1   
    25   12   13 1   
    26   12   18 1   
    27   13   14 1   
    28   13   46 1   
    29   13   47 1   
    30   14   15 1   
    31   14   48 1   
    32   14   49 1   
    33   15   16 1   
    34   15   17 1   
    35   16   50 1   
    36   16   51 1   
    37   16   52 1   
    38   17   18 1   
    39   17   53 1   
    40   17   54 1   
    41   18   55 1   
    42   18   56 1   
    43   19   57 1   
    44   19   58 1   
    45   20   21 1   
    46   21   22 1   
    47   22   23 ar  
    48   22   27 ar  
    49   23   24 ar  
    50   23   59 1   
    51   24   25 ar  
    52   24   28 ar  
    53   25   26 ar  
    54   25   31 ar  
    55   26   27 ar  
    56   26   60 1   
    57   27   61 1   
    58   28   29 ar  
    59   29   30 ar  
    60   29   32 1   
    61   30   31 ar  
    62   30   62 1   
    63   31   63 1   
    64   32   33 ar  
    65   32   37 ar  
    66   33   34 ar  
    67   33   64 1   
    68   34   35 ar  
    69   34   65 1   
    70   35   36 ar  
    71   35   66 1   
    72   36   37 ar  
    73   36   67 1   
    74   37   68 1   
@<TRIPOS>SUBSTRUCTURE
     1 D94         1 TEMP              0 ****  ****    0 ROOT
