@<TRIPOS>MOLECULE
D98
   48    51     1     0     0
SMALL
bcc


@<TRIPOS>ATOM
      1 C1         -0.0330    0.1370   -0.0300 ca        1 D98     -0.183000
      2 C2          1.3700    0.1530   -0.0340 ca        1 D98      0.158100
      3 C3          2.1060   -0.0610    1.1590 cp        1 D98     -0.004000
      4 C4          1.3900   -0.2990    2.3380 ca        1 D98     -0.082000
      5 C5         -0.0050   -0.3230    2.3530 ca        1 D98     -0.133000
      6 C6         -0.7110   -0.1060    1.1680 ca        1 D98     -0.218900
      7 C7          3.5680   -0.0430    1.1880 cp        1 D98     -0.037000
      8 C8          4.2390    0.5680    2.2580 ca        1 D98     -0.101000
      9 C9          5.6300    0.5760    2.3100 ca        1 D98     -0.093000
     10 C10         6.3730   -0.0360    1.2900 ca        1 D98     -0.115900
     11 C11         5.7090   -0.6390    0.2140 ca        1 D98     -0.093000
     12 C12         4.3170   -0.6400    0.1640 ca        1 D98     -0.101000
     13 C13         7.8370   -0.0200    1.3590 cc        1 D98      0.498400
     14 N14         8.6250   -1.0790    0.8310 na        1 D98     -0.263300
     15 C15         9.9520   -0.7530    1.0770 ca        1 D98     -0.032200
     16 C16         9.9240    0.5360    1.7610 ca        1 D98      0.065400
     17 N17         8.5910    0.9560    1.9150 nd        1 D98     -0.540100
     18 C18        11.1240    1.1390    2.1510 ca        1 D98     -0.014000
     19 C19        11.1640   -1.4030    0.8000 ca        1 D98     -0.107000
     20 C20        12.3330   -0.7780    1.1980 ca        1 D98     -0.101000
     21 C21        12.3120    0.4700    1.8610 ca        1 D98     -0.291900
     22 C22        13.5880    1.0610    2.3110 ce        1 D98      0.595800
     23 N24        14.4160    1.5450    1.1450 n4        1 D98     -0.825600
     24 N23        14.0900    1.2280    3.4720 n2        1 D98     -0.708100
     25 C25        -2.1870   -0.1870    1.1550 ce        1 D98      0.585800
     26 N26        -2.9860   -1.0210    0.6140 n2        1 D98     -0.700100
     27 N27        -2.8170    0.9410    1.9310 n4        1 D98     -0.823600
     28 OAE         2.0810    0.3710   -1.1840 oh        1 D98     -0.471100
     29 H1         -0.5860    0.3060   -0.9670 ha        1 D98      0.155000
     30 HAE         1.4620    0.5700   -1.9050 ho        1 D98      0.440000
     31 H4          1.9420   -0.4850    3.2760 ha        1 D98      0.169000
     32 H5         -0.5300   -0.5450    3.2950 ha        1 D98      0.145000
     33 H8          3.6660    1.0580    3.0610 ha        1 D98      0.152000
     34 H12         3.8040   -1.1040   -0.6940 ha        1 D98      0.152000
     35 H9          6.1430    1.0680    3.1530 ha        1 D98      0.155000
     36 H11         6.2720   -1.0990   -0.6120 ha        1 D98      0.155000
     37 H14         8.2860   -1.9080    0.4140 hn        1 D98      0.326700
     38 H19        11.1870   -2.3790    0.2930 ha        1 D98      0.167000
     39 H18        11.1140    2.1080    2.6750 ha        1 D98      0.167000
     40 H20        13.2950   -1.2820    1.0160 ha        1 D98      0.141000
     41 H23        13.5740    0.9110    4.2680 hn        1 D98      0.491400
     42 H241       15.3480    1.8690    1.4370 hn        1 D98      0.470133
     43 H242       14.5130    0.7710    0.4800 hn        1 D98      0.470133
     44 H26        -2.6080   -1.7890    0.0980 hn        1 D98      0.493400
     45 H271       -2.3940    0.9620    2.8650 hn        1 D98      0.472800
     46 H272       -3.8370    0.8300    2.0170 hn        1 D98      0.472800
     47 H243       13.9140    2.3160    0.6940 hn        1 D98      0.470133
     48 H273       -2.6120    1.8220    1.4480 hn        1 D98      0.472800
@<TRIPOS>BOND
     1    1    2 ar  
     2    1    6 ar  
     3    1   29 1   
     4    2    3 ar  
     5    2   28 1   
     6    3    4 ar  
     7    3    7 1   
     8    4    5 ar  
     9    4   31 1   
    10    5    6 ar  
    11    5   32 1   
    12    6   25 1   
    13    7    8 ar  
    14    7   12 ar  
    15    8    9 ar  
    16    8   33 1   
    17    9   10 ar  
    18    9   35 1   
    19   10   11 ar  
    20   10   13 1   
    21   11   12 ar  
    22   11   36 1   
    23   12   34 1   
    24   13   14 1   
    25   13   17 2   
    26   14   15 1   
    27   14   37 1   
    28   15   16 ar  
    29   15   19 ar  
    30   16   17 1   
    31   16   18 ar  
    32   18   21 ar  
    33   18   39 1   
    34   19   20 ar  
    35   19   38 1   
    36   20   21 ar  
    37   20   40 1   
    38   21   22 1   
    39   22   23 1   
    40   22   24 2   
    41   23   42 1   
    42   23   43 1   
    43   23   47 1   
    44   24   41 1   
    45   25   26 2   
    46   25   27 1   
    47   26   44 1   
    48   27   45 1   
    49   27   46 1   
    50   27   48 1   
    51   28   30 1   
@<TRIPOS>SUBSTRUCTURE
     1 D98         1 TEMP              0 ****  ****    0 ROOT
