@<TRIPOS>MOLECULE
D98
   46    49     1     0     0
SMALL
bcc


@<TRIPOS>ATOM
      1 C1          5.8990   -0.8170    0.3510 ca        1 D98     -0.119000
      2 C2          4.4970   -0.9380    0.3840 ca        1 D98      0.133100
      3 C3          3.6660    0.1490    0.0490 cp        1 D98     -0.116000
      4 C4          4.2720    1.3650   -0.3010 ca        1 D98     -0.088000
      5 C5          5.6550    1.4930   -0.3450 ca        1 D98     -0.145000
      6 C6          6.4670    0.3970   -0.0250 ca        1 D98     -0.103900
      7 C7          2.2080    0.0490    0.0580 cp        1 D98     -0.030000
      8 C8          1.4410    1.0170    0.7220 ca        1 D98     -0.130500
      9 C9          0.0510    0.9420    0.7190 ca        1 D98     -0.099000
     10 C10        -0.5950   -0.1040    0.0460 ca        1 D98     -0.110900
     11 C11         0.1660   -1.0670   -0.6290 ca        1 D98     -0.099000
     12 C12         1.5560   -0.9910   -0.6200 ca        1 D98     -0.130500
     13 C13        -2.0580   -0.1690    0.0480 cc        1 D98      0.462400
     14 N14        -2.7530   -1.4050    0.0020 na        1 D98     -0.278300
     15 C15        -4.1120   -1.1000    0.0340 ca        1 D98     -0.060200
     16 C16        -4.1940    0.3510    0.0820 ca        1 D98      0.056400
     17 N17        -2.8960    0.8930    0.0880 nd        1 D98     -0.549100
     18 C18        -5.4510    0.9720    0.1160 ca        1 D98     -0.024000
     19 C19        -5.2660   -1.8950    0.0220 ca        1 D98     -0.143000
     20 C20        -6.4900   -1.2460    0.0490 ca        1 D98     -0.090000
     21 C21        -6.5800    0.1620    0.0870 ca        1 D98     -0.167900
     22 C22        -7.9360    0.8010    0.1150 ce        1 D98      0.650800
     23 N24        -8.8120    0.3410   -0.8960 nh        1 D98     -0.956800
     24 N23        -8.2050    1.6420    1.0670 n2        1 D98     -0.823100
     25 C25         7.9600    0.5300   -0.0730 ce        1 D98      0.647800
     26 N26         8.6440    0.1850    0.9740 n2        1 D98     -0.820100
     27 N27         8.4490    1.1030   -1.2680 nh        1 D98     -0.957800
     28 OAE         4.0240   -2.1770    0.7500 oh        1 D98     -0.499100
     29 H1          6.5200   -1.6800    0.6350 ha        1 D98      0.167000
     30 HAE         3.0780   -2.0960    0.9440 ho        1 D98      0.427000
     31 H4          3.6340    2.2280   -0.5500 ha        1 D98      0.142000
     32 H5          6.1090    2.4580   -0.6170 ha        1 D98      0.149000
     33 H8          1.9440    1.8410    1.2510 ha        1 D98      0.146000
     34 H12         2.1500   -1.7430   -1.1640 ha        1 D98      0.146000
     35 H9         -0.5420    1.7100    1.2430 ha        1 D98      0.148000
     36 H11        -0.3220   -1.8790   -1.1890 ha        1 D98      0.148000
     37 H14        -2.3490   -2.3020    0.0350 hn        1 D98      0.306700
     38 H19        -5.2040   -2.9900   -0.0020 ha        1 D98      0.139000
     39 H18        -5.5300    2.0680    0.1720 ha        1 D98      0.164000
     40 H20        -7.4160   -1.8440    0.0540 ha        1 D98      0.146000
     41 H23        -9.1150    2.0530    1.0540 hn        1 D98      0.381400
     42 H241       -8.3680   -0.0760   -1.6810 hn        1 D98      0.396800
     43 H242       -9.5720    0.9370   -1.1280 hn        1 D98      0.396800
     44 H26         9.6350    0.2860    0.9140 hn        1 D98      0.384400
     45 H271        7.8320    1.0620   -2.0460 hn        1 D98      0.399800
     46 H272        9.4010    0.9260   -1.4910 hn        1 D98      0.399800
@<TRIPOS>BOND
     1    1    2 ar  
     2    1    6 ar  
     3    1   29 1   
     4    2    3 ar  
     5    2   28 1   
     6    3    4 ar  
     7    3    7 1   
     8    4    5 ar  
     9    4   31 1   
    10    5    6 ar  
    11    5   32 1   
    12    6   25 1   
    13    7    8 ar  
    14    7   12 ar  
    15    8    9 ar  
    16    8   33 1   
    17    9   10 ar  
    18    9   35 1   
    19   10   11 ar  
    20   10   13 1   
    21   11   12 ar  
    22   11   36 1   
    23   12   34 1   
    24   13   14 1   
    25   13   17 2   
    26   14   15 1   
    27   14   37 1   
    28   15   16 ar  
    29   15   19 ar  
    30   16   17 1   
    31   16   18 ar  
    32   18   21 ar  
    33   18   39 1   
    34   19   20 ar  
    35   19   38 1   
    36   20   21 ar  
    37   20   40 1   
    38   21   22 1   
    39   22   23 1   
    40   22   24 2   
    41   23   42 1   
    42   23   43 1   
    43   24   41 1   
    44   25   26 2   
    45   25   27 1   
    46   26   44 1   
    47   27   45 1   
    48   27   46 1   
    49   28   30 1   
@<TRIPOS>SUBSTRUCTURE
     1 D98         1 TEMP              0 ****  ****    0 ROOT
