@<TRIPOS>MOLECULE
D98
   48    51     1     0     0
SMALL
bcc


@<TRIPOS>ATOM
      1 C1         -0.0320    0.1240   -0.0350 ca        1 D98     -0.183000
      2 C2          1.3710    0.1390   -0.0390 ca        1 D98      0.158100
      3 C3          2.1060   -0.0580    1.1580 cp        1 D98     -0.004000
      4 C4          1.3880   -0.2780    2.3400 ca        1 D98     -0.082000
      5 C5         -0.0060   -0.2990    2.3540 ca        1 D98     -0.133000
      6 C6         -0.7110   -0.1000    1.1660 ca        1 D98     -0.218900
      7 C7          3.5670   -0.0420    1.1880 cp        1 D98     -0.037000
      8 C8          4.2380    0.5840    2.2500 ca        1 D98     -0.101000
      9 C9          5.6300    0.5910    2.3030 ca        1 D98     -0.093000
     10 C10         6.3730   -0.0370    1.2940 ca        1 D98     -0.115900
     11 C11         5.7090   -0.6550    0.2260 ca        1 D98     -0.093000
     12 C12         4.3170   -0.6550    0.1740 ca        1 D98     -0.101000
     13 C13         7.8370   -0.0220    1.3640 cc        1 D98      0.498400
     14 N14         8.6230   -1.0900    0.8520 na        1 D98     -0.263300
     15 C15         9.9510   -0.7620    1.0950 ca        1 D98     -0.032200
     16 C16         9.9250    0.5370    1.7590 ca        1 D98      0.065400
     17 N17         8.5920    0.9620    1.9060 nd        1 D98     -0.540100
     18 C18        11.1250    1.1440    2.1410 ca        1 D98     -0.014000
     19 C19        11.1620   -1.4180    0.8290 ca        1 D98     -0.107000
     20 C20        12.3320   -0.7880    1.2180 ca        1 D98     -0.101000
     21 C21        12.3120    0.4690    1.8620 ca        1 D98     -0.291900
     22 C22        13.5890    1.0640    2.3050 ce        1 D98      0.595800
     23 N24        14.4190    1.5300    1.1330 nz        1 D98     -0.825600
     24 N23        14.0890    1.2490    3.4640 n2        1 D98     -0.708100
     25 C25        -2.1880   -0.1780    1.1510 ce        1 D98      0.585800
     26 N26        -2.9870   -1.0200    0.6220 n2        1 D98     -0.700100
     27 N27        -2.8170    0.9620    1.9110 nz        1 D98     -0.823600
     28 OAE         2.0840    0.3380   -1.1910 oh        1 D98     -0.471100
     29 H1         -0.5830    0.2810   -0.9750 ha        1 D98      0.155000
     30 HAE         1.4660    0.5280   -1.9160 ho        1 D98      0.440000
     31 H4          1.9400   -0.4500    3.2810 ha        1 D98      0.169000
     32 H5         -0.5330   -0.5070    3.2990 ha        1 D98      0.145000
     33 H8          3.6660    1.0870    3.0450 ha        1 D98      0.152000
     34 H12         3.8040   -1.1310   -0.6770 ha        1 D98      0.152000
     35 H9          6.1420    1.0950    3.1390 ha        1 D98      0.155000
     36 H11         6.2720   -1.1290   -0.5930 ha        1 D98      0.155000
     37 H14         8.2840   -1.9240    0.4470 hn        1 D98      0.326700
     38 H19        11.1840   -2.4020    0.3360 ha        1 D98      0.167000
     39 H18        11.1150    2.1200    2.6510 ha        1 D98      0.167000
     40 H20        13.2940   -1.2970    1.0440 ha        1 D98      0.141000
     41 H23        13.5720    0.9440    4.2640 hn        1 D98      0.491400
     42 H241       15.3500    1.8570    1.4210 hn        1 D98      0.470133
     43 H242       14.5140    0.7460    0.4800 hn        1 D98      0.470133
     44 H26        -2.6090   -1.7960    0.1180 hn        1 D98      0.493400
     45 H271       -2.3940    0.9950    2.8450 hn        1 D98      0.472800
     46 H272       -3.8370    0.8530    1.9980 hn        1 D98      0.472800
     47 H243       13.9180    2.2950    0.6700 hn        1 D98      0.470133
     48 H273       -2.6100    1.8350    1.4150 hn        1 D98      0.472800
@<TRIPOS>BOND
     1    1    2 ar  
     2    1    6 ar  
     3    1   29 1   
     4    2    3 ar  
     5    2   28 1   
     6    3    4 ar  
     7    3    7 1   
     8    4    5 ar  
     9    4   31 1   
    10    5    6 ar  
    11    5   32 1   
    12    6   25 1   
    13    7    8 ar  
    14    7   12 ar  
    15    8    9 ar  
    16    8   33 1   
    17    9   10 ar  
    18    9   35 1   
    19   10   11 ar  
    20   10   13 1   
    21   11   12 ar  
    22   11   36 1   
    23   12   34 1   
    24   13   14 1   
    25   13   17 2   
    26   14   15 1   
    27   14   37 1   
    28   15   16 ar  
    29   15   19 ar  
    30   16   17 1   
    31   16   18 ar  
    32   18   21 ar  
    33   18   39 1   
    34   19   20 ar  
    35   19   38 1   
    36   20   21 ar  
    37   20   40 1   
    38   21   22 1   
    39   22   23 1   
    40   22   24 2   
    41   23   42 1   
    42   23   43 1   
    43   23   47 1   
    44   24   41 1   
    45   25   26 2   
    46   25   27 1   
    47   26   44 1   
    48   27   45 1   
    49   27   46 1   
    50   27   48 1   
    51   28   30 1   
@<TRIPOS>SUBSTRUCTURE
     1 D98         1 TEMP              0 ****  ****    0 ROOT
