@<TRIPOS>MOLECULE
D98
   46    37     1     0     0
SMALL
bcc


@<TRIPOS>ATOM
      1 C1         -4.7790    0.6010   -2.5040 c1        1 D98     -0.136000
      2 C2         -3.3890    0.6470   -2.5540 c1        1 D98      0.088000
      3 C3         -2.6450    0.4850   -1.3900 c1        1 D98     -0.055000
      4 C4         -3.2920    0.2770   -0.1750 c1        1 D98     -0.119500
      5 C5         -4.6810    0.2310   -0.1240 c1        1 D98     -0.119500
      6 C6         -5.4250    0.3930   -1.2890 c1        1 D98     -0.099000
      7 C7         -1.1190    0.4600   -1.4570 c2        1 D98     -0.013000
      8 C8         -0.3930    1.6120   -1.1760 c1        1 D98     -0.127000
      9 C9          0.9970    1.5720   -1.1610 c1        1 D98     -0.087000
     10 C10         1.6620    0.3790   -1.4270 c1        1 D98     -0.032000
     11 C11         0.9360   -0.7730   -1.7070 c1        1 D98     -0.120000
     12 C12        -0.4550   -0.7330   -1.7220 c2        1 D98     -0.103000
     13 C13         3.1810    0.3070   -1.2860 c2        1 D98      0.063000
     14 N14         4.4760   -0.1110   -1.1900 n2        1 D98     -0.234000
     15 C15         4.7200   -0.4280    0.1090 c1        1 D98     -0.016000
     16 C16         3.5730   -0.2060    0.8200 c1        1 D98     -0.075000
     17 N17         2.6250    0.2470   -0.0430 n1        1 D98     -0.130000
     18 C18         3.5390   -0.4710    2.2090 c1        1 D98     -0.053000
     19 C19         5.8710   -0.9220    0.7620 c1        1 D98     -0.134000
     20 C20         5.8380   -1.1830    2.1280 c1        1 D98     -0.136000
     21 C21         4.6720   -0.9570    2.8510 c1        1 D98     -0.099000
     22 C22         4.4110   -1.1680    4.3460 c2        1 D98      0.115500
     23 N24         4.6850   -0.1150    5.2760 n3        1 D98     -0.332000
     24 N23         3.9360   -2.3170    4.7750 n1        1 D98     -0.301000
     25 C25        -6.9510    0.3440   -1.2330 c2        1 D98      0.115500
     26 N26        -7.5740   -0.8100   -1.3120 n1        1 D98     -0.301000
     27 N27        -7.7010    1.5540   -1.0950 n3        1 D98     -0.332000
     28 OAE        -2.7350    0.9070   -3.7800 oh        1 D98     -0.249000
     29 H1         -5.3040    0.7150   -3.3250 ha        1 D98      0.148500
     30 HAE        -3.3240    0.8600   -4.4470 ho        1 D98      0.223000
     31 H4         -2.7670    0.1620    0.6470 ha        1 D98      0.144500
     32 H5         -5.1370    0.0850    0.7330 ha        1 D98      0.144500
     33 H8         -0.8610    2.4530   -0.9890 ha        1 D98      0.139000
     34 H12        -0.9660   -1.5450   -1.9200 ha        1 D98      0.152000
     35 H9          1.5090    2.3850   -0.9640 ha        1 D98      0.157000
     36 H11         1.4040   -1.6140   -1.8940 ha        1 D98      0.132000
     37 H14         5.0820   -0.1510   -1.8780 DU        1 D98      0.187333
     38 H19         6.6940   -1.0820    0.2520 ha        1 D98      0.140000
     39 H18         2.7170   -0.3120    2.7180 ha        1 D98      0.149000
     40 H20         6.6350   -1.5250    2.5800 ha        1 D98      0.148500
     41 H23         3.7610   -2.9900    4.1800 DU        1 D98      0.187333
     42 H241        4.4640   -0.2150    6.1610 hn        1 D98      0.194750
     43 H242        5.0850    0.6580    4.9880 hn        1 D98      0.194750
     44 H26        -7.0930   -1.5850   -1.4000 DU        1 D98      0.187333
     45 H271       -7.2660    2.3540   -0.9940 hn        1 D98      0.194750
     46 H272       -8.6180    1.5280   -1.1030 hn        1 D98      0.194750
@<TRIPOS>BOND
     1    1    6 1   
     2    1   29 1   
     3    2    3 1   
     4    2   28 1   
     5    3    7 1   
     6    4    5 1   
     7    4   31 1   
     8    5   32 1   
     9    6   25 1   
    10    7    8 1   
    11    7   12 1   
    12    8   33 1   
    13    9   10 1   
    14    9   35 1   
    15   10   13 1   
    16   11   12 1   
    17   11   36 1   
    18   12   34 1   
    19   13   14 1   
    20   13   17 1   
    21   14   15 1   
    22   15   19 1   
    23   16   18 1   
    24   18   39 1   
    25   19   38 1   
    26   20   21 1   
    27   20   40 1   
    28   21   22 1   
    29   22   23 1   
    30   22   24 1   
    31   23   42 1   
    32   23   43 1   
    33   25   26 1   
    34   25   27 1   
    35   27   45 1   
    36   27   46 1   
    37   28   30 1   
@<TRIPOS>SUBSTRUCTURE
     1 D98         1 TEMP              0 ****  ****    0 ROOT
