@<TRIPOS>MOLECULE
D98
   48    51     1     0     0
SMALL
bcc


@<TRIPOS>ATOM
      1 C1         -0.0320    0.1190   -0.0330 ca        1 D98     -0.183000
      2 C2          1.3700    0.1370   -0.0370 ca        1 D98      0.158100
      3 C3          2.1060   -0.0650    1.1590 cp        1 D98     -0.004000
      4 C4          1.3900   -0.2920    2.3410 ca        1 D98     -0.082000
      5 C5         -0.0050   -0.3170    2.3550 ca        1 D98     -0.133000
      6 C6         -0.7110   -0.1130    1.1670 ca        1 D98     -0.218900
      7 C7          3.5680   -0.0460    1.1880 cp        1 D98     -0.037000
      8 C8          4.2380    0.5770    2.2530 ca        1 D98     -0.101000
      9 C9          5.6290    0.5860    2.3060 ca        1 D98     -0.093000
     10 C10         6.3730   -0.0350    1.2930 ca        1 D98     -0.115900
     11 C11         5.7100   -0.6500    0.2230 ca        1 D98     -0.093000
     12 C12         4.3190   -0.6530    0.1710 ca        1 D98     -0.101000
     13 C13         7.8370   -0.0180    1.3630 cc        1 D98      0.498400
     14 N14         8.6260   -1.0820    0.8470 na        1 D98     -0.263300
     15 C15         9.9530   -0.7520    1.0900 ca        1 D98     -0.032200
     16 C16         9.9240    0.5450    1.7580 ca        1 D98      0.065400
     17 N17         8.5910    0.9660    1.9070 nd        1 D98     -0.540100
     18 C18        11.1230    1.1530    2.1420 ca        1 D98     -0.014000
     19 C19        11.1650   -1.4050    0.8220 ca        1 D98     -0.107000
     20 C20        12.3340   -0.7740    1.2120 ca        1 D98     -0.101000
     21 C21        12.3120    0.4810    1.8600 ca        1 D98     -0.291900
     22 C22        13.5870    1.0790    2.3040 ce        1 D98      0.595800
     23 N24        14.4160    1.5480    1.1330 n4        1 D98     -0.825600
     24 N23        14.0880    1.2620    3.4630 n2        1 D98     -0.708100
     25 C25        -2.1870   -0.1950    1.1530 ce        1 D98      0.585800
     26 N26        -2.9850   -1.0360    0.6200 n2        1 D98     -0.700100
     27 N27        -2.8190    0.9400    1.9190 n4        1 D98     -0.823600
     28 OAE         2.0830    0.3430   -1.1880 oh        1 D98     -0.471100
     29 H1         -0.5840    0.2790   -0.9720 ha        1 D98      0.155000
     30 HAE         1.4640    0.5350   -1.9110 ho        1 D98      0.440000
     31 H4          1.9420   -0.4680    3.2800 ha        1 D98      0.169000
     32 H5         -0.5310   -0.5310    3.2980 ha        1 D98      0.145000
     33 H8          3.6650    1.0740    3.0510 ha        1 D98      0.152000
     34 H12         3.8060   -1.1260   -0.6820 ha        1 D98      0.152000
     35 H9          6.1410    1.0880    3.1440 ha        1 D98      0.155000
     36 H11         6.2740   -1.1190   -0.5980 ha        1 D98      0.155000
     37 H14         8.2880   -1.9160    0.4400 hn        1 D98      0.326700
     38 H19        11.1890   -2.3870    0.3260 ha        1 D98      0.167000
     39 H18        11.1110    2.1280    2.6540 ha        1 D98      0.167000
     40 H20        13.2960   -1.2800    1.0370 ha        1 D98      0.141000
     41 H23        13.5710    0.9550    4.2620 hn        1 D98      0.491400
     42 H241       14.5140    0.7650    0.4780 hn        1 D98      0.470133
     43 H242       13.9130    2.3130    0.6710 hn        1 D98      0.470133
     44 H26        -2.6050   -1.8080    0.1120 hn        1 D98      0.493400
     45 H271       -2.6130    1.8160    1.4270 hn        1 D98      0.472800
     46 H272       -3.8380    0.8280    2.0040 hn        1 D98      0.472800
     47 H243       15.3470    1.8770    1.4210 hn        1 D98      0.470133
     48 H273       -2.3960    0.9690    2.8530 hn        1 D98      0.472800
@<TRIPOS>BOND
     1    1    2 ar  
     2    1    6 ar  
     3    1   29 1   
     4    2    3 ar  
     5    2   28 1   
     6    3    4 ar  
     7    3    7 1   
     8    4    5 ar  
     9    4   31 1   
    10    5    6 ar  
    11    5   32 1   
    12    6   25 1   
    13    7    8 ar  
    14    7   12 ar  
    15    8    9 ar  
    16    8   33 1   
    17    9   10 ar  
    18    9   35 1   
    19   10   11 ar  
    20   10   13 1   
    21   11   12 ar  
    22   11   36 1   
    23   12   34 1   
    24   13   14 1   
    25   13   17 2   
    26   14   15 1   
    27   14   37 1   
    28   15   16 ar  
    29   15   19 ar  
    30   16   17 1   
    31   16   18 ar  
    32   18   21 ar  
    33   18   39 1   
    34   19   20 ar  
    35   19   38 1   
    36   20   21 ar  
    37   20   40 1   
    38   21   22 1   
    39   22   23 1   
    40   22   24 2   
    41   23   42 1   
    42   23   43 1   
    43   23   47 1   
    44   24   41 1   
    45   25   26 2   
    46   25   27 1   
    47   26   44 1   
    48   27   45 1   
    49   27   46 1   
    50   27   48 1   
    51   28   30 1   
@<TRIPOS>SUBSTRUCTURE
     1 D98         1 TEMP              0 ****  ****    0 ROOT
