@<TRIPOS>MOLECULE
D99
   71    73     1     0     0
SMALL
bcc


@<TRIPOS>ATOM
      1 C1          0.2900    0.0580   -0.2100 ca        1 D99     -0.011400
      2 N1          0.5880   -0.2810   -1.6160 n4        1 D99     -0.455600
      3 O1         -2.7760    0.5520   -1.0460 oh        1 D99     -0.630800
      4 CL1        -1.5190   -3.3850    0.6740 cl        1 D99     -0.108400
      5 C2          1.3650    0.5300    0.5750 ca        1 D99     -0.110000
      6 N2         -1.4660   -4.6870   -4.7950 n         1 D99     -0.417800
      7 O2          1.2650   -2.3960   -0.9300 o         1 D99     -0.453100
      8 CL2        -0.3730    1.2930    4.0540 cl        1 D99     -0.054400
      9 C3          1.1660    0.9040    1.8950 ca        1 D99     -0.116000
     10 O3          0.8140   -4.8640   -5.1290 o         1 D99     -0.604100
     11 C4         -0.1170    0.8180    2.4500 ca        1 D99      0.045400
     12 O4         -4.5310   -1.0900   -4.5480 o         1 D99     -0.847300
     13 C5         -1.1820    0.3450    1.6830 ca        1 D99     -0.098000
     14 O5         -2.7750   -1.0650   -3.1790 o         1 D99     -0.847300
     15 C6         -0.9970   -0.0600    0.3540 ca        1 D99     -0.005300
     16 C7         -2.2000   -0.5770   -0.4090 c3        1 D99      0.237700
     17 C8         -3.1960   -1.2610    0.4930 ca        1 D99     -0.113300
     18 C9         -2.9700   -2.5500    0.9980 ca        1 D99      0.025400
     19 C10        -3.9330   -3.1890    1.7870 ca        1 D99     -0.126000
     20 C11        -5.1330   -2.5420    2.0740 ca        1 D99     -0.114000
     21 C12        -5.3700   -1.2610    1.5760 ca        1 D99     -0.127000
     22 C13        -4.4090   -0.6280    0.7920 ca        1 D99     -0.097000
     23 C14         0.6460   -1.8020   -1.8050 c         1 D99      0.569100
     24 C15         0.0270   -2.3950   -3.0270 c3        1 D99     -0.195400
     25 C16         0.1800   -3.9040   -3.0390 c3        1 D99     -0.149400
     26 C17        -0.1380   -4.4820   -4.4170 c         1 D99      0.639100
     27 C18        -2.4990   -3.8310   -4.2340 c3        1 D99      0.065000
     28 C19        -2.6140   -2.5240   -5.0360 c3        1 D99     -0.200700
     29 C20        -3.1330   -2.8810   -6.4120 c3        1 D99     -0.063400
     30 C21        -2.1680   -3.8510   -7.0770 c3        1 D99     -0.107400
     31 C22        -1.7560   -5.0280   -6.1830 c3        1 D99      0.065000
     32 C23        -3.3960   -1.4950   -4.2220 c         1 D99      0.925600
     33 C24        -0.2540    0.5110   -2.5720 c3        1 D99      0.066800
     34 C25         0.5480    1.3480   -3.5860 c3        1 D99     -0.072000
     35 C26         1.3260    0.4690   -4.5480 c3        1 D99     -0.101100
     36 C27        -0.4890    2.1480   -4.3730 c3        1 D99     -0.101100
     37 C28         1.4920    2.3130   -2.8860 c3        1 D99     -0.101100
     38 HO1        -3.3080    0.2180   -1.7980 ho        1 D99      0.485000
     39 H2          2.3820    0.6070    0.1550 ha        1 D99      0.144000
     40 H3          2.0140    1.2660    2.4980 ha        1 D99      0.164000
     41 H5         -2.1960    0.2840    2.1190 ha        1 D99      0.181000
     42 H7         -1.8730   -1.3300   -1.1880 h1        1 D99      0.082700
     43 H10        -3.7460   -4.2020    2.1750 ha        1 D99      0.149000
     44 H11        -5.8930   -3.0460    2.6890 ha        1 D99      0.140000
     45 H12        -6.3210   -0.7510    1.7940 ha        1 D99      0.141000
     46 H13        -4.5990    0.3780    0.3820 ha        1 D99      0.161000
     47 H15         0.5120   -1.9460   -3.9370 hc        1 D99      0.146700
     48 H15A       -1.0810   -2.1110   -3.0540 hc        1 D99      0.146700
     49 H16         1.2410   -4.1870   -2.8010 hc        1 D99      0.084700
     50 H16A       -0.4750   -4.3680   -2.2560 hc        1 D99      0.084700
     51 H18        -3.4750   -4.3920   -4.2990 h1        1 D99      0.067200
     52 H18A       -2.3130   -3.6270   -3.1460 h1        1 D99      0.067200
     53 H19        -1.5860   -2.0720   -5.1680 hc        1 D99      0.025700
     54 H20        -3.2370   -1.9560   -7.0340 hc        1 D99      0.056700
     55 H20A       -4.1540   -3.3350   -6.3250 hc        1 D99      0.056700
     56 H21        -2.6370   -4.2730   -8.0030 hc        1 D99      0.042700
     57 H21A       -1.2470   -3.2930   -7.3900 hc        1 D99      0.042700
     58 H22        -0.8560   -5.5330   -6.6330 h1        1 D99      0.064700
     59 H22A       -2.6020   -5.7720   -6.1500 h1        1 D99      0.064700
     60 H24        -0.9760   -0.1700   -3.1260 hx        1 D99      0.156700
     61 H24A       -0.9040    1.2120   -1.9640 hx        1 D99      0.156700
     62 H26         1.8890    1.1080   -5.2720 hc        1 D99      0.048478
     63 H26A        0.6290   -0.1840   -5.1290 hc        1 D99      0.048478
     64 H26B        2.0660   -0.1730   -4.0110 hc        1 D99      0.048478
     65 H27        -1.0090    2.8740   -3.7030 hc        1 D99      0.048478
     66 H27A       -1.2520    1.4660   -4.8220 hc        1 D99      0.048478
     67 H27B        0.0160    2.7140   -5.1920 hc        1 D99      0.048478
     68 H28         0.9670    2.8440   -2.0560 hc        1 D99      0.048478
     69 H28A        1.8560    3.0780   -3.6160 hc        1 D99      0.048478
     70 H28B        2.3880    1.7900   -2.4740 hc        1 D99      0.048478
     71 H111        1.5650    0.0170   -1.7790 hn        1 D99      0.438800
@<TRIPOS>BOND
     1    1    2 1   
     2    1    5 ar  
     3    1   15 ar  
     4    2   23 1   
     5    2   33 1   
     6    2   71 1   
     7    3   16 1   
     8    3   38 1   
     9    4   18 1   
    10    5    9 ar  
    11    5   39 1   
    12    6   26 1   
    13    6   27 1   
    14    6   31 1   
    15    7   23 2   
    16    8   11 1   
    17    9   11 ar  
    18    9   40 1   
    19   10   26 2   
    20   11   13 ar  
    21   12   32 1   
    22   13   15 ar  
    23   13   41 1   
    24   14   32 1   
    25   15   16 1   
    26   16   17 1   
    27   16   42 1   
    28   17   18 ar  
    29   17   22 ar  
    30   18   19 ar  
    31   19   20 ar  
    32   19   43 1   
    33   20   21 ar  
    34   20   44 1   
    35   21   22 ar  
    36   21   45 1   
    37   22   46 1   
    38   23   24 1   
    39   24   25 1   
    40   24   47 1   
    41   24   48 1   
    42   25   26 1   
    43   25   49 1   
    44   25   50 1   
    45   27   28 1   
    46   27   51 1   
    47   27   52 1   
    48   28   29 1   
    49   28   32 1   
    50   28   53 1   
    51   29   30 1   
    52   29   54 1   
    53   29   55 1   
    54   30   31 1   
    55   30   56 1   
    56   30   57 1   
    57   31   58 1   
    58   31   59 1   
    59   33   34 1   
    60   33   60 1   
    61   33   61 1   
    62   34   35 1   
    63   34   36 1   
    64   34   37 1   
    65   35   62 1   
    66   35   63 1   
    67   35   64 1   
    68   36   65 1   
    69   36   66 1   
    70   36   67 1   
    71   37   68 1   
    72   37   69 1   
    73   37   70 1   
@<TRIPOS>SUBSTRUCTURE
     1 D99         1 TEMP              0 ****  ****    0 ROOT
