@<TRIPOS>MOLECULE
D99
   70    68     1     0     0
SMALL
bcc


@<TRIPOS>ATOM
      1 C1          0.9980    1.4420    2.2640 c1        1 D99      0.097000
      2 N1          0.2490    1.2710    1.0180 n2        1 D99     -0.306000
      3 O1         -1.3630   -0.0650    2.5320 oh        1 D99     -0.310000
      4 CL1         1.1570   -0.8100    4.7570 cl        1 D99      0.008000
      5 C2          2.3390    1.8010    2.2260 c1        1 D99     -0.114000
      6 N2         -0.0900   -1.9870   -4.3160 n         1 D99     -0.295000
      7 O2          1.0470   -0.8620    0.6440 o         1 D99     -0.366000
      8 CL2         3.6100    1.8580    5.8910 cl        1 D99     -0.029000
      9 C3          3.0450    1.9910    3.4180 c1        1 D99     -0.115000
     10 O3         -1.8990   -1.3100   -3.0090 o         1 D99     -0.412000
     11 C4          2.4050    1.8210    4.6410 c2        1 D99     -0.071000
     12 O4         -0.8780   -5.6980   -5.2720 o         1 D99     -0.574000
     13 C5          1.0510    1.4580    4.6810 c2        1 D99     -0.115000
     14 O5         -2.6310   -4.3940   -5.1700 o         1 D99     -0.574000
     15 C6          0.3500    1.2700    3.5070 c2        1 D99     -0.113000
     16 C7         -1.1220    0.7970    3.5560 c3        1 D99      0.119000
     17 C8         -1.3930    0.0840    4.8990 c2        1 D99     -0.098000
     18 C9         -0.3740   -0.6250    5.5340 c2        1 D99     -0.048000
     19 C10        -0.6350   -1.3050    6.6990 c1        1 D99     -0.125000
     20 C11        -1.9010   -1.2860    7.2390 c1        1 D99     -0.126500
     21 C12        -2.9100   -0.5820    6.6070 c1        1 D99     -0.126500
     22 C13        -2.6460    0.1020    5.4340 c1        1 D99     -0.113000
     23 C14         0.3590    0.0040    0.2520 c2        1 D99      0.307000
     24 C15        -0.4760   -0.2000   -0.9980 c3        1 D99     -0.168000
     25 C16         0.1330   -1.3310   -1.8400 c3        1 D99     -0.173000
     26 C17        -0.7180   -1.5780   -3.0410 c2        1 D99      0.290000
     27 C18        -0.8400   -2.0890   -5.5750 c3        1 D99     -0.005000
     28 C19        -0.6690   -3.4730   -6.2730 c3        1 D99     -0.189000
     29 C20         0.8230   -3.7830   -6.3870 c3        1 D99     -0.128000
     30 C21         1.5450   -3.6450   -5.0760 c3        1 D99     -0.168000
     31 C22         1.3110   -2.3220   -4.4260 c3        1 D99     -0.009000
     32 C23        -1.4600   -4.6020   -5.5620 c2        1 D99      0.335000
     33 C24        -0.6480    2.2850    0.5840 c3        1 D99     -0.008000
     34 C25         0.1310    3.3300   -0.3030 c3        1 D99     -0.078000
     35 C26        -0.7280    3.7290   -1.4760 c3        1 D99     -0.207333
     36 C27         1.4020    2.7090   -0.8060 c3        1 D99     -0.207333
     37 C28         0.4650    4.5660    0.5350 c3        1 D99     -0.207333
     38 HO1        -2.2360   -0.2530    2.5020 ho        1 D99      0.219000
     39 H2          2.7990    1.9030    1.3600 ha        1 D99      0.156000
     40 H3          4.0030    2.2520    3.3910 ha        1 D99      0.147000
     41 H5          0.6090    1.3420    5.5280 ha        1 D99      0.149000
     42 H7         -1.7160    1.5730    3.4750 h1        1 D99      0.118000
     43 H10         0.0730   -1.8440    7.1240 ha        1 D99      0.149000
     44 H11        -2.1090   -1.8500    8.0030 ha        1 D99      0.134000
     45 H12        -3.7990   -0.5770    6.9770 ha        1 D99      0.134000
     46 H13        -3.4710    0.3750    4.9680 ha        1 D99      0.136000
     47 H15        -0.4870    0.5970   -1.5040 hc        1 D99      0.128000
     48 H15A       -1.3820   -0.4350   -0.7450 hc        1 D99      0.128000
     49 H16         1.0250   -1.0750   -2.1260 hc        1 D99      0.113500
     50 H16A        0.1830   -2.1290   -1.3130 hc        1 D99      0.113500
     51 H18        -1.7930   -1.9450   -5.3880 h1        1 D99      0.089500
     52 H18A       -0.5400   -1.4150   -6.1600 h1        1 D99      0.089500
     53 H19        -1.1040   -3.4720   -7.1790 hc        1 D99      0.083000
     54 H20         0.9280   -4.6820   -6.7040 hc        1 D99      0.067000
     55 H20A        1.2320   -3.1600   -7.0450 hc        1 D99      0.067000
     56 H21         2.5220   -3.7570   -5.2330 hc        1 D99      0.099500
     57 H21A        1.2310   -4.3690   -4.4560 hc        1 D99      0.099500
     58 H22         1.7080   -2.3370   -3.5190 h1        1 D99      0.054000
     59 H22A        1.7610   -1.6240   -4.9580 h1        1 D99      0.054000
     60 H24        -1.0300    2.7380    1.3620 h1        1 D99      0.103500
     61 H24A       -1.3850    1.8710    0.0440 h1        1 D99      0.103500
     62 H26        -0.4380    4.5980   -1.8120 hc        1 D99      0.076444
     63 H26A       -1.6390    3.7820   -1.1990 hc        1 D99      0.076444
     64 H26B       -0.6440    3.0840   -2.1580 hc        1 D99      0.076444
     65 H27         1.7740    3.2620   -1.5290 hc        1 D99      0.076444
     66 H27A        1.2190    1.8370   -1.1370 hc        1 D99      0.076444
     67 H27B        2.0350    2.6520   -0.0900 hc        1 D99      0.076444
     68 H28         0.8360    5.2670   -0.0480 hc        1 D99      0.076444
     69 H28A       -0.3320    4.8900    0.9590 hc        1 D99      0.076444
     70 H28B        1.1270    4.3290    1.2220 hc        1 D99      0.076444
@<TRIPOS>BOND
     1    1    5 1   
     2    1   15 1   
     3    2   23 1   
     4    2   33 1   
     5    3   16 1   
     6    3   38 1   
     7    4   18 1   
     8    5   39 1   
     9    6   26 1   
    10    6   27 1   
    11    6   31 1   
    12    7   23 1   
    13    8   11 1   
    14    9   11 1   
    15    9   40 1   
    16   10   26 1   
    17   11   13 1   
    18   12   32 1   
    19   13   15 1   
    20   13   41 1   
    21   14   32 1   
    22   15   16 1   
    23   16   17 1   
    24   16   42 1   
    25   17   18 1   
    26   17   22 1   
    27   18   19 1   
    28   19   43 1   
    29   20   21 1   
    30   20   44 1   
    31   21   45 1   
    32   22   46 1   
    33   23   24 1   
    34   24   25 1   
    35   24   47 1   
    36   24   48 1   
    37   25   26 1   
    38   25   49 1   
    39   25   50 1   
    40   27   28 1   
    41   27   51 1   
    42   27   52 1   
    43   28   29 1   
    44   28   32 1   
    45   28   53 1   
    46   29   30 1   
    47   29   54 1   
    48   29   55 1   
    49   30   31 1   
    50   30   56 1   
    51   30   57 1   
    52   31   58 1   
    53   31   59 1   
    54   33   34 1   
    55   33   60 1   
    56   33   61 1   
    57   34   35 1   
    58   34   36 1   
    59   34   37 1   
    60   35   62 1   
    61   35   63 1   
    62   35   64 1   
    63   36   65 1   
    64   36   66 1   
    65   36   67 1   
    66   37   68 1   
    67   37   69 1   
    68   37   70 1   
@<TRIPOS>SUBSTRUCTURE
     1 D99         1 TEMP              0 ****  ****    0 ROOT
