@<TRIPOS>MOLECULE
D99
   70    72     1     0     0
SMALL
bcc


@<TRIPOS>ATOM
      1 C1         -0.0640   -0.3550   -0.0480 ca        1 D99      0.087600
      2 N1         -0.7360   -0.3250   -1.3020 n         1 D99     -0.407000
      3 O1         -2.6590    1.1240    1.3670 oh        1 D99     -0.596800
      4 CL1        -2.6380   -3.2760    0.7880 cl        1 D99     -0.067400
      5 C2          1.3430   -0.4930   -0.0050 ca        1 D99     -0.118000
      6 N2         -2.0650   -3.8420   -6.2880 n         1 D99     -0.436800
      7 O2          0.2820   -2.2780   -1.9540 o         1 D99     -0.599100
      8 CL2         2.1590   -0.2980    3.8800 cl        1 D99     -0.108400
      9 C3          2.0310   -0.4900    1.2020 ca        1 D99     -0.112000
     10 O3         -2.9670   -1.8520   -5.5740 o         1 D99     -0.641100
     11 C4          1.3230   -0.3420    2.3970 ca        1 D99      0.003400
     12 O4         -3.3340   -4.9670  -10.1400 o         1 D99     -0.836300
     13 C5         -0.0670   -0.2400    2.3820 ca        1 D99     -0.098000
     14 O5         -2.5210   -3.0680  -11.0000 o         1 D99     -0.836300
     15 C6         -0.7730   -0.2770    1.1760 ca        1 D99     -0.076300
     16 C7         -2.2790   -0.2460    1.2260 c3        1 D99      0.234700
     17 C8         -2.8330   -1.0760    2.3570 ca        1 D99     -0.119300
     18 C9         -3.0350   -2.4580    2.2220 ca        1 D99      0.031400
     19 C10        -3.5750   -3.2030    3.2800 ca        1 D99     -0.127000
     20 C11        -3.9150   -2.5720    4.4730 ca        1 D99     -0.119000
     21 C12        -3.7170   -1.1990    4.6170 ca        1 D99     -0.135000
     22 C13        -3.1790   -0.4610    3.5670 ca        1 D99     -0.118000
     23 C14        -0.5560   -1.3910   -2.2010 c         1 D99      0.664100
     24 C15        -1.4510   -1.4600   -3.4200 c3        1 D99     -0.139400
     25 C16        -1.1850   -2.7150   -4.2250 c3        1 D99     -0.147400
     26 C17        -2.1160   -2.7610   -5.4300 c         1 D99      0.643100
     27 C18        -2.7410   -3.7830   -7.5820 c3        1 D99      0.084000
     28 C19        -1.8000   -3.6780   -8.7830 c3        1 D99     -0.211700
     29 C20        -0.6850   -4.7030   -8.7100 c3        1 D99     -0.064400
     30 C21         0.0190   -4.6820   -7.3690 c3        1 D99     -0.101400
     31 C22        -0.9980   -4.8170   -6.2340 c3        1 D99      0.083000
     32 C23        -2.6240   -3.9240  -10.0790 c         1 D99      0.918600
     33 C24        -1.3990    0.9000   -1.6830 c3        1 D99      0.093000
     34 C25        -0.5410    2.0270   -2.3080 c3        1 D99     -0.076000
     35 C26         0.1740    1.5690   -3.5660 c3        1 D99     -0.091100
     36 C27        -1.5020    3.1560   -2.6690 c3        1 D99     -0.091100
     37 C28         0.4730    2.5500   -1.3050 c3        1 D99     -0.091100
     38 HO1        -3.6240    1.1440    1.3450 ho        1 D99      0.403000
     39 H2          1.9020   -0.6290   -0.9460 ha        1 D99      0.158000
     40 H3          3.1260   -0.6020    1.2100 ha        1 D99      0.146000
     41 H5         -0.6260   -0.1400    3.3270 ha        1 D99      0.151000
     42 H7         -2.7160   -0.6400    0.2610 h1        1 D99      0.071700
     43 H10        -3.7280   -4.2870    3.1650 ha        1 D99      0.148000
     44 H11        -4.3390   -3.1590    5.3010 ha        1 D99      0.134000
     45 H12        -3.9820   -0.6990    5.5600 ha        1 D99      0.134000
     46 H13        -3.0140    0.6240    3.6790 ha        1 D99      0.149000
     47 H15        -2.5280   -1.4480   -3.1000 hc        1 D99      0.087200
     48 H15A       -1.2850   -0.5610   -4.0730 hc        1 D99      0.087200
     49 H16        -0.1170   -2.7220   -4.5690 hc        1 D99      0.072700
     50 H16A       -1.3430   -3.6190   -3.5810 hc        1 D99      0.072700
     51 H18        -3.4470   -2.9070   -7.5890 h1        1 D99      0.076700
     52 H18A       -3.3440   -4.7320   -7.6860 h1        1 D99      0.076700
     53 H19        -1.3620   -2.6470   -8.8310 hc        1 D99      0.043700
     54 H20         0.0550   -4.5030   -9.5280 hc        1 D99      0.048200
     55 H20A       -1.1230   -5.7210   -8.8910 hc        1 D99      0.048200
     56 H21         0.5960   -3.7280   -7.2530 hc        1 D99      0.028200
     57 H21A        0.7460   -5.5310   -7.2970 hc        1 D99      0.028200
     58 H22        -0.4630   -4.7800   -5.2460 h1        1 D99      0.039700
     59 H22A       -1.4860   -5.8330   -6.3180 h1        1 D99      0.039700
     60 H24        -1.8800    1.3330   -0.7560 h1        1 D99      0.065700
     61 H24A       -2.2190    0.6470   -2.4150 h1        1 D99      0.065700
     62 H26        -0.5610    1.3510   -4.3790 hc        1 D99      0.038144
     63 H26A        0.7800    0.6520   -3.3710 hc        1 D99      0.038144
     64 H26B        0.8610    2.3730   -3.9260 hc        1 D99      0.038144
     65 H27        -2.0190    3.5350   -1.7560 hc        1 D99      0.038144
     66 H27A       -0.9390    3.9980   -3.1360 hc        1 D99      0.038144
     67 H27B       -2.2720    2.7990   -3.3960 hc        1 D99      0.038144
     68 H28         1.2400    1.7700   -1.0810 hc        1 D99      0.038144
     69 H28A       -0.0330    2.8390   -0.3530 hc        1 D99      0.038144
     70 H28B        0.9930    3.4480   -1.7190 hc        1 D99      0.038144
@<TRIPOS>BOND
     1    1    2 1   
     2    1    5 ar  
     3    1   15 ar  
     4    2   23 1   
     5    2   33 1   
     6    3   16 1   
     7    3   38 1   
     8    4   18 1   
     9    5    9 ar  
    10    5   39 1   
    11    6   26 1   
    12    6   27 1   
    13    6   31 1   
    14    7   23 2   
    15    8   11 1   
    16    9   11 ar  
    17    9   40 1   
    18   10   26 2   
    19   11   13 ar  
    20   12   32 1   
    21   13   15 ar  
    22   13   41 1   
    23   14   32 1   
    24   15   16 1   
    25   16   17 1   
    26   16   42 1   
    27   17   18 ar  
    28   17   22 ar  
    29   18   19 ar  
    30   19   20 ar  
    31   19   43 1   
    32   20   21 ar  
    33   20   44 1   
    34   21   22 ar  
    35   21   45 1   
    36   22   46 1   
    37   23   24 1   
    38   24   25 1   
    39   24   47 1   
    40   24   48 1   
    41   25   26 1   
    42   25   49 1   
    43   25   50 1   
    44   27   28 1   
    45   27   51 1   
    46   27   52 1   
    47   28   29 1   
    48   28   32 1   
    49   28   53 1   
    50   29   30 1   
    51   29   54 1   
    52   29   55 1   
    53   30   31 1   
    54   30   56 1   
    55   30   57 1   
    56   31   58 1   
    57   31   59 1   
    58   33   34 1   
    59   33   60 1   
    60   33   61 1   
    61   34   35 1   
    62   34   36 1   
    63   34   37 1   
    64   35   62 1   
    65   35   63 1   
    66   35   64 1   
    67   36   65 1   
    68   36   66 1   
    69   36   67 1   
    70   37   68 1   
    71   37   69 1   
    72   37   70 1   
@<TRIPOS>SUBSTRUCTURE
     1 D99         1 TEMP              0 ****  ****    0 ROOT
