@<TRIPOS>MOLECULE
D99
   70    72     1     0     0
SMALL
bcc


@<TRIPOS>ATOM
      1 C1         -0.0630   -0.3540   -0.0510 ca        1 D99      0.087600
      2 N1         -0.7370   -0.3260   -1.3030 n         1 D99     -0.407000
      3 O1         -2.6580    1.1220    1.3690 oh        1 D99     -0.596800
      4 Cl1        -2.6310   -3.2780    0.7930 cl        1 D99     -0.067400
      5 C2          1.3450   -0.4900   -0.0100 ca        1 D99     -0.118000
      6 N2         -2.0660   -3.8470   -6.2870 n         1 D99     -0.436800
      7 O2          0.2820   -2.2780   -1.9560 o         1 D99     -0.599100
      8 Cl2         2.1680   -0.2910    3.8730 cl        1 D99     -0.108400
      9 C3          2.0340   -0.4850    1.1950 ca        1 D99     -0.112000
     10 O3         -2.9750   -1.8610   -5.5690 o         1 D99     -0.641100
     11 C4          1.3290   -0.3380    2.3920 ca        1 D99      0.003400
     12 O4         -3.3330   -4.9700  -10.1400 o         1 D99     -0.836300
     13 C5         -0.0610   -0.2380    2.3800 ca        1 D99     -0.098000
     14 O5         -2.5280   -3.0670  -10.9970 o         1 D99     -0.836300
     15 C6         -0.7700   -0.2760    1.1750 ca        1 D99     -0.076300
     16 C7         -2.2760   -0.2480    1.2290 c3        1 D99      0.234700
     17 C8         -2.8260   -1.0780    2.3610 ca        1 D99     -0.119300
     18 C9         -3.0270   -2.4600    2.2280 ca        1 D99      0.031400
     19 C10        -3.5630   -3.2050    3.2870 ca        1 D99     -0.127000
     20 C11        -3.9020   -2.5740    4.4800 ca        1 D99     -0.119000
     21 C12        -3.7050   -1.2000    4.6230 ca        1 D99     -0.135000
     22 C13        -3.1700   -0.4620    3.5710 ca        1 D99     -0.118000
     23 C14        -0.5580   -1.3920   -2.2020 c         1 D99      0.664100
     24 C15        -1.4550   -1.4640   -3.4190 c3        1 D99     -0.139400
     25 C16        -1.1860   -2.7180   -4.2240 c3        1 D99     -0.147400
     26 C17        -2.1200   -2.7670   -5.4280 c         1 D99      0.643100
     27 C18        -2.7440   -3.7890   -7.5800 c3        1 D99      0.083000
     28 C19        -1.8040   -3.6770   -8.7810 c3        1 D99     -0.211700
     29 C20        -0.6840   -4.6970   -8.7110 c3        1 D99     -0.064400
     30 C21         0.0210   -4.6760   -7.3710 c3        1 D99     -0.101400
     31 C22        -0.9950   -4.8180   -6.2350 c3        1 D99      0.083000
     32 C23        -2.6270   -3.9240  -10.0780 c         1 D99      0.918600
     33 C24        -1.4040    0.8970   -1.6830 c3        1 D99      0.093000
     34 C25        -0.5490    2.0260   -2.3110 c3        1 D99     -0.076000
     35 C26         0.1640    1.5680   -3.5700 c3        1 D99     -0.091100
     36 C27        -1.5130    3.1520   -2.6700 c3        1 D99     -0.091100
     37 C28         0.4670    2.5500   -1.3110 c3        1 D99     -0.091100
     38 HO1        -3.6220    1.1410    1.3490 ho        1 D99      0.403000
     39 H2          1.9020   -0.6260   -0.9520 ha        1 D99      0.158000
     40 H3          3.1290   -0.5960    1.2020 ha        1 D99      0.146000
     41 H5         -0.6190   -0.1380    3.3260 ha        1 D99      0.151000
     42 H7         -2.7140   -0.6430    0.2640 h1        1 D99      0.071700
     43 H10        -3.7160   -4.2890    3.1730 ha        1 D99      0.148000
     44 H11        -4.3230   -3.1610    5.3090 ha        1 D99      0.134000
     45 H12        -3.9690   -0.7000    5.5660 ha        1 D99      0.134000
     46 H13        -3.0060    0.6230    3.6820 ha        1 D99      0.149000
     47 H15        -1.2930   -0.5650   -4.0720 hc        1 D99      0.087200
     48 H15A       -2.5310   -1.4540   -3.0970 hc        1 D99      0.087200
     49 H16        -0.1190   -2.7230   -4.5700 hc        1 D99      0.072700
     50 H16A       -1.3410   -3.6220   -3.5800 hc        1 D99      0.072700
     51 H18        -3.3420   -4.7400   -7.6860 h1        1 D99      0.076700
     52 H18A       -3.4540   -2.9160   -7.5850 h1        1 D99      0.076700
     53 H19        -1.3700   -2.6440   -8.8280 hc        1 D99      0.043700
     54 H20         0.0550   -4.4920   -9.5280 hc        1 D99      0.048200
     55 H20A       -1.1180   -5.7170   -8.8940 hc        1 D99      0.048200
     56 H21         0.7510   -5.5220   -7.3000 hc        1 D99      0.028200
     57 H21A        0.5940   -3.7200   -7.2530 hc        1 D99      0.028200
     58 H22        -0.4600   -4.7810   -5.2480 h1        1 D99      0.039700
     59 H22A       -1.4800   -5.8350   -6.3210 h1        1 D99      0.039700
     60 H24        -1.8840    1.3310   -0.7550 h1        1 D99      0.065700
     61 H24A       -2.2240    0.6420   -2.4130 h1        1 D99      0.065700
     62 H26         0.7720    0.6520   -3.3760 hc        1 D99      0.038144
     63 H26A        0.8490    2.3730   -3.9330 hc        1 D99      0.038144
     64 H26B       -0.5730    1.3490   -4.3810 hc        1 D99      0.038144
     65 H27        -2.2830    2.7940   -3.3940 hc        1 D99      0.038144
     66 H27A       -0.9520    3.9960   -3.1390 hc        1 D99      0.038144
     67 H27B       -2.0270    3.5320   -1.7550 hc        1 D99      0.038144
     68 H28         0.9850    3.4490   -1.7260 hc        1 D99      0.038144
     69 H28A        1.2360    1.7720   -1.0880 hc        1 D99      0.038144
     70 H28B       -0.0370    2.8390   -0.3570 hc        1 D99      0.038144
@<TRIPOS>BOND
     1    1    2 1   
     2    1    5 ar  
     3    1   15 ar  
     4    2   23 1   
     5    2   33 1   
     6    3   16 1   
     7    3   38 1   
     8    4   18 1   
     9    5    9 ar  
    10    5   39 1   
    11    6   26 1   
    12    6   27 1   
    13    6   31 1   
    14    7   23 2   
    15    8   11 1   
    16    9   11 ar  
    17    9   40 1   
    18   10   26 2   
    19   11   13 ar  
    20   12   32 1   
    21   13   15 ar  
    22   13   41 1   
    23   14   32 1   
    24   15   16 1   
    25   16   17 1   
    26   16   42 1   
    27   17   18 ar  
    28   17   22 ar  
    29   18   19 ar  
    30   19   20 ar  
    31   19   43 1   
    32   20   21 ar  
    33   20   44 1   
    34   21   22 ar  
    35   21   45 1   
    36   22   46 1   
    37   23   24 1   
    38   24   25 1   
    39   24   47 1   
    40   24   48 1   
    41   25   26 1   
    42   25   49 1   
    43   25   50 1   
    44   27   28 1   
    45   27   51 1   
    46   27   52 1   
    47   28   29 1   
    48   28   32 1   
    49   28   53 1   
    50   29   30 1   
    51   29   54 1   
    52   29   55 1   
    53   30   31 1   
    54   30   56 1   
    55   30   57 1   
    56   31   58 1   
    57   31   59 1   
    58   33   34 1   
    59   33   60 1   
    60   33   61 1   
    61   34   35 1   
    62   34   36 1   
    63   34   37 1   
    64   35   62 1   
    65   35   63 1   
    66   35   64 1   
    67   36   65 1   
    68   36   66 1   
    69   36   67 1   
    70   37   68 1   
    71   37   69 1   
    72   37   70 1   
@<TRIPOS>SUBSTRUCTURE
     1 D99         1 TEMP              0 ****  ****    0 ROOT
