@<TRIPOS>MOLECULE
D99
   70    72     1     0     0
SMALL
bcc


@<TRIPOS>ATOM
      1 C1          2.2940    0.7480   -0.5420 ca        1 D99      0.095600
      2 N1          1.0520    0.8360    0.1460 n         1 D99     -0.406000
      3 O1          3.8380    0.1460    2.3720 oh        1 D99     -0.589800
      4 CL1         1.9580   -2.9850   -0.1450 cl        1 D99     -0.067400
      5 C2          2.4330    1.3370   -1.8220 ca        1 D99     -0.116000
      6 N2         -4.9680   -0.7910   -0.2540 n         1 D99     -0.435800
      7 O2         -0.0650    0.0070   -1.6800 o         1 D99     -0.600100
      8 CL2         6.2320    0.6310   -2.7470 cl        1 D99     -0.105400
      9 C3          3.6380    1.2940   -2.5100 ca        1 D99     -0.110000
     10 O3         -3.7750    0.1130    1.4920 o         1 D99     -0.639100
     11 C4          4.7400    0.6600   -1.9290 ca        1 D99      0.006400
     12 O4         -9.1320   -0.7480    0.3620 o         1 D99     -0.836800
     13 C5          4.6190    0.0430   -0.6870 ca        1 D99     -0.116000
     14 O5         -9.1070    1.4750    0.6070 o         1 D99     -0.836800
     15 C6          3.4010    0.0570    0.0050 ca        1 D99     -0.123300
     16 C7          3.3350   -0.6730    1.3240 c3        1 D99      0.232700
     17 C8          4.0520   -1.9990    1.2630 ca        1 D99     -0.103300
     18 C9          3.4720   -3.1030    0.6160 ca        1 D99      0.029400
     19 C10         4.1330   -4.3370    0.5830 ca        1 D99     -0.125000
     20 C11         5.3720   -4.4800    1.2020 ca        1 D99     -0.122000
     21 C12         5.9520   -3.3940    1.8570 ca        1 D99     -0.133000
     22 C13         5.2940   -2.1670    1.8860 ca        1 D99     -0.117000
     23 C14        -0.1150    0.3800   -0.4920 c         1 D99      0.665100
     24 C15        -1.3920    0.2930    0.3150 c3        1 D99     -0.139400
     25 C16        -2.5250   -0.2740   -0.5150 c3        1 D99     -0.147400
     26 C17        -3.8110   -0.2790    0.3020 c         1 D99      0.643100
     27 C18        -6.2580   -0.5450    0.3860 c3        1 D99      0.083000
     28 C19        -7.1540    0.4450   -0.3590 c3        1 D99     -0.212700
     29 C20        -7.2460    0.1140   -1.8360 c3        1 D99     -0.064400
     30 C21        -5.8800   -0.0770   -2.4620 c3        1 D99     -0.101400
     31 C22        -5.0690   -1.1000   -1.6640 c3        1 D99      0.083000
     32 C23        -8.5800    0.3840    0.2580 c         1 D99      0.918600
     33 C24         1.0110    1.5920    1.3760 c3        1 D99      0.091000
     34 C25         0.8940    3.1330    1.2780 c3        1 D99     -0.077000
     35 C26        -0.3430    3.5650    0.5110 c3        1 D99     -0.090767
     36 C27         0.7950    3.6530    2.7090 c3        1 D99     -0.090767
     37 C28         2.1300    3.7270    0.6250 c3        1 D99     -0.090767
     38 HO1         4.6750    0.5230    2.0740 ho        1 D99      0.399000
     39 H2          1.5590    1.8180   -2.2930 ha        1 D99      0.160000
     40 H3          3.7200    1.7570   -3.5050 ha        1 D99      0.148000
     41 H5          5.4790   -0.4840   -0.2430 ha        1 D99      0.147000
     42 H7          2.2650   -0.8710    1.6360 h1        1 D99      0.110700
     43 H10         3.6700   -5.1940    0.0700 ha        1 D99      0.148000
     44 H11         5.8880   -5.4500    1.1760 ha        1 D99      0.134000
     45 H12         6.9270   -3.5050    2.3530 ha        1 D99      0.132000
     46 H13         5.7510   -1.3210    2.4220 ha        1 D99      0.136000
     47 H15        -1.2280   -0.3580    1.2160 hc        1 D99      0.088700
     48 H15A       -1.6830    1.3120    0.6880 hc        1 D99      0.088700
     49 H16        -2.6640    0.3480   -1.4380 hc        1 D99      0.072700
     50 H16A       -2.2700   -1.3170   -0.8400 hc        1 D99      0.072700
     51 H18        -6.7950   -1.5360    0.4430 h1        1 D99      0.076700
     52 H18A       -6.0840   -0.1710    1.4320 h1        1 D99      0.076700
     53 H19        -6.7560    1.4850   -0.2310 hc        1 D99      0.043700
     54 H20        -7.8510   -0.8260   -1.9540 hc        1 D99      0.048200
     55 H20A       -7.7920    0.9360   -2.3660 hc        1 D99      0.048200
     56 H21        -5.9810   -0.4490   -3.5140 hc        1 D99      0.028200
     57 H21A       -5.3330    0.9000   -2.4970 hc        1 D99      0.028200
     58 H22        -4.0530   -1.2170   -2.1290 h1        1 D99      0.040200
     59 H22A       -5.5930   -2.0990   -1.7360 h1        1 D99      0.040200
     60 H24         0.1430    1.2200    1.9920 h1        1 D99      0.069700
     61 H24A        1.9600    1.3740    1.9510 h1        1 D99      0.069700
     62 H26        -1.2690    3.2940    1.0750 hc        1 D99      0.038144
     63 H26A       -0.3360    4.6730    0.3710 hc        1 D99      0.038144
     64 H26B       -0.3790    3.0850   -0.4960 hc        1 D99      0.038144
     65 H27         1.7060    3.3730    3.2900 hc        1 D99      0.038144
     66 H27A        0.7040    4.7660    2.7020 hc        1 D99      0.038144
     67 H27B       -0.1020    3.2280    3.2200 hc        1 D99      0.038144
     68 H28         2.1920    3.4230   -0.4480 hc        1 D99      0.038144
     69 H28A        2.0930    4.8420    0.6750 hc        1 D99      0.038144
     70 H28B        3.0530    3.3800    1.1500 hc        1 D99      0.038144
@<TRIPOS>BOND
     1    1    2 1   
     2    1    5 ar  
     3    1   15 ar  
     4    2   23 1   
     5    2   33 1   
     6    3   16 1   
     7    3   38 1   
     8    4   18 1   
     9    5    9 ar  
    10    5   39 1   
    11    6   26 1   
    12    6   27 1   
    13    6   31 1   
    14    7   23 2   
    15    8   11 1   
    16    9   11 ar  
    17    9   40 1   
    18   10   26 2   
    19   11   13 ar  
    20   12   32 1   
    21   13   15 ar  
    22   13   41 1   
    23   14   32 1   
    24   15   16 1   
    25   16   17 1   
    26   16   42 1   
    27   17   18 ar  
    28   17   22 ar  
    29   18   19 ar  
    30   19   20 ar  
    31   19   43 1   
    32   20   21 ar  
    33   20   44 1   
    34   21   22 ar  
    35   21   45 1   
    36   22   46 1   
    37   23   24 1   
    38   24   25 1   
    39   24   47 1   
    40   24   48 1   
    41   25   26 1   
    42   25   49 1   
    43   25   50 1   
    44   27   28 1   
    45   27   51 1   
    46   27   52 1   
    47   28   29 1   
    48   28   32 1   
    49   28   53 1   
    50   29   30 1   
    51   29   54 1   
    52   29   55 1   
    53   30   31 1   
    54   30   56 1   
    55   30   57 1   
    56   31   58 1   
    57   31   59 1   
    58   33   34 1   
    59   33   60 1   
    60   33   61 1   
    61   34   35 1   
    62   34   36 1   
    63   34   37 1   
    64   35   62 1   
    65   35   63 1   
    66   35   64 1   
    67   36   65 1   
    68   36   66 1   
    69   36   67 1   
    70   37   68 1   
    71   37   69 1   
    72   37   70 1   
@<TRIPOS>SUBSTRUCTURE
     1 D99         1 TEMP              0 ****  ****    0 ROOT
