@<TRIPOS>MOLECULE
D9A
   72    74     1     0     0
SMALL
bcc


@<TRIPOS>ATOM
      1 C1          0.1440   -0.3320    0.0450 ca        1 D9A     -0.125300
      2 Cl1        -0.8210   -0.8650   -3.7820 cl        1 D9A     -0.090400
      3 C2          1.5510   -0.1470   -0.0190 ca        1 D9A      0.062600
      4 N3          2.3160    0.0290    1.1600 n         1 D9A     -0.388000
      5 C4          2.0890   -0.7880    2.2720 c         1 D9A      0.676500
      6 C5          1.0220   -1.8890    2.1500 c3        1 D9A      0.088100
      7 O6         -0.2900   -1.3430    2.2370 os        1 D9A     -0.398600
      8 C7         -0.5460   -0.2200    1.3770 c3        1 D9A      0.238700
      9 C8          2.1860   -0.1820   -1.2790 ca        1 D9A     -0.153000
     10 C9          1.4510   -0.3920   -2.4400 ca        1 D9A     -0.108000
     11 C10         0.0730   -0.5960   -2.3620 ca        1 D9A      0.005400
     12 C11        -0.5740   -0.5850   -1.1240 ca        1 D9A     -0.061000
     13 C12        -2.0410   -0.0860    1.2870 ca        1 D9A     -0.082300
     14 C13        -2.8550   -1.2090    1.1070 ca        1 D9A     -0.109000
     15 C14        -4.2410   -1.0730    1.0620 ca        1 D9A     -0.106000
     16 C15        -4.8400    0.1780    1.1960 ca        1 D9A     -0.184000
     17 C16        -4.0370    1.3090    1.3800 ca        1 D9A      0.075100
     18 C17        -2.6320    1.1820    1.4320 ca        1 D9A      0.077100
     19 O18        -4.5340    2.6000    1.4840 os        1 D9A     -0.332900
     20 C19        -5.9230    2.7010    1.7690 c3        1 D9A      0.117700
     21 O20        -1.8240    2.2730    1.7230 os        1 D9A     -0.335900
     22 C21        -1.7870    3.2570    0.6910 c3        1 D9A      0.114700
     23 O22         2.7740   -0.6400    3.3010 o         1 D9A     -0.625500
     24 C23         3.3050    1.0810    1.2230 c3        1 D9A      0.105000
     25 C24         2.8230    2.4680    1.7110 c3        1 D9A     -0.072000
     26 C25         2.2650    2.3750    3.1200 c3        1 D9A     -0.089100
     27 C26         4.0450    3.3800    1.7160 c3        1 D9A     -0.089100
     28 C27         1.7760    3.0430    0.7750 c3        1 D9A     -0.089100
     29 C28         1.1490   -2.8760    3.3060 c3        1 D9A     -0.151400
     30 C29         0.6160   -4.2540    2.9530 c         1 D9A      0.645100
     31 N30        -0.6820   -4.3510    2.5180 ns        1 D9A     -0.513900
     32 C31        -1.1910   -5.5530    1.8920 c3        1 D9A     -0.069300
     33 C32        -2.2690   -6.2540    2.7190 c3        1 D9A     -0.168400
     34 C33        -1.8670   -6.7880    4.0560 c         1 D9A      0.635100
     35 O34        -2.6490   -7.0350    4.9850 o         1 D9A     -0.558000
     36 O35        -0.5810   -7.1170    4.3600 oh        1 D9A     -0.604100
     37 O36         1.3370   -5.2620    3.1490 o         1 D9A     -0.658100
     38 C38        -1.8360   -5.2770    0.4760 c         1 D9A      0.918600
     39 O39        -2.1450   -6.2950   -0.1900 o         1 D9A     -0.822800
     40 O40        -1.9970   -4.0790    0.1110 o         1 D9A     -0.822800
     41 H5          1.1420   -2.4190    1.1610 h1        1 D9A      0.088700
     42 H7         -0.1420    0.6960    1.9130 h1        1 D9A      0.074700
     43 H8          3.2770   -0.0610   -1.3590 ha        1 D9A      0.137000
     44 H9          1.9640   -0.4150   -3.4140 ha        1 D9A      0.142000
     45 H11        -1.6570   -0.7980   -1.0650 ha        1 D9A      0.180000
     46 H13        -2.3940   -2.2120    0.9830 ha        1 D9A      0.218000
     47 H14        -4.8640   -1.9680    0.9120 ha        1 D9A      0.151000
     48 H15        -5.9340    0.2690    1.1570 ha        1 D9A      0.131000
     49 H19        -6.5260    2.3940    0.8790 h1        1 D9A      0.038700
     50 H19A       -6.0700    3.7900    1.9820 h1        1 D9A      0.038700
     51 H19B       -6.1990    2.0840    2.6580 h1        1 D9A      0.038700
     52 H21        -2.7920    3.7280    0.5650 h1        1 D9A      0.040367
     53 H21A       -1.0390    4.0010    1.0650 h1        1 D9A      0.040367
     54 H21B       -1.4440    2.8060   -0.2710 h1        1 D9A      0.040367
     55 H23         4.1200    0.7380    1.9260 h1        1 D9A      0.058200
     56 H23A        3.7520    1.2180    0.1980 h1        1 D9A      0.058200
     57 H25         2.9830    1.8400    3.7880 hc        1 D9A      0.037256
     58 H25A        2.0780    3.3970    3.5290 hc        1 D9A      0.037256
     59 H25B        1.3000    1.8110    3.1260 hc        1 D9A      0.037256
     60 H26         3.7540    4.4030    2.0540 hc        1 D9A      0.037256
     61 H26A        4.4820    3.4550    0.6920 hc        1 D9A      0.037256
     62 H26B        4.8230    2.9840    2.4110 hc        1 D9A      0.037256
     63 H27         1.5110    4.0820    1.0910 hc        1 D9A      0.037256
     64 H27A        0.8430    2.4260    0.7950 hc        1 D9A      0.037256
     65 H27B        2.1630    3.0760   -0.2710 hc        1 D9A      0.037256
     66 H28         0.5960   -2.4830    4.2000 hc        1 D9A      0.095200
     67 H28A        2.2310   -2.9810    3.5850 hc        1 D9A      0.095200
     68 HN30        0.0260   -6.8220    3.6610 ho        1 D9A      0.457000
     69 H31        -0.3360   -6.2700    1.7140 h1        1 D9A      0.067700
     70 H32        -3.1390   -5.5620    2.8740 hc        1 D9A      0.094200
     71 H32A       -2.6330   -7.1220    2.0990 hc        1 D9A      0.094200
     72 H302       -1.1260   -3.5100    2.1990 hn        1 D9A      0.333500
@<TRIPOS>BOND
     1    1    3 ar  
     2    1    8 1   
     3    1   12 ar  
     4    2   11 1   
     5    3    4 1   
     6    3    9 ar  
     7    4    5 1   
     8    4   24 1   
     9    5    6 1   
    10    5   23 2   
    11    6    7 1   
    12    6   29 1   
    13    6   41 1   
    14    7    8 1   
    15    8   13 1   
    16    8   42 1   
    17    9   10 ar  
    18    9   43 1   
    19   10   11 ar  
    20   10   44 1   
    21   11   12 ar  
    22   12   45 1   
    23   13   14 ar  
    24   13   18 ar  
    25   14   15 ar  
    26   14   46 1   
    27   15   16 ar  
    28   15   47 1   
    29   16   17 ar  
    30   16   48 1   
    31   17   18 ar  
    32   17   19 1   
    33   18   21 1   
    34   19   20 1   
    35   20   49 1   
    36   20   50 1   
    37   20   51 1   
    38   21   22 1   
    39   22   52 1   
    40   22   53 1   
    41   22   54 1   
    42   24   25 1   
    43   24   55 1   
    44   24   56 1   
    45   25   26 1   
    46   25   27 1   
    47   25   28 1   
    48   26   57 1   
    49   26   58 1   
    50   26   59 1   
    51   27   60 1   
    52   27   61 1   
    53   27   62 1   
    54   28   63 1   
    55   28   64 1   
    56   28   65 1   
    57   29   30 1   
    58   29   66 1   
    59   29   67 1   
    60   30   31 1   
    61   30   37 2   
    62   31   32 1   
    63   31   72 1   
    64   32   33 1   
    65   32   38 1   
    66   32   69 1   
    67   33   34 1   
    68   33   70 1   
    69   33   71 1   
    70   34   35 2   
    71   34   36 1   
    72   36   68 1   
    73   38   39 1   
    74   38   40 1   
@<TRIPOS>SUBSTRUCTURE
     1 D9A         1 TEMP              0 ****  ****    0 ROOT
