@<TRIPOS>MOLECULE
D9A
   72    74     1     0     0
SMALL
bcc


@<TRIPOS>ATOM
      1 C1          0.1440   -0.3260    0.0460 ca        1 D9A     -0.125300
      2 CL1        -0.8230   -0.8440   -3.7830 cl        1 D9A     -0.090400
      3 C2          1.5520   -0.1440   -0.0180 ca        1 D9A      0.062600
      4 N3          2.3170    0.0270    1.1630 n         1 D9A     -0.388000
      5 C4          2.0880   -0.7940    2.2720 c         1 D9A      0.676500
      6 C5          1.0200   -1.8920    2.1450 c3        1 D9A      0.088100
      7 O6         -0.2920   -1.3450    2.2350 os        1 D9A     -0.398600
      8 C7         -0.5460   -0.2180    1.3790 c3        1 D9A      0.238700
      9 C8          2.1860   -0.1760   -1.2780 ca        1 D9A     -0.153000
     10 C9          1.4510   -0.3800   -2.4390 ca        1 D9A     -0.108000
     11 C10         0.0720   -0.5820   -2.3620 ca        1 D9A      0.005400
     12 C11        -0.5750   -0.5740   -1.1230 ca        1 D9A     -0.061000
     13 C12        -2.0400   -0.0810    1.2890 ca        1 D9A     -0.082300
     14 C13        -2.8570   -1.2010    1.1060 ca        1 D9A     -0.109000
     15 C14        -4.2430   -1.0620    1.0610 ca        1 D9A     -0.106000
     16 C15        -4.8390    0.1900    1.1990 ca        1 D9A     -0.184000
     17 C16        -4.0340    1.3180    1.3860 ca        1 D9A      0.075100
     18 C17        -2.6290    1.1880    1.4380 ca        1 D9A      0.077100
     19 O18        -4.5280    2.6100    1.4940 os        1 D9A     -0.332900
     20 C19        -5.9170    2.7140    1.7770 c3        1 D9A      0.117700
     21 O20        -1.8180    2.2760    1.7320 os        1 D9A     -0.335900
     22 C21        -1.7790    3.2640    0.7030 c3        1 D9A      0.114700
     23 O22         2.7730   -0.6510    3.3010 o         1 D9A     -0.625500
     24 C23         3.3080    1.0760    1.2280 c3        1 D9A      0.105000
     25 C24         2.8290    2.4620    1.7220 c3        1 D9A     -0.072000
     26 C25         2.2700    2.3650    3.1310 c3        1 D9A     -0.089100
     27 C26         4.0520    3.3720    1.7300 c3        1 D9A     -0.089100
     28 C27         1.7820    3.0430    0.7890 c3        1 D9A     -0.089100
     29 C28         1.1450   -2.8840    3.2980 c3        1 D9A     -0.151400
     30 C29         0.6090   -4.2600    2.9400 c         1 D9A      0.645100
     31 N30        -0.6890   -4.3540    2.5050 n         1 D9A     -0.513900
     32 C31        -1.2000   -5.5530    1.8750 c3        1 D9A     -0.069300
     33 C32        -2.2770   -6.2560    2.7020 c3        1 D9A     -0.168400
     34 C33        -1.8740   -6.7960    4.0360 c         1 D9A      0.635100
     35 O34        -2.6550   -7.0460    4.9650 o         1 D9A     -0.558000
     36 O35        -0.5880   -7.1280    4.3360 oh        1 D9A     -0.604100
     37 O36         1.3300   -5.2690    3.1310 o         1 D9A     -0.658100
     38 C38        -1.8460   -5.2700    0.4620 c         1 D9A      0.918600
     39 O39        -2.1580   -6.2860   -0.2080 o         1 D9A     -0.822800
     40 O40        -2.0080   -4.0710    0.1020 o         1 D9A     -0.822800
     41 H5          1.1380   -2.4190    1.1550 h1        1 D9A      0.088700
     42 H7         -0.1400    0.6950    1.9190 h1        1 D9A      0.074700
     43 H8          3.2780   -0.0570   -1.3580 ha        1 D9A      0.137000
     44 H9          1.9630   -0.4010   -3.4130 ha        1 D9A      0.142000
     45 H11        -1.6580   -0.7850   -1.0650 ha        1 D9A      0.180000
     46 H13        -2.3980   -2.2050    0.9800 ha        1 D9A      0.218000
     47 H14        -4.8680   -1.9560    0.9090 ha        1 D9A      0.151000
     48 H15        -5.9330    0.2820    1.1610 ha        1 D9A      0.131000
     49 H19        -6.1960    2.0950    2.6640 h1        1 D9A      0.038700
     50 H19A       -6.0610    3.8020    1.9940 h1        1 D9A      0.038700
     51 H19B       -6.5190    2.4100    0.8860 h1        1 D9A      0.038700
     52 H21        -1.4380    2.8140   -0.2610 h1        1 D9A      0.040367
     53 H21A       -1.0300    4.0050    1.0780 h1        1 D9A      0.040367
     54 H21B       -2.7830    3.7370    0.5790 h1        1 D9A      0.040367
     55 H23         4.1220    0.7290    1.9300 h1        1 D9A      0.058200
     56 H23A        3.7550    1.2160    0.2040 h1        1 D9A      0.058200
     57 H25         2.9890    1.8270    3.7970 hc        1 D9A      0.037256
     58 H25A        2.0850    3.3860    3.5430 hc        1 D9A      0.037256
     59 H25B        1.3050    1.8030    3.1350 hc        1 D9A      0.037256
     60 H26         4.4890    3.4500    0.7060 hc        1 D9A      0.037256
     61 H26A        3.7630    4.3950    2.0720 hc        1 D9A      0.037256
     62 H26B        4.8300    2.9720    2.4230 hc        1 D9A      0.037256
     63 H27         2.1690    3.0790   -0.2580 hc        1 D9A      0.037256
     64 H27A        0.8480    2.4270    0.8060 hc        1 D9A      0.037256
     65 H27B        1.5190    4.0800    1.1080 hc        1 D9A      0.037256
     66 H28         0.5920   -2.4940    4.1930 hc        1 D9A      0.095200
     67 H28A        2.2270   -2.9920    3.5770 hc        1 D9A      0.095200
     68 HN30        0.0190   -6.8300    3.6380 ho        1 D9A      0.457000
     69 H31        -0.3450   -6.2700    1.6930 h1        1 D9A      0.067700
     70 H32        -3.1470   -5.5640    2.8600 hc        1 D9A      0.094200
     71 H32A       -2.6430   -7.1210    2.0790 hc        1 D9A      0.094200
     72 H302       -1.1320   -3.5110    2.1910 hn        1 D9A      0.333500
@<TRIPOS>BOND
     1    1    3 ar  
     2    1    8 1   
     3    1   12 ar  
     4    2   11 1   
     5    3    4 1   
     6    3    9 ar  
     7    4    5 1   
     8    4   24 1   
     9    5    6 1   
    10    5   23 2   
    11    6    7 1   
    12    6   29 1   
    13    6   41 1   
    14    7    8 1   
    15    8   13 1   
    16    8   42 1   
    17    9   10 ar  
    18    9   43 1   
    19   10   11 ar  
    20   10   44 1   
    21   11   12 ar  
    22   12   45 1   
    23   13   14 ar  
    24   13   18 ar  
    25   14   15 ar  
    26   14   46 1   
    27   15   16 ar  
    28   15   47 1   
    29   16   17 ar  
    30   16   48 1   
    31   17   18 ar  
    32   17   19 1   
    33   18   21 1   
    34   19   20 1   
    35   20   49 1   
    36   20   50 1   
    37   20   51 1   
    38   21   22 1   
    39   22   52 1   
    40   22   53 1   
    41   22   54 1   
    42   24   25 1   
    43   24   55 1   
    44   24   56 1   
    45   25   26 1   
    46   25   27 1   
    47   25   28 1   
    48   26   57 1   
    49   26   58 1   
    50   26   59 1   
    51   27   60 1   
    52   27   61 1   
    53   27   62 1   
    54   28   63 1   
    55   28   64 1   
    56   28   65 1   
    57   29   30 1   
    58   29   66 1   
    59   29   67 1   
    60   30   31 1   
    61   30   37 2   
    62   31   32 1   
    63   31   72 1   
    64   32   33 1   
    65   32   38 1   
    66   32   69 1   
    67   33   34 1   
    68   33   70 1   
    69   33   71 1   
    70   34   35 2   
    71   34   36 1   
    72   36   68 1   
    73   38   39 1   
    74   38   40 1   
@<TRIPOS>SUBSTRUCTURE
     1 D9A         1 TEMP              0 ****  ****    0 ROOT
