@<TRIPOS>MOLECULE
D9A
   72    74     1     0     0
SMALL
bcc


@<TRIPOS>ATOM
      1 C1          0.1440   -0.3230    0.0480 ca        1 D9A     -0.125300
      2 CL1        -0.8240   -0.8240   -3.7830 cl        1 D9A     -0.090400
      3 C2          1.5520   -0.1400   -0.0160 ca        1 D9A      0.062600
      4 N3          2.3180    0.0250    1.1650 n         1 D9A     -0.388000
      5 C4          2.0890   -0.8000    2.2710 c         1 D9A      0.676500
      6 C5          1.0200   -1.8980    2.1390 c3        1 D9A      0.088100
      7 O6         -0.2910   -1.3500    2.2320 os        1 D9A     -0.398600
      8 C7         -0.5450   -0.2200    1.3800 c3        1 D9A      0.238700
      9 C8          2.1860   -0.1670   -1.2760 ca        1 D9A     -0.153000
     10 C9          1.4500   -0.3660   -2.4390 ca        1 D9A     -0.108000
     11 C10         0.0710   -0.5680   -2.3610 ca        1 D9A      0.005400
     12 C11        -0.5750   -0.5650   -1.1230 ca        1 D9A     -0.061000
     13 C12        -2.0390   -0.0820    1.2920 ca        1 D9A     -0.082300
     14 C13        -2.8560   -1.2020    1.1040 ca        1 D9A     -0.109000
     15 C14        -4.2420   -1.0620    1.0600 ca        1 D9A     -0.106000
     16 C15        -4.8380    0.1890    1.2040 ca        1 D9A     -0.184000
     17 C16        -4.0330    1.3170    1.3980 ca        1 D9A      0.075100
     18 C17        -2.6280    1.1860    1.4470 ca        1 D9A      0.077100
     19 O18        -4.5270    2.6080    1.5120 os        1 D9A     -0.332900
     20 C19        -5.9160    2.7100    1.7970 c3        1 D9A      0.117700
     21 O20        -1.8170    2.2730    1.7470 os        1 D9A     -0.335900
     22 C21        -1.7780    3.2660    0.7230 c3        1 D9A      0.114700
     23 O22         2.7750   -0.6620    3.3000 o         1 D9A     -0.625500
     24 C23         3.3090    1.0740    1.2350 c3        1 D9A      0.105000
     25 C24         2.8300    2.4580    1.7340 c3        1 D9A     -0.072000
     26 C25         2.2720    2.3550    3.1430 c3        1 D9A     -0.089100
     27 C26         4.0540    3.3670    1.7460 c3        1 D9A     -0.089100
     28 C27         1.7840    3.0430    0.8040 c3        1 D9A     -0.089100
     29 C28         1.1450   -2.8940    3.2880 c3        1 D9A     -0.151400
     30 C29         0.6080   -4.2690    2.9240 c         1 D9A      0.645100
     31 N30        -0.6900   -4.3590    2.4890 n         1 D9A     -0.513900
     32 C31        -1.2010   -5.5560    1.8540 c3        1 D9A     -0.069300
     33 C32        -2.2810   -6.2600    2.6760 c3        1 D9A     -0.168400
     34 C33        -1.8800   -6.8060    4.0080 c         1 D9A      0.635100
     35 O34        -2.6620   -7.0580    4.9360 o         1 D9A     -0.558000
     36 O35        -0.5940   -7.1400    4.3090 oh        1 D9A     -0.604100
     37 O36         1.3280   -5.2800    3.1120 o         1 D9A     -0.658100
     38 C38        -1.8460   -5.2660    0.4400 c         1 D9A      0.918600
     39 O39        -2.1590   -6.2790   -0.2340 o         1 D9A     -0.822800
     40 O40        -2.0050   -4.0660    0.0850 o         1 D9A     -0.822800
     41 H5          1.1380   -2.4210    1.1470 h1        1 D9A      0.088700
     42 H7         -0.1390    0.6900    1.9240 h1        1 D9A      0.074700
     43 H8          3.2780   -0.0480   -1.3560 ha        1 D9A      0.137000
     44 H9          1.9630   -0.3830   -3.4130 ha        1 D9A      0.142000
     45 H11        -1.6580   -0.7760   -1.0650 ha        1 D9A      0.180000
     46 H13        -2.3980   -2.2050    0.9720 ha        1 D9A      0.218000
     47 H14        -4.8670   -1.9550    0.9040 ha        1 D9A      0.151000
     48 H15        -5.9320    0.2820    1.1670 ha        1 D9A      0.131000
     49 H19        -6.5190    2.4110    0.9050 h1        1 D9A      0.038700
     50 H19A       -6.1940    2.0870    2.6810 h1        1 D9A      0.038700
     51 H19B       -6.0600    3.7980    2.0190 h1        1 D9A      0.038700
     52 H21        -2.7820    3.7400    0.6020 h1        1 D9A      0.040367
     53 H21A       -1.0280    4.0050    1.1020 h1        1 D9A      0.040367
     54 H21B       -1.4370    2.8210   -0.2430 h1        1 D9A      0.040367
     55 H23         4.1240    0.7230    1.9350 h1        1 D9A      0.058200
     56 H23A        3.7560    1.2180    0.2110 h1        1 D9A      0.058200
     57 H25         2.0880    3.3740    3.5590 hc        1 D9A      0.037256
     58 H25A        2.9900    1.8130    3.8060 hc        1 D9A      0.037256
     59 H25B        1.3070    1.7930    3.1450 hc        1 D9A      0.037256
     60 H26         4.4910    3.4500    0.7220 hc        1 D9A      0.037256
     61 H26A        4.8320    2.9640    2.4380 hc        1 D9A      0.037256
     62 H26B        3.7660    4.3880    2.0920 hc        1 D9A      0.037256
     63 H27         1.5210    4.0790    1.1280 hc        1 D9A      0.037256
     64 H27A        2.1700    3.0830   -0.2420 hc        1 D9A      0.037256
     65 H27B        0.8490    2.4280    0.8190 hc        1 D9A      0.037256
     66 H28         0.5930   -2.5080    4.1850 hc        1 D9A      0.095200
     67 H28A        2.2270   -3.0050    3.5660 hc        1 D9A      0.095200
     68 HN30        0.0130   -6.8400    3.6130 ho        1 D9A      0.457000
     69 H31        -0.3480   -6.2730    1.6700 h1        1 D9A      0.067700
     70 H32        -2.6470   -7.1230    2.0490 hc        1 D9A      0.094200
     71 H32A       -3.1500   -5.5680    2.8360 hc        1 D9A      0.094200
     72 H302       -1.1320   -3.5150    2.1770 hn        1 D9A      0.333500
@<TRIPOS>BOND
     1    1    3 ar  
     2    1    8 1   
     3    1   12 ar  
     4    2   11 1   
     5    3    4 1   
     6    3    9 ar  
     7    4    5 1   
     8    4   24 1   
     9    5    6 1   
    10    5   23 2   
    11    6    7 1   
    12    6   29 1   
    13    6   41 1   
    14    7    8 1   
    15    8   13 1   
    16    8   42 1   
    17    9   10 ar  
    18    9   43 1   
    19   10   11 ar  
    20   10   44 1   
    21   11   12 ar  
    22   12   45 1   
    23   13   14 ar  
    24   13   18 ar  
    25   14   15 ar  
    26   14   46 1   
    27   15   16 ar  
    28   15   47 1   
    29   16   17 ar  
    30   16   48 1   
    31   17   18 ar  
    32   17   19 1   
    33   18   21 1   
    34   19   20 1   
    35   20   49 1   
    36   20   50 1   
    37   20   51 1   
    38   21   22 1   
    39   22   52 1   
    40   22   53 1   
    41   22   54 1   
    42   24   25 1   
    43   24   55 1   
    44   24   56 1   
    45   25   26 1   
    46   25   27 1   
    47   25   28 1   
    48   26   57 1   
    49   26   58 1   
    50   26   59 1   
    51   27   60 1   
    52   27   61 1   
    53   27   62 1   
    54   28   63 1   
    55   28   64 1   
    56   28   65 1   
    57   29   30 1   
    58   29   66 1   
    59   29   67 1   
    60   30   31 1   
    61   30   37 2   
    62   31   32 1   
    63   31   72 1   
    64   32   33 1   
    65   32   38 1   
    66   32   69 1   
    67   33   34 1   
    68   33   70 1   
    69   33   71 1   
    70   34   35 2   
    71   34   36 1   
    72   36   68 1   
    73   38   39 1   
    74   38   40 1   
@<TRIPOS>SUBSTRUCTURE
     1 D9A         1 TEMP              0 ****  ****    0 ROOT
