@<TRIPOS>MOLECULE
D9A
   71    73     1     0     0
SMALL
bcc


@<TRIPOS>ATOM
      1 C1         -1.8710   -0.8940    0.8620 ca        1 D9A     -0.099300
      2 CL1        -3.6180    0.3440    4.2380 cl        1 D9A     -0.117400
      3 C2         -1.8330   -2.3010    1.0440 ca        1 D9A      0.083600
      4 N3         -1.2640   -3.1850    0.0980 n         1 D9A     -0.413000
      5 C4          0.0450   -2.9760   -0.3800 c         1 D9A      0.695500
      6 C5          0.5870   -1.5470   -0.2420 c3        1 D9A      0.083100
      7 O6         -0.2740   -0.7470   -1.0480 os        1 D9A     -0.393600
      8 C7         -1.4430   -0.2200   -0.4150 c3        1 D9A      0.241700
      9 C8         -2.3550   -2.8460    2.2440 ca        1 D9A     -0.157000
     10 C9         -2.9110   -2.0390    3.2250 ca        1 D9A     -0.118000
     11 C10        -2.9390   -0.6570    3.0370 ca        1 D9A     -0.001600
     12 C11        -2.4140   -0.0930    1.8760 ca        1 D9A     -0.085000
     13 C12        -1.2620    1.2710   -0.2850 ca        1 D9A     -0.114300
     14 C13        -0.0360    1.8040    0.1140 ca        1 D9A     -0.097000
     15 C14         0.1830    3.1850    0.1290 ca        1 D9A     -0.070000
     16 C15        -0.8410    4.0530   -0.2330 ca        1 D9A     -0.178000
     17 C16        -2.0830    3.5370   -0.6270 ca        1 D9A      0.062100
     18 C17        -2.2980    2.1470   -0.6670 ca        1 D9A      0.045100
     19 O18        -3.1680    4.3460   -0.9510 os        1 D9A     -0.350900
     20 C19        -2.8190    5.5960   -1.5340 c3        1 D9A      0.121700
     21 O20        -3.4810    1.6190   -1.1780 os        1 D9A     -0.340900
     22 C21        -4.6080    1.8280   -0.3310 c3        1 D9A      0.116700
     23 O22         0.6570   -3.9140   -0.9140 o         1 D9A     -0.623500
     24 C23        -2.0080   -4.3450   -0.3270 c3        1 D9A      0.108000
     25 C24        -2.8830   -4.1540   -1.5920 c3        1 D9A     -0.073000
     26 C25        -2.0560   -3.5880   -2.7330 c3        1 D9A     -0.088433
     27 C26        -3.4110   -5.5280   -1.9820 c3        1 D9A     -0.088433
     28 C27        -4.0530   -3.2330   -1.2960 c3        1 D9A     -0.088433
     29 C28         2.0020   -1.4000   -0.7930 c3        1 D9A     -0.152400
     30 C29         2.7480   -0.3300    0.0160 c         1 D9A      0.639100
     31 N30         3.5460    0.5260   -0.6690 n         1 D9A     -0.471900
     32 C31         4.3370    1.5700   -0.0390 c3        1 D9A     -0.001300
     33 C32         5.7010    1.7450   -0.7150 c3        1 D9A     -0.193400
     34 C33         6.4290    0.4510   -1.0840 c         1 D9A      0.902600
     35 O34         7.5600    0.2170   -0.5620 o         1 D9A     -0.876800
     36 O35         5.9110   -0.3320   -1.9430 o         1 D9A     -0.876800
     37 O36         2.5230   -0.2700    1.2550 o         1 D9A     -0.697100
     38 C38         3.5820    2.9390   -0.0760 c         1 D9A      0.898600
     39 O39         3.3280    3.4930   -1.1840 o         1 D9A     -0.859800
     40 O40         3.2340    3.4550    1.0300 o         1 D9A     -0.859800
     41 H5          0.5720   -1.2340    0.8430 h1        1 D9A      0.116700
     42 H7         -2.2600   -0.4170   -1.1830 h1        1 D9A      0.083700
     43 H8         -2.3090   -3.9320    2.4210 ha        1 D9A      0.133000
     44 H9         -3.3080   -2.4880    4.1470 ha        1 D9A      0.133000
     45 H11        -2.4210    1.0050    1.7520 ha        1 D9A      0.173000
     46 H13         0.7960    1.1310    0.3990 ha        1 D9A      0.188000
     47 H14         1.2000    3.5650    0.3980 ha        1 D9A      0.243000
     48 H15        -0.6650    5.1370   -0.2300 ha        1 D9A      0.134000
     49 H19        -3.7690    5.9500   -2.0080 h1        1 D9A      0.033700
     50 H19A       -2.4940    6.3090   -0.7380 h1        1 D9A      0.033700
     51 H19B       -2.0140    5.4790   -2.2990 h1        1 D9A      0.033700
     52 H21        -4.4580    1.3160    0.6510 h1        1 D9A      0.031033
     53 H21A       -4.7850    2.9200   -0.1750 h1        1 D9A      0.031033
     54 H21B       -5.4570    1.3640   -0.8910 h1        1 D9A      0.031033
     55 H23        -1.2660   -5.1690   -0.5440 h1        1 D9A      0.052200
     56 H23A       -2.6860   -4.6880    0.5050 h1        1 D9A      0.052200
     57 H25        -1.1130   -4.1750   -2.8550 hc        1 D9A      0.036033
     58 H25A       -2.6360   -3.6270   -3.6860 hc        1 D9A      0.036033
     59 H25B       -1.7790   -2.5230   -2.5300 hc        1 D9A      0.036033
     60 H26        -3.9770   -5.9860   -1.1360 hc        1 D9A      0.036033
     61 H26A       -4.0940   -5.4390   -2.8600 hc        1 D9A      0.036033
     62 H26B       -2.5660   -6.2050   -2.2570 hc        1 D9A      0.036033
     63 H27        -3.6870   -2.2270   -0.9740 hc        1 D9A      0.036033
     64 H27A       -4.6810   -3.1040   -2.2110 hc        1 D9A      0.036033
     65 H27B       -4.6910   -3.6580   -0.4840 hc        1 D9A      0.036033
     66 H28         2.5530   -2.3690   -0.6770 hc        1 D9A      0.085200
     67 H28A        1.9570   -1.1480   -1.8830 hc        1 D9A      0.085200
     68 HN30        3.8610    0.2620   -1.5860 hn        1 D9A      0.346500
     69 H31         4.4840    1.2950    1.0470 h1        1 D9A      0.061700
     70 H32         5.5580    2.3370   -1.6570 hc        1 D9A      0.042700
     71 H32A        6.3420    2.3430   -0.0190 hc        1 D9A      0.042700
@<TRIPOS>BOND
     1    1    3 ar  
     2    1    8 1   
     3    1   12 ar  
     4    2   11 1   
     5    3    4 1   
     6    3    9 ar  
     7    4    5 1   
     8    4   24 1   
     9    5    6 1   
    10    5   23 2   
    11    6    7 1   
    12    6   29 1   
    13    6   41 1   
    14    7    8 1   
    15    8   13 1   
    16    8   42 1   
    17    9   10 ar  
    18    9   43 1   
    19   10   11 ar  
    20   10   44 1   
    21   11   12 ar  
    22   12   45 1   
    23   13   14 ar  
    24   13   18 ar  
    25   14   15 ar  
    26   14   46 1   
    27   15   16 ar  
    28   15   47 1   
    29   16   17 ar  
    30   16   48 1   
    31   17   18 ar  
    32   17   19 1   
    33   18   21 1   
    34   19   20 1   
    35   20   49 1   
    36   20   50 1   
    37   20   51 1   
    38   21   22 1   
    39   22   52 1   
    40   22   53 1   
    41   22   54 1   
    42   24   25 1   
    43   24   55 1   
    44   24   56 1   
    45   25   26 1   
    46   25   27 1   
    47   25   28 1   
    48   26   57 1   
    49   26   58 1   
    50   26   59 1   
    51   27   60 1   
    52   27   61 1   
    53   27   62 1   
    54   28   63 1   
    55   28   64 1   
    56   28   65 1   
    57   29   30 1   
    58   29   66 1   
    59   29   67 1   
    60   30   31 1   
    61   30   37 2   
    62   31   32 1   
    63   31   68 1   
    64   32   33 1   
    65   32   38 1   
    66   32   69 1   
    67   33   34 1   
    68   33   70 1   
    69   33   71 1   
    70   34   35 1   
    71   34   36 1   
    72   38   39 1   
    73   38   40 1   
@<TRIPOS>SUBSTRUCTURE
     1 D9A         1 TEMP              0 ****  ****    0 ROOT
