@<TRIPOS>MOLECULE
D9A
   71    68     1     0     0
SMALL
bcc


@<TRIPOS>ATOM
      1 C1         -0.9710    1.8370   -0.9100 c1        1 D9A     -0.115000
      2 CL1        -1.9780    3.2730   -4.5220 cl        1 D9A     -0.063000
      3 C2          0.4140    1.7900   -0.9830 c1        1 D9A      0.154000
      4 N3          1.0060    1.6960    0.3500 n2        1 D9A     -0.268000
      5 C4          0.6740    0.4530    0.9710 c2        1 D9A      0.318000
      6 C5          0.3670   -0.6070   -0.0670 c3        1 D9A     -0.011000
      7 O6         -1.0190   -0.4930   -0.3670 os        1 D9A     -0.269000
      8 C7         -1.5120    0.7410    0.0290 c2        1 D9A      0.120000
      9 C8          1.0680    2.2350   -2.1280 c2        1 D9A     -0.168000
     10 C9          0.3320    2.7290   -3.2040 c1        1 D9A     -0.106000
     11 C10        -1.0520    2.7770   -3.1320 c1        1 D9A     -0.098000
     12 C11        -1.7080    2.3300   -1.9840 c2        1 D9A     -0.090000
     13 C12        -3.0380    0.7230   -0.0330 c2        1 D9A     -0.117000
     14 C13        -3.6920    0.5230   -1.2740 c2        1 D9A     -0.103000
     15 C14        -5.0840    0.4150   -1.3220 c1        1 D9A     -0.082000
     16 C15        -5.8450    0.5030   -0.1280 c1        1 D9A     -0.187000
     17 C16        -5.1950    0.7010    1.1060 c1        1 D9A      0.023000
     18 C17        -3.7930    0.8110    1.1540 c1        1 D9A      0.021000
     19 O18        -5.9520    0.7920    2.2890 os        1 D9A     -0.218000
     20 C19        -7.2430    0.2490    2.1790 c3        1 D9A     -0.072000
     21 O20        -3.1250    0.9930    2.4210 os        1 D9A     -0.234000
     22 C21        -3.8890    1.8230    3.3880 c3        1 D9A     -0.075000
     23 O22         0.7400    0.2480    2.1530 o         1 D9A     -0.366000
     24 C23         1.7190    2.8050    1.0280 c3        1 D9A     -0.019000
     25 C24         3.2200    2.3770    1.3040 c3        1 D9A     -0.070000
     26 C25         3.7990    1.7120    0.0530 c3        1 D9A     -0.208667
     27 C26         4.0760    3.6480    1.6670 c3        1 D9A     -0.208667
     28 C27         3.2580    1.3740    2.4840 c3        1 D9A     -0.208667
     29 C28         0.7760   -2.0490    0.3870 c3        1 D9A     -0.191000
     30 C29         1.2980   -2.8370   -0.8250 c2        1 D9A      0.291000
     31 N30         1.9610   -4.1210   -0.6320 n         1 D9A     -0.287000
     32 C31         2.8570   -4.6280   -1.6480 c3        1 D9A     -0.044000
     33 C32         3.7880   -5.6650   -1.0370 c3        1 D9A     -0.215000
     34 C33         5.0630   -5.7790   -1.8950 c2        1 D9A      0.324000
     35 O34         6.1490   -5.3010   -1.4730 o         1 D9A     -0.627500
     36 O35         5.0200   -6.3520   -3.0160 o         1 D9A     -0.627500
     37 O36         1.1860   -2.3840   -1.9220 o         1 D9A     -0.429000
     38 C38         2.0580   -5.2570   -2.7520 c2        1 D9A      0.334000
     39 O39         1.1990   -6.1490   -2.4850 o         1 D9A     -0.588500
     40 O40         2.2830   -4.9300   -3.9710 o         1 D9A     -0.588500
     41 H5          0.9100   -0.4930   -0.8590 h1        1 D9A      0.212000
     42 H7         -1.2300    0.9230    0.9270 h4        1 D9A      0.120000
     43 H8          2.0280    2.2020   -2.1760 ha        1 D9A      0.147000
     44 H9          0.8020    3.0520   -4.0230 ha        1 D9A      0.129000
     45 H11        -2.6680    2.4410   -1.9010 ha        1 D9A      0.151000
     46 H13        -3.1700    0.3610   -2.0700 ha        1 D9A      0.230000
     47 H14        -5.5250    0.2350   -2.1620 ha        1 D9A      0.196000
     48 H15        -6.8100    0.3340   -0.1490 ha        1 D9A      0.121000
     49 H19        -7.7410    0.7410    1.5200 h1        1 D9A      0.071000
     50 H19A       -7.6960    0.3090    3.0390 h1        1 D9A      0.071000
     51 H19B       -7.1800   -0.6880    1.9070 h1        1 D9A      0.071000
     52 H21        -4.5490    2.3820    2.8930 h1        1 D9A      0.076667
     53 H21A       -4.3660    1.2340    4.0230 h1        1 D9A      0.076667
     54 H21B       -3.2580    2.4190    3.8930 h1        1 D9A      0.076667
     55 H23         1.7030    3.6030    0.4540 h1        1 D9A      0.086000
     56 H23A        1.2690    3.0080    1.8890 h1        1 D9A      0.086000
     57 H25         4.7090    1.4320    0.2270 hc        1 D9A      0.079000
     58 H25A        3.7910    2.3420   -0.6820 hc        1 D9A      0.079000
     59 H25B        3.2510    0.9250   -0.1830 hc        1 D9A      0.079000
     60 H26         4.1330    4.2400    0.8850 hc        1 D9A      0.079000
     61 H26A        3.6540    4.1250    2.4060 hc        1 D9A      0.079000
     62 H26B        4.9620    3.3750    1.9260 hc        1 D9A      0.079000
     63 H27         2.5590    1.5850    3.1040 hc        1 D9A      0.079000
     64 H27A        3.1260    0.4590    2.1410 hc        1 D9A      0.079000
     65 H27B        4.1380    1.4330    2.9440 hc        1 D9A      0.079000
     66 H28        -0.0010   -2.5050    0.7620 hc        1 D9A      0.115000
     67 H28A        1.4790   -1.9900    1.0690 hc        1 D9A      0.115000
     68 HN30        1.7160   -4.6670    0.0880 hn        1 D9A      0.228000
     69 H31         3.3880   -3.8890   -2.0130 h1        1 D9A      0.109000
     70 H32         4.0320   -5.3920   -0.1250 hc        1 D9A      0.085000
     71 H32A        3.3280   -6.5440   -1.0080 hc        1 D9A      0.085000
@<TRIPOS>BOND
     1    1    3 1   
     2    1   12 1   
     3    2   11 1   
     4    3    9 1   
     5    4    5 1   
     6    4   24 1   
     7    5    6 1   
     8    5   23 1   
     9    6    7 1   
    10    6   29 1   
    11    6   41 1   
    12    7    8 1   
    13    8   13 1   
    14    8   42 1   
    15    9   10 1   
    16    9   43 1   
    17   10   44 1   
    18   11   12 1   
    19   12   45 1   
    20   13   14 1   
    21   13   18 1   
    22   14   15 1   
    23   14   46 1   
    24   15   47 1   
    25   16   17 1   
    26   16   48 1   
    27   17   19 1   
    28   18   21 1   
    29   19   20 1   
    30   20   49 1   
    31   20   50 1   
    32   20   51 1   
    33   21   22 1   
    34   22   52 1   
    35   22   53 1   
    36   22   54 1   
    37   24   25 1   
    38   24   55 1   
    39   24   56 1   
    40   25   26 1   
    41   25   27 1   
    42   25   28 1   
    43   26   57 1   
    44   26   58 1   
    45   26   59 1   
    46   27   60 1   
    47   27   61 1   
    48   27   62 1   
    49   28   63 1   
    50   28   64 1   
    51   28   65 1   
    52   29   30 1   
    53   29   66 1   
    54   29   67 1   
    55   30   31 1   
    56   30   37 1   
    57   31   32 1   
    58   31   68 1   
    59   32   33 1   
    60   32   38 1   
    61   32   69 1   
    62   33   34 1   
    63   33   70 1   
    64   33   71 1   
    65   34   35 1   
    66   34   36 1   
    67   38   39 1   
    68   38   40 1   
@<TRIPOS>SUBSTRUCTURE
     1 D9A         1 TEMP              0 ****  ****    0 ROOT
