@<TRIPOS>MOLECULE
D9G
   52    51     1     0     0
SMALL
bcc


@<TRIPOS>ATOM
      1 CAC         0.0370    0.0060   -0.1420 c3        1 D9G     -0.093100
      2 CAD         1.5430   -0.0000   -0.0790 c3        1 D9G     -0.080400
      3 CAE         2.0390    0.0070    1.3510 c3        1 D9G     -0.079400
      4 CAF         3.5510   -0.0000    1.4100 c3        1 D9G     -0.079400
      5 CAG         4.0450    0.0070    2.8410 c3        1 D9G     -0.079400
      6 CAH         5.5580   -0.0010    2.8990 c3        1 D9G     -0.079400
      7 CAI         6.0510    0.0050    4.3300 c3        1 D9G     -0.079400
      8 CAJ         7.5640   -0.0020    4.3870 c3        1 D9G     -0.079400
      9 CAK         8.0570    0.0030    5.8190 c3        1 D9G     -0.079400
     10 CAL         9.5700   -0.0050    5.8740 c3        1 D9G     -0.079400
     11 CAM        10.0570   -0.0010    7.3090 c3        1 D9G     -0.099400
     12 CAN        11.5790   -0.0100    7.3240 c3        1 D9G      0.100800
     13 NAO        12.2240   -0.0060    8.6820 n4        1 D9G     -0.567800
     14 CAS        11.8340    1.2190    9.4350 c3        1 D9G      0.085100
     15 CAA        11.8140   -1.2140    9.4520 c3        1 D9G      0.085100
     16 CAP        13.7150   -0.0190    8.4870 c3        1 D9G     -0.059200
     17 CAQ        14.6020   -0.0170    9.7970 c         1 D9G      0.933600
     18 OAB        15.8240   -0.0270    9.5520 o         1 D9G     -0.772300
     19 OAR        14.0220   -0.0050   10.9130 o         1 D9G     -0.772300
     20 HAC1       -0.3070    0.0010   -1.2050 hc        1 D9G      0.033033
     21 HAC2       -0.3830   -0.8930    0.3690 hc        1 D9G      0.033033
     22 HAC3       -0.3740    0.9170    0.3570 hc        1 D9G      0.033033
     23 HAD1        1.9380   -0.9080   -0.6070 hc        1 D9G      0.038700
     24 HAD2        1.9470    0.8970   -0.6190 hc        1 D9G      0.038700
     25 HAE1        1.6370   -0.8900    1.8920 hc        1 D9G      0.039700
     26 HAE2        1.6450    0.9150    1.8800 hc        1 D9G      0.039700
     27 HAF1        3.9440   -0.9080    0.8810 hc        1 D9G      0.039700
     28 HAF2        3.9530    0.8970    0.8690 hc        1 D9G      0.039700
     29 HAG1        3.6530    0.9150    3.3700 hc        1 D9G      0.040700
     30 HAG2        3.6430   -0.8900    3.3820 hc        1 D9G      0.040700
     31 HAH1        5.9500   -0.9090    2.3690 hc        1 D9G      0.040700
     32 HAH2        5.9590    0.8970    2.3580 hc        1 D9G      0.040700
     33 HAI1        5.6490   -0.8920    4.8700 hc        1 D9G      0.040700
     34 HAI2        5.6590    0.9140    4.8590 hc        1 D9G      0.040700
     35 HAJ1        7.9560   -0.9100    3.8570 hc        1 D9G      0.042700
     36 HAJ2        7.9660    0.8950    3.8470 hc        1 D9G      0.042700
     37 HAK1        7.6650    0.9110    6.3480 hc        1 D9G      0.043700
     38 HAK2        7.6550   -0.8950    6.3580 hc        1 D9G      0.043700
     39 HAL1        9.9600   -0.9140    5.3440 hc        1 D9G      0.048700
     40 HAL2        9.9710    0.8930    5.3340 hc        1 D9G      0.048700
     41 HAM1        9.6520   -0.9010    7.8420 hc        1 D9G      0.057700
     42 HAM2        9.6630    0.9100    7.8320 hc        1 D9G      0.057700
     43 HAN1       11.9600    0.8970    6.7730 hx        1 D9G      0.083700
     44 HAN2       11.9480   -0.9290    6.7850 hx        1 D9G      0.083700
     45 HAS1       10.7340    1.1980    9.6450 hx        1 D9G      0.096700
     46 HAS2       12.4110    1.2380   10.4080 hx        1 D9G      0.096700
     47 HAS3       12.0920    2.1230    8.8260 hx        1 D9G      0.096700
     48 HAA1       12.3920   -1.2290   10.4250 hx        1 D9G      0.096700
     49 HAA2       12.0560   -2.1300    8.8560 hx        1 D9G      0.096700
     50 HAA3       10.7150   -1.1710    9.6630 hx        1 D9G      0.096700
     51 HAP1       13.9950    0.8910    7.8950 hx        1 D9G      0.076700
     52 HAP2       13.9800   -0.9430    7.9090 hx        1 D9G      0.076700
@<TRIPOS>BOND
     1    1    2 1   
     2    1   20 1   
     3    1   21 1   
     4    1   22 1   
     5    2    3 1   
     6    2   23 1   
     7    2   24 1   
     8    3    4 1   
     9    3   25 1   
    10    3   26 1   
    11    4    5 1   
    12    4   27 1   
    13    4   28 1   
    14    5    6 1   
    15    5   29 1   
    16    5   30 1   
    17    6    7 1   
    18    6   31 1   
    19    6   32 1   
    20    7    8 1   
    21    7   33 1   
    22    7   34 1   
    23    8    9 1   
    24    8   35 1   
    25    8   36 1   
    26    9   10 1   
    27    9   37 1   
    28    9   38 1   
    29   10   11 1   
    30   10   39 1   
    31   10   40 1   
    32   11   12 1   
    33   11   41 1   
    34   11   42 1   
    35   12   13 1   
    36   12   43 1   
    37   12   44 1   
    38   13   14 1   
    39   13   15 1   
    40   13   16 1   
    41   14   45 1   
    42   14   46 1   
    43   14   47 1   
    44   15   48 1   
    45   15   49 1   
    46   15   50 1   
    47   16   17 1   
    48   16   51 1   
    49   16   52 1   
    50   17   18 1   
    51   17   19 1   
@<TRIPOS>SUBSTRUCTURE
     1 D9G         1 TEMP              0 ****  ****    0 ROOT
