@<TRIPOS>MOLECULE
D9G
   52    51     1     0     0
SMALL
bcc


@<TRIPOS>ATOM
      1 CAC         0.0370    0.0020   -0.1420 c3        1 D9G     -0.093100
      2 CAD         1.5420    0.0020   -0.0790 c3        1 D9G     -0.080400
      3 CAE         2.0380    0.0030    1.3520 c3        1 D9G     -0.079400
      4 CAF         3.5510    0.0020    1.4100 c3        1 D9G     -0.079400
      5 CAG         4.0450    0.0040    2.8410 c3        1 D9G     -0.079400
      6 CAH         5.5580    0.0010    2.8990 c3        1 D9G     -0.079400
      7 CAI         6.0510    0.0030    4.3300 c3        1 D9G     -0.079400
      8 CAJ         7.5640   -0.0010    4.3870 c3        1 D9G     -0.079400
      9 CAK         8.0570    0.0020    5.8190 c3        1 D9G     -0.079400
     10 CAL         9.5700   -0.0040    5.8740 c3        1 D9G     -0.079400
     11 CAM        10.0570   -0.0010    7.3090 c3        1 D9G     -0.099400
     12 CAN        11.5790   -0.0090    7.3240 c3        1 D9G      0.100800
     13 NAO        12.2240   -0.0050    8.6820 n4        1 D9G     -0.567800
     14 CAS        11.8330    1.2200    9.4350 c3        1 D9G      0.085100
     15 CAA        11.8150   -1.2130    9.4520 c3        1 D9G      0.085100
     16 CAP        13.7160   -0.0170    8.4870 c3        1 D9G     -0.059200
     17 CAQ        14.6020   -0.0140    9.7970 c         1 D9G      0.933600
     18 OAB        15.8240   -0.0240    9.5510 o         1 D9G     -0.772300
     19 OAR        14.0220   -0.0030   10.9120 o         1 D9G     -0.772300
     20 HAC1       -0.3790    0.9080    0.3630 hc        1 D9G      0.033033
     21 HAC2       -0.3800   -0.9020    0.3650 hc        1 D9G      0.033033
     22 HAC3       -0.3070    0.0010   -1.2040 hc        1 D9G      0.033033
     23 HAD1        1.9410   -0.9020   -0.6110 hc        1 D9G      0.038700
     24 HAD2        1.9420    0.9030   -0.6140 hc        1 D9G      0.038700
     25 HAE1        1.6400   -0.8980    1.8880 hc        1 D9G      0.039700
     26 HAE2        1.6420    0.9070    1.8850 hc        1 D9G      0.039700
     27 HAF1        3.9490    0.9030    0.8730 hc        1 D9G      0.039700
     28 HAF2        3.9470   -0.9020    0.8760 hc        1 D9G      0.039700
     29 HAG1        3.6460   -0.8970    3.3780 hc        1 D9G      0.040700
     30 HAG2        3.6500    0.9080    3.3740 hc        1 D9G      0.040700
     31 HAH1        5.9530   -0.9040    2.3660 hc        1 D9G      0.040700
     32 HAH2        5.9560    0.9020    2.3620 hc        1 D9G      0.040700
     33 HAI1        5.6520   -0.8970    4.8670 hc        1 D9G      0.040700
     34 HAI2        5.6570    0.9080    4.8620 hc        1 D9G      0.040700
     35 HAJ1        7.9580   -0.9060    3.8550 hc        1 D9G      0.042700
     36 HAJ2        7.9630    0.8990    3.8500 hc        1 D9G      0.042700
     37 HAK1        7.6560   -0.8980    6.3560 hc        1 D9G      0.043700
     38 HAK2        7.6630    0.9080    6.3510 hc        1 D9G      0.043700
     39 HAL1        9.9690    0.8960    5.3360 hc        1 D9G      0.048700
     40 HAL2        9.9620   -0.9110    5.3420 hc        1 D9G      0.048700
     41 HAM1        9.6530   -0.9030    7.8400 hc        1 D9G      0.057700
     42 HAM2        9.6620    0.9080    7.8330 hc        1 D9G      0.057700
     43 HAN1       11.9590    0.8990    6.7740 hx        1 D9G      0.083700
     44 HAN2       11.9490   -0.9270    6.7840 hx        1 D9G      0.083700
     45 HAS1       12.0920    2.1240    8.8270 hx        1 D9G      0.096700
     46 HAS2       12.4110    1.2390   10.4080 hx        1 D9G      0.096700
     47 HAS3       10.7340    1.1990    9.6450 hx        1 D9G      0.096700
     48 HAA1       12.3930   -1.2280   10.4240 hx        1 D9G      0.096700
     49 HAA2       12.0580   -2.1290    8.8550 hx        1 D9G      0.096700
     50 HAA3       10.7160   -1.1710    9.6630 hx        1 D9G      0.096700
     51 HAP1       13.9940    0.8930    7.8940 hx        1 D9G      0.076700
     52 HAP2       13.9810   -0.9410    7.9080 hx        1 D9G      0.076700
@<TRIPOS>BOND
     1    1    2 1   
     2    1   20 1   
     3    1   21 1   
     4    1   22 1   
     5    2    3 1   
     6    2   23 1   
     7    2   24 1   
     8    3    4 1   
     9    3   25 1   
    10    3   26 1   
    11    4    5 1   
    12    4   27 1   
    13    4   28 1   
    14    5    6 1   
    15    5   29 1   
    16    5   30 1   
    17    6    7 1   
    18    6   31 1   
    19    6   32 1   
    20    7    8 1   
    21    7   33 1   
    22    7   34 1   
    23    8    9 1   
    24    8   35 1   
    25    8   36 1   
    26    9   10 1   
    27    9   37 1   
    28    9   38 1   
    29   10   11 1   
    30   10   39 1   
    31   10   40 1   
    32   11   12 1   
    33   11   41 1   
    34   11   42 1   
    35   12   13 1   
    36   12   43 1   
    37   12   44 1   
    38   13   14 1   
    39   13   15 1   
    40   13   16 1   
    41   14   45 1   
    42   14   46 1   
    43   14   47 1   
    44   15   48 1   
    45   15   49 1   
    46   15   50 1   
    47   16   17 1   
    48   16   51 1   
    49   16   52 1   
    50   17   18 1   
    51   17   19 1   
@<TRIPOS>SUBSTRUCTURE
     1 D9G         1 TEMP              0 ****  ****    0 ROOT
