@<TRIPOS>MOLECULE
D9G
   52    51     1     0     0
SMALL
bcc


@<TRIPOS>ATOM
      1 CAC         0.0400    0.0070   -0.1460 c3        1 D9G     -0.093100
      2 CAD         1.5450    0.0040   -0.0820 c3        1 D9G     -0.080400
      3 CAE         2.0400    0.0050    1.3490 c3        1 D9G     -0.079400
      4 CAF         3.5530    0.0020    1.4080 c3        1 D9G     -0.079400
      5 CAG         4.0460    0.0030    2.8390 c3        1 D9G     -0.079400
      6 CAH         5.5590   -0.0000    2.8980 c3        1 D9G     -0.079400
      7 CAI         6.0520    0.0010    4.3290 c3        1 D9G     -0.079400
      8 CAJ         7.5640   -0.0020    4.3870 c3        1 D9G     -0.079400
      9 CAK         8.0560   -0.0010    5.8190 c3        1 D9G     -0.079400
     10 CAL         9.5690   -0.0040    5.8750 c3        1 D9G     -0.079400
     11 CAM        10.0560   -0.0030    7.3110 c3        1 D9G     -0.099400
     12 CAN        11.5780   -0.0060    7.3260 c3        1 D9G      0.100800
     13 NAO        12.2220   -0.0050    8.6840 n4        1 D9G     -0.567800
     14 CAS        11.8250    1.2140    9.4430 c3        1 D9G      0.085100
     15 CAA        11.8190   -1.2190    9.4480 c3        1 D9G      0.085100
     16 CAP        13.7140   -0.0100    8.4900 c3        1 D9G     -0.059200
     17 CAQ        14.6000   -0.0090    9.8000 c         1 D9G      0.933600
     18 OAB        15.8220   -0.0130    9.5550 o         1 D9G     -0.772300
     19 OAR        14.0190   -0.0060   10.9150 o         1 D9G     -0.772300
     20 HAC1       -0.3040    0.0050   -1.2080 hc        1 D9G      0.033033
     21 HAC2       -0.3790   -0.8960    0.3610 hc        1 D9G      0.033033
     22 HAC3       -0.3750    0.9130    0.3580 hc        1 D9G      0.033033
     23 HAD1        1.9430   -0.9010   -0.6140 hc        1 D9G      0.038700
     24 HAD2        1.9470    0.9040   -0.6170 hc        1 D9G      0.038700
     25 HAE1        1.6400   -0.8960    1.8850 hc        1 D9G      0.039700
     26 HAE2        1.6440    0.9090    1.8820 hc        1 D9G      0.039700
     27 HAF1        3.9480   -0.9030    0.8750 hc        1 D9G      0.039700
     28 HAF2        3.9520    0.9020    0.8720 hc        1 D9G      0.039700
     29 HAG1        3.6510    0.9080    3.3720 hc        1 D9G      0.040700
     30 HAG2        3.6470   -0.8970    3.3760 hc        1 D9G      0.040700
     31 HAH1        5.9540   -0.9050    2.3650 hc        1 D9G      0.040700
     32 HAH2        5.9580    0.9010    2.3610 hc        1 D9G      0.040700
     33 HAI1        5.6520   -0.8990    4.8660 hc        1 D9G      0.040700
     34 HAI2        5.6560    0.9060    4.8620 hc        1 D9G      0.040700
     35 HAJ1        7.9590   -0.9070    3.8540 hc        1 D9G      0.042700
     36 HAJ2        7.9630    0.8990    3.8510 hc        1 D9G      0.042700
     37 HAK1        7.6610    0.9040    6.3520 hc        1 D9G      0.043700
     38 HAK2        7.6570   -0.9020    6.3550 hc        1 D9G      0.043700
     39 HAL1        9.9630   -0.9100    5.3420 hc        1 D9G      0.048700
     40 HAL2        9.9680    0.8970    5.3380 hc        1 D9G      0.048700
     41 HAM1        9.6540   -0.9060    7.8400 hc        1 D9G      0.057700
     42 HAM2        9.6590    0.9050    7.8360 hc        1 D9G      0.057700
     43 HAN1       11.9550    0.9050    6.7790 hx        1 D9G      0.083700
     44 HAN2       11.9510   -0.9220    6.7830 hx        1 D9G      0.083700
     45 HAS1       10.7260    1.1850    9.6530 hx        1 D9G      0.096700
     46 HAS2       12.4020    1.2310   10.4160 hx        1 D9G      0.096700
     47 HAS3       12.0790    2.1220    8.8390 hx        1 D9G      0.096700
     48 HAA1       12.3960   -1.2360   10.4210 hx        1 D9G      0.096700
     49 HAA2       12.0670   -2.1310    8.8470 hx        1 D9G      0.096700
     50 HAA3       10.7200   -1.1840    9.6580 hx        1 D9G      0.096700
     51 HAP1       13.9890    0.9060    7.9020 hx        1 D9G      0.076700
     52 HAP2       13.9840   -0.9290    7.9060 hx        1 D9G      0.076700
@<TRIPOS>BOND
     1    1    2 1   
     2    1   20 1   
     3    1   21 1   
     4    1   22 1   
     5    2    3 1   
     6    2   23 1   
     7    2   24 1   
     8    3    4 1   
     9    3   25 1   
    10    3   26 1   
    11    4    5 1   
    12    4   27 1   
    13    4   28 1   
    14    5    6 1   
    15    5   29 1   
    16    5   30 1   
    17    6    7 1   
    18    6   31 1   
    19    6   32 1   
    20    7    8 1   
    21    7   33 1   
    22    7   34 1   
    23    8    9 1   
    24    8   35 1   
    25    8   36 1   
    26    9   10 1   
    27    9   37 1   
    28    9   38 1   
    29   10   11 1   
    30   10   39 1   
    31   10   40 1   
    32   11   12 1   
    33   11   41 1   
    34   11   42 1   
    35   12   13 1   
    36   12   43 1   
    37   12   44 1   
    38   13   14 1   
    39   13   15 1   
    40   13   16 1   
    41   14   45 1   
    42   14   46 1   
    43   14   47 1   
    44   15   48 1   
    45   15   49 1   
    46   15   50 1   
    47   16   17 1   
    48   16   51 1   
    49   16   52 1   
    50   17   18 1   
    51   17   19 1   
@<TRIPOS>SUBSTRUCTURE
     1 D9G         1 TEMP              0 ****  ****    0 ROOT
