@<TRIPOS>MOLECULE
D9G
   52    51     1     0     0
SMALL
bcc


@<TRIPOS>ATOM
      1 CAC        10.4370   -0.3970    0.0260 c3        1 D9G     -0.093100
      2 CAD         9.1990    0.4600   -0.0060 c3        1 D9G     -0.080400
      3 CAE         7.9400   -0.3810    0.0210 c3        1 D9G     -0.079400
      4 CAF         6.6990    0.4840   -0.0110 c3        1 D9G     -0.079400
      5 CAG         5.4410   -0.3590    0.0150 c3        1 D9G     -0.079400
      6 CAH         4.2000    0.5070   -0.0170 c3        1 D9G     -0.079400
      7 CAI         2.9430   -0.3360    0.0100 c3        1 D9G     -0.079400
      8 CAJ         1.7020    0.5300   -0.0230 c3        1 D9G     -0.079400
      9 CAK         0.4450   -0.3140    0.0040 c3        1 D9G     -0.079400
     10 CAL        -0.7950    0.5550   -0.0290 c3        1 D9G     -0.079400
     11 CAM        -2.0490   -0.2960   -0.0020 c3        1 D9G     -0.099400
     12 CAN        -3.2720    0.6100   -0.0350 c3        1 D9G      0.100800
     13 NAO        -4.6050   -0.0840   -0.0140 n4        1 D9G     -0.567800
     14 CAS        -4.7430   -0.9740   -1.2010 c3        1 D9G      0.085100
     15 CAA        -4.7480   -0.8900    1.2310 c3        1 D9G      0.085100
     16 CAP        -5.6770    0.9710   -0.0520 c3        1 D9G     -0.059200
     17 CAQ        -7.1750    0.4610   -0.0380 c         1 D9G      0.933600
     18 OAB        -8.0010    1.3930   -0.0720 o         1 D9G     -0.772300
     19 OAR        -7.3850   -0.7780    0.0050 o         1 D9G     -0.772300
     20 HAC1       10.4630   -1.0190    0.9530 hc        1 D9G      0.033033
     21 HAC2       10.4660   -1.0820   -0.8560 hc        1 D9G      0.033033
     22 HAC3       11.3530    0.2430    0.0060 hc        1 D9G      0.033033
     23 HAD1        9.2000    1.1580    0.8730 hc        1 D9G      0.038700
     24 HAD2        9.2040    1.0960   -0.9310 hc        1 D9G      0.038700
     25 HAE1        7.9360   -1.0780   -0.8580 hc        1 D9G      0.039700
     26 HAE2        7.9330   -1.0160    0.9460 hc        1 D9G      0.039700
     27 HAF1        6.7030    1.1810    0.8680 hc        1 D9G      0.039700
     28 HAF2        6.7070    1.1190   -0.9360 hc        1 D9G      0.039700
     29 HAG1        5.4370   -1.0560   -0.8640 hc        1 D9G      0.040700
     30 HAG2        5.4340   -0.9930    0.9400 hc        1 D9G      0.040700
     31 HAH1        4.2040    1.2040    0.8620 hc        1 D9G      0.040700
     32 HAH2        4.2080    1.1420   -0.9420 hc        1 D9G      0.040700
     33 HAI1        2.9390   -1.0330   -0.8700 hc        1 D9G      0.040700
     34 HAI2        2.9350   -0.9710    0.9350 hc        1 D9G      0.040700
     35 HAJ1        1.7060    1.2270    0.8570 hc        1 D9G      0.042700
     36 HAJ2        1.7100    1.1650   -0.9480 hc        1 D9G      0.042700
     37 HAK1        0.4410   -1.0100   -0.8760 hc        1 D9G      0.043700
     38 HAK2        0.4380   -0.9480    0.9290 hc        1 D9G      0.043700
     39 HAL1       -0.7890    1.2510    0.8520 hc        1 D9G      0.048700
     40 HAL2       -0.7860    1.1880   -0.9550 hc        1 D9G      0.048700
     41 HAM1       -2.0470   -0.9890   -0.8840 hc        1 D9G      0.057700
     42 HAM2       -2.0510   -0.9260    0.9260 hc        1 D9G      0.057700
     43 HAN1       -3.2440    1.3020    0.8550 hx        1 D9G      0.083700
     44 HAN2       -3.2400    1.2390   -0.9710 hx        1 D9G      0.083700
     45 HAS1       -3.9940   -1.8030   -1.1390 hx        1 D9G      0.096700
     46 HAS2       -5.7910   -1.4020   -1.2050 hx        1 D9G      0.096700
     47 HAS3       -4.5780   -0.3740   -2.1310 hx        1 D9G      0.096700
     48 HAA1       -4.5860   -0.2280    2.1190 hx        1 D9G      0.096700
     49 HAA2       -5.7960   -1.3170    1.2600 hx        1 D9G      0.096700
     50 HAA3       -3.9980   -1.7220    1.2290 hx        1 D9G      0.096700
     51 HAP1       -5.5430    1.6330    0.8430 hx        1 D9G      0.076700
     52 HAP2       -5.5390    1.5700   -0.9900 hx        1 D9G      0.076700
@<TRIPOS>BOND
     1    1    2 1   
     2    1   20 1   
     3    1   21 1   
     4    1   22 1   
     5    2    3 1   
     6    2   23 1   
     7    2   24 1   
     8    3    4 1   
     9    3   25 1   
    10    3   26 1   
    11    4    5 1   
    12    4   27 1   
    13    4   28 1   
    14    5    6 1   
    15    5   29 1   
    16    5   30 1   
    17    6    7 1   
    18    6   31 1   
    19    6   32 1   
    20    7    8 1   
    21    7   33 1   
    22    7   34 1   
    23    8    9 1   
    24    8   35 1   
    25    8   36 1   
    26    9   10 1   
    27    9   37 1   
    28    9   38 1   
    29   10   11 1   
    30   10   39 1   
    31   10   40 1   
    32   11   12 1   
    33   11   41 1   
    34   11   42 1   
    35   12   13 1   
    36   12   43 1   
    37   12   44 1   
    38   13   14 1   
    39   13   15 1   
    40   13   16 1   
    41   14   45 1   
    42   14   46 1   
    43   14   47 1   
    44   15   48 1   
    45   15   49 1   
    46   15   50 1   
    47   16   17 1   
    48   16   51 1   
    49   16   52 1   
    50   17   18 1   
    51   17   19 1   
@<TRIPOS>SUBSTRUCTURE
     1 D9G         1 TEMP              0 ****  ****    0 ROOT
