@<TRIPOS>MOLECULE
D9G
   52    51     1     0     0
SMALL
bcc


@<TRIPOS>ATOM
      1 CAC        -7.7790    0.0010   -5.2280 c3        1 D9G     -0.093100
      2 CAD        -6.2410    0.0020   -5.2280 c3        1 D9G     -0.080400
      3 CAE        -5.7290    0.0030   -3.7770 c3        1 D9G     -0.079400
      4 CAF        -4.1890    0.0060   -3.7770 c3        1 D9G     -0.079400
      5 CAG        -3.6760    0.0040   -2.3240 c3        1 D9G     -0.079400
      6 CAH        -2.1350    0.0100   -2.3240 c3        1 D9G     -0.079400
      7 CAI        -1.6210    0.0050   -0.8700 c3        1 D9G     -0.079400
      8 CAJ        -0.0790    0.0150   -0.8700 c3        1 D9G     -0.079400
      9 CAK         0.4350    0.0060    0.5850 c3        1 D9G     -0.079400
     10 CAL         1.9780    0.0240    0.5850 c3        1 D9G     -0.079400
     11 CAM         2.4940    0.0090    2.0420 c3        1 D9G     -0.099400
     12 CAN         4.0400    0.0640    2.0430 c3        1 D9G      0.100800
     13 NAO         4.5300    0.0180    3.4200 n4        1 D9G     -0.567800
     14 CAS         3.8890    1.0590    4.1960 c3        1 D9G      0.085100
     15 CAA         4.2240   -1.2730    3.9990 c3        1 D9G      0.085100
     16 CAP         5.9680    0.2240    3.4300 c3        1 D9G     -0.059200
     17 CAQ         6.5180   -0.0820    4.8230 c         1 D9G      0.933600
     18 OAB         6.9840   -1.2290    5.0800 o         1 D9G     -0.772300
     19 OAR         6.5840    0.8340    5.6910 o         1 D9G     -0.772300
     20 HAC1       -7.6150    0.8970   -4.8610 hc        1 D9G      0.033033
     21 HAC2       -7.6130   -0.8950   -4.8600 hc        1 D9G      0.033033
     22 HAC3       -8.4330    0.0010   -4.4920 hc        1 D9G      0.033033
     23 HAD1       -5.9140    0.8050   -5.6910 hc        1 D9G      0.038700
     24 HAD2       -5.9130   -0.8010   -5.6910 hc        1 D9G      0.038700
     25 HAE1       -6.0550   -0.8010   -3.3140 hc        1 D9G      0.039700
     26 HAE2       -6.0580    0.8050   -3.3130 hc        1 D9G      0.039700
     27 HAF1       -3.8630    0.8100   -4.2390 hc        1 D9G      0.039700
     28 HAF2       -3.8600   -0.7960   -4.2420 hc        1 D9G      0.039700
     29 HAG1       -4.0070    0.8040   -1.8590 hc        1 D9G      0.040700
     30 HAG2       -4.0010   -0.8010   -1.8630 hc        1 D9G      0.040700
     31 HAH1       -1.8040   -0.7890   -2.7910 hc        1 D9G      0.040700
     32 HAH2       -1.8100    0.8160   -2.7830 hc        1 D9G      0.040700
     33 HAI1       -1.9440   -0.8030   -0.4110 hc        1 D9G      0.040700
     34 HAI2       -1.9540    0.8030   -0.4020 hc        1 D9G      0.040700
     35 HAJ1        0.2540   -0.7820   -1.3400 hc        1 D9G      0.042700
     36 HAJ2        0.2440    0.8240   -1.3260 hc        1 D9G      0.042700
     37 HAK1        0.0980    0.8000    1.0570 hc        1 D9G      0.043700
     38 HAK2        0.1170   -0.8060    1.0400 hc        1 D9G      0.043700
     39 HAL1        2.3160   -0.7680    0.1100 hc        1 D9G      0.048700
     40 HAL2        2.2970    0.8380    0.1340 hc        1 D9G      0.048700
     41 HAM1        2.1960   -0.8160    2.4860 hc        1 D9G      0.057700
     42 HAM2        2.1380    0.7880    2.5240 hc        1 D9G      0.057700
     43 HAN1        4.3390    0.9000    1.6170 hx        1 D9G      0.083700
     44 HAN2        4.3970   -0.7050    1.5420 hx        1 D9G      0.083700
     45 HAS1        4.3890    1.2010    5.0310 hx        1 D9G      0.096700
     46 HAS2        2.9670    0.7900    4.4070 hx        1 D9G      0.096700
     47 HAS3        3.8760    1.8950    3.6760 hx        1 D9G      0.096700
     48 HAA1        3.2520   -1.4140    3.9880 hx        1 D9G      0.096700
     49 HAA2        4.5490   -1.3020    4.9270 hx        1 D9G      0.096700
     50 HAA3        4.6640   -1.9800    3.4750 hx        1 D9G      0.096700
     51 HAP1        6.1670    1.1590    3.1970 hx        1 D9G      0.076700
     52 HAP2        6.3890   -0.3740    2.7720 hx        1 D9G      0.076700
@<TRIPOS>BOND
     1    1    2 1   
     2    1   20 1   
     3    1   21 1   
     4    1   22 1   
     5    2    3 1   
     6    2   23 1   
     7    2   24 1   
     8    3    4 1   
     9    3   25 1   
    10    3   26 1   
    11    4    5 1   
    12    4   27 1   
    13    4   28 1   
    14    5    6 1   
    15    5   29 1   
    16    5   30 1   
    17    6    7 1   
    18    6   31 1   
    19    6   32 1   
    20    7    8 1   
    21    7   33 1   
    22    7   34 1   
    23    8    9 1   
    24    8   35 1   
    25    8   36 1   
    26    9   10 1   
    27    9   37 1   
    28    9   38 1   
    29   10   11 1   
    30   10   39 1   
    31   10   40 1   
    32   11   12 1   
    33   11   41 1   
    34   11   42 1   
    35   12   13 1   
    36   12   43 1   
    37   12   44 1   
    38   13   14 1   
    39   13   15 1   
    40   13   16 1   
    41   14   45 1   
    42   14   46 1   
    43   14   47 1   
    44   15   48 1   
    45   15   49 1   
    46   15   50 1   
    47   16   17 1   
    48   16   51 1   
    49   16   52 1   
    50   17   18 1   
    51   17   19 1   
@<TRIPOS>SUBSTRUCTURE
     1 D9G         1 TEMP              0 ****  ****    0 ROOT
