@<TRIPOS>MOLECULE
D9H
   38    39     1     0     0
SMALL
bcc


@<TRIPOS>ATOM
      1 C1          0.0780    0.0300    0.0320 ca        1 D9H     -0.424500
      2 N1         -0.3490   -1.0660   -2.4290 n4        1 D9H     -0.809500
      3 O1         -1.5170    1.0300   -1.6350 o         1 D9H     -0.518300
      4 S1         -0.2320    0.5600   -1.5200 sy        1 D9H      1.447200
      5 C2          1.3990   -0.0730    0.5010 ca        1 D9H      0.024000
      6 O2          0.8900    1.1110   -2.0880 o         1 D9H     -0.518300
      7 C3          1.6760   -0.3560    1.8390 ca        1 D9H     -0.105000
      8 C4          0.6070   -0.5460    2.7320 ca        1 D9H      0.042600
      9 C5         -0.7230   -0.4540    2.2890 ca        1 D9H     -0.105000
     10 C6         -0.9700   -0.1680    0.9440 ca        1 D9H      0.024000
     11 N7          0.8900   -0.8970    4.1370 n4        1 D9H     -0.633100
     12 C8          0.7940    0.2720    5.0800 ca        1 D9H      0.801900
     13 N9          1.8540    0.4500    5.9400 nb        1 D9H     -0.710000
     14 C10         1.6830    1.5100    6.8130 ca        1 D9H      0.825900
     15 N11         2.7850    1.7780    7.7790 n4        1 D9H     -0.752700
     16 N12         0.5950    2.3360    6.8560 nb        1 D9H     -0.639000
     17 C13        -0.4000    2.0620    5.9390 ca        1 D9H      0.811000
     18 CL13       -1.7680    3.0390    5.9400 cl        1 D9H      0.124000
     19 N14        -0.3410    1.0270    5.0200 nb        1 D9H     -0.672000
     20 C15         2.3390    1.6990    9.2210 c3        1 D9H      0.100800
     21 C16         3.5230    2.0060   10.1580 c3        1 D9H      0.111400
     22 O17         4.1310    3.1870    9.6790 oh        1 D9H     -0.642800
     23 HN1        -0.2120   -1.8940   -1.8530 hn        1 D9H      0.480467
     24 HN11        3.5640    1.1170    7.6290 hn        1 D9H      0.505800
     25 H2          2.2520    0.1000   -0.1910 ha        1 D9H      0.210000
     26 H3          2.7330   -0.4230    2.1600 ha        1 D9H      0.198000
     27 H5         -1.5830   -0.5890    2.9740 ha        1 D9H      0.198000
     28 H15         1.5260    2.4660    9.3780 hx        1 D9H      0.129200
     29 H15A        1.9470    0.6650    9.4260 hx        1 D9H      0.129200
     30 H6         -2.0270   -0.0690    0.6120 ha        1 D9H      0.210000
     31 H16         4.2770    1.1720   10.1460 h1        1 D9H      0.098700
     32 H16A        3.1070    2.1220   11.1970 h1        1 D9H      0.098700
     33 HN7         0.1980   -1.6030    4.4530 hn        1 D9H      0.505800
     34 HO17        4.4900    3.6810   10.4320 ho        1 D9H      0.480000
     35 HN1A       -1.2680   -1.1630   -2.8790 hn        1 D9H      0.480467
     36 H13         0.3480   -1.1080   -3.1830 hn        1 D9H      0.480467
     37 H72         1.8400   -1.3090    4.2010 hn        1 D9H      0.505800
     38 H112        3.1460    2.7440    7.6220 hn        1 D9H      0.505800
@<TRIPOS>BOND
     1    1    4 1   
     2    1    5 ar  
     3    1   10 ar  
     4    2    4 1   
     5    2   23 1   
     6    2   35 1   
     7    2   36 1   
     8    3    4 2   
     9    4    6 2   
    10    5    7 ar  
    11    5   25 1   
    12    7    8 ar  
    13    7   26 1   
    14    8    9 ar  
    15    8   11 1   
    16    9   10 ar  
    17    9   27 1   
    18   10   30 1   
    19   11   12 1   
    20   11   33 1   
    21   11   37 1   
    22   12   13 ar  
    23   12   19 ar  
    24   13   14 ar  
    25   14   15 1   
    26   14   16 ar  
    27   15   20 1   
    28   15   24 1   
    29   15   38 1   
    30   16   17 ar  
    31   17   18 1   
    32   17   19 ar  
    33   20   21 1   
    34   20   28 1   
    35   20   29 1   
    36   21   22 1   
    37   21   31 1   
    38   21   32 1   
    39   22   34 1   
@<TRIPOS>SUBSTRUCTURE
     1 D9H         1 TEMP              0 ****  ****    0 ROOT
