@<TRIPOS>MOLECULE
D9H
   36    37     1     0     0
SMALL
bcc


@<TRIPOS>ATOM
      1 C1          0.2930    0.1310   -0.3460 ca        1 D9H     -0.657500
      2 N1         -1.3770   -1.4410   -1.7150 n4        1 D9H     -0.779500
      3 O1         -1.2000    1.0800   -2.1220 o         1 D9H     -0.581300
      4 S1         -0.2280    0.1480   -1.8230 sy        1 D9H      1.518200
      5 C2          1.5120   -0.5050    0.0140 ca        1 D9H      0.049000
      6 O2          0.6520   -0.3000   -2.7860 o         1 D9H     -0.581300
      7 C3          2.0000   -0.4810    1.2920 ca        1 D9H     -0.214500
      8 C4          1.2860    0.1900    2.3460 ca        1 D9H      0.333600
      9 C5          0.0760    0.8620    1.9850 ca        1 D9H     -0.214500
     10 C6         -0.3840    0.8250    0.6940 ca        1 D9H      0.049000
     11 N7          1.8260    0.1590    3.6000 nh        1 D9H     -0.698300
     12 C8          1.2390    0.6090    4.8190 ca        1 D9H      0.917900
     13 N9          2.1290    0.8170    5.8440 nb        1 D9H     -0.814000
     14 C10         1.5500    1.2080    7.0580 ca        1 D9H      0.942900
     15 N11         2.3890    1.3590    8.1350 nh        1 D9H     -0.806900
     16 N12         0.1710    1.4040    7.2310 nb        1 D9H     -0.762000
     17 C13        -0.5790    1.1630    6.1300 ca        1 D9H      0.805000
     18 CL13       -2.2770    1.3780    6.2800 cl        1 D9H     -0.071000
     19 N14        -0.1310    0.7620    4.8940 nb        1 D9H     -0.808000
     20 C15         1.9380    1.9270    9.3850 c3        1 D9H      0.206800
     21 C16         3.0340    1.9180   10.4600 c3        1 D9H      0.113400
     22 O17         4.1280    2.6690    9.9620 oh        1 D9H     -0.613800
     23 HN1        -1.3630   -1.8550   -0.7910 hn        1 D9H      0.446467
     24 HN11        3.3770    1.3580    7.9740 hn        1 D9H      0.473800
     25 H2          2.0890   -1.0240   -0.7760 ha        1 D9H      0.165000
     26 H3          2.9580   -0.9850    1.5130 ha        1 D9H      0.184500
     27 H5         -0.5000    1.4320    2.7350 ha        1 D9H      0.184500
     28 H15         1.6000    2.9910    9.2180 h1        1 D9H      0.076700
     29 H15A        1.0630    1.3300    9.7730 h1        1 D9H      0.076700
     30 H6         -1.3120    1.3760    0.4420 ha        1 D9H      0.165000
     31 H16         2.6140    2.3930   11.3870 h1        1 D9H      0.047700
     32 H16A        3.3660    0.8720   10.6940 h1        1 D9H      0.047700
     33 HN7         2.7590   -0.2040    3.6900 hn        1 D9H      0.482800
     34 HO17        4.7490    2.7810   10.6910 ho        1 D9H      0.421000
     35 HN1A       -1.0690   -2.1410   -2.3830 hn        1 D9H      0.446467
     36 H13        -2.3370   -1.1930   -1.9380 hn        1 D9H      0.446467
@<TRIPOS>BOND
     1    1    4 1   
     2    1    5 ar  
     3    1   10 ar  
     4    2    4 1   
     5    2   23 1   
     6    2   35 1   
     7    2   36 1   
     8    3    4 2   
     9    4    6 2   
    10    5    7 ar  
    11    5   25 1   
    12    7    8 ar  
    13    7   26 1   
    14    8    9 ar  
    15    8   11 1   
    16    9   10 ar  
    17    9   27 1   
    18   10   30 1   
    19   11   12 1   
    20   11   33 1   
    21   12   13 ar  
    22   12   19 ar  
    23   13   14 ar  
    24   14   15 1   
    25   14   16 ar  
    26   15   20 1   
    27   15   24 1   
    28   16   17 ar  
    29   17   18 1   
    30   17   19 ar  
    31   20   21 1   
    32   20   28 1   
    33   20   29 1   
    34   21   22 1   
    35   21   31 1   
    36   21   32 1   
    37   22   34 1   
@<TRIPOS>SUBSTRUCTURE
     1 D9H         1 TEMP              0 ****  ****    0 ROOT
