@<TRIPOS>MOLECULE
D9H
   35    31     1     0     0
SMALL
bcc


@<TRIPOS>ATOM
      1 C1         -3.3230   -0.9310   -2.1860 c1        1 D9H     -0.853000
      2 N1         -5.8160   -0.0590   -3.1620 n3        1 D9H     -0.953000
      3 O1         -5.3470   -0.1220   -0.6540 o         1 D9H     -0.938500
      4 S1         -5.0730   -0.8050   -1.8910 s6        1 D9H      2.870000
      5 C2         -3.0100   -2.1640   -1.6470 c1        1 D9H      0.004000
      6 O2         -5.6500   -2.0920   -1.6320 o         1 D9H     -0.938500
      7 C3         -2.1520   -2.2490   -0.5610 c1        1 D9H     -0.202000
      8 C4         -1.6060   -1.0930   -0.0140 c1        1 D9H      0.138000
      9 C5         -1.9200    0.1400   -0.5550 c2        1 D9H     -0.157000
     10 C6         -2.7790    0.2240   -1.6420 c1        1 D9H     -0.001000
     11 N7         -0.8390   -1.1680    1.1970 n2        1 D9H     -0.252000
     12 C8          0.5900   -1.0990    1.1430 c2        1 D9H      0.221000
     13 N9          1.2250    0.0080    1.5600 n2        1 D9H     -0.291000
     14 C10         2.5660    0.0660    1.5240 c1        1 D9H      0.164500
     15 N11         3.2450    1.2490    1.9660 n2        1 D9H     -0.284000
     16 N12         3.2710   -0.9830    1.0700 n2        1 D9H     -0.264000
     17 C13         2.6370   -2.0870    0.6530 c1        1 D9H      0.164500
     18 CL13        3.5460   -3.4280    0.0420 cl        1 D9H      0.067000
     19 N14         1.2960   -2.1460    0.6890 n2        1 D9H     -0.291000
     20 C15         4.4980    1.6380    1.3480 c3        1 D9H     -0.031000
     21 C16         4.8040    3.0780    1.6930 c3        1 D9H     -0.032000
     22 O17         5.6500    3.6270    0.7080 oh        1 D9H     -0.319000
     23 HN1        -5.7780   -0.4340   -3.9990 hn        1 D9H      0.242000
     24 HN11        2.9350    1.7070    2.6950 hn        1 D9H      0.240000
     25 H2         -3.3950   -2.9790   -2.0320 ha        1 D9H      0.155000
     26 H3         -1.9320   -3.1190   -0.1800 ha        1 D9H      0.143000
     27 H5         -1.5370    0.9550   -0.1710 ha        1 D9H      0.164000
     28 H15         4.4260    1.5430    0.3790 h1        1 D9H      0.115500
     29 H15A        5.2180    1.0620    1.6800 h1        1 D9H      0.115500
     30 H6         -3.0020    1.1000   -2.0260 ha        1 D9H      0.156000
     31 H16         3.9700    3.5890    1.7300 h1        1 D9H      0.069000
     32 H16A        5.2470    3.1160    2.5610 h1        1 D9H      0.069000
     33 HN7        -1.2560   -1.3530    1.9880 hn        1 D9H      0.260000
     34 HO17        5.6110    4.5160    0.7450 ho        1 D9H      0.208000
     35 HN1A       -6.3170    0.6940   -3.0200 hn        1 D9H      0.242000
@<TRIPOS>BOND
     1    1    4 1   
     2    1    5 1   
     3    2    4 1   
     4    2   23 1   
     5    2   35 1   
     6    3    4 1   
     7    4    6 1   
     8    5   25 1   
     9    7    8 1   
    10    7   26 1   
    11    8    9 1   
    12    9   10 1   
    13    9   27 1   
    14   10   30 1   
    15   11   12 1   
    16   11   33 1   
    17   12   13 1   
    18   12   19 1   
    19   13   14 1   
    20   14   16 1   
    21   15   20 1   
    22   15   24 1   
    23   16   17 1   
    24   17   19 1   
    25   20   21 1   
    26   20   28 1   
    27   20   29 1   
    28   21   22 1   
    29   21   31 1   
    30   21   32 1   
    31   22   34 1   
@<TRIPOS>SUBSTRUCTURE
     1 D9H         1 TEMP              0 ****  ****    0 ROOT
