@<TRIPOS>MOLECULE
D9H
   36    37     1     0     0
SMALL
bcc


@<TRIPOS>ATOM
      1 C1          0.3010    0.1140   -0.3450 ca        1 D9H     -0.657500
      2 N1         -1.4040   -1.4230   -1.7110 nz        1 D9H     -0.779500
      3 O1         -1.1560    1.0890   -2.1360 o         1 D9H     -0.581300
      4 S1         -0.2110    0.1340   -1.8250 sy        1 D9H      1.518200
      5 C2          1.5010   -0.5520    0.0260 ca        1 D9H      0.049000
      6 O2          0.6610   -0.3450   -2.7800 o         1 D9H     -0.581300
      7 C3          1.9830   -0.5320    1.3070 ca        1 D9H     -0.214500
      8 C4          1.2820    0.1680    2.3520 ca        1 D9H      0.333600
      9 C5          0.0930    0.8690    1.9790 ca        1 D9H     -0.214500
     10 C6         -0.3610    0.8350    0.6860 ca        1 D9H      0.049000
     11 N7          1.8140    0.1310    3.6090 nu        1 D9H     -0.698300
     12 C8          1.2340    0.6070    4.8210 ca        1 D9H      0.917900
     13 N9          2.1240    0.8010    5.8480 nb        1 D9H     -0.814000
     14 C10         1.5500    1.2170    7.0560 ca        1 D9H      0.942900
     15 N11         2.3870    1.3570    8.1360 nu        1 D9H     -0.806900
     16 N12         0.1750    1.4500    7.2210 nb        1 D9H     -0.762000
     17 C13        -0.5760    1.2180    6.1190 ca        1 D9H      0.805000
     18 Cl13       -2.2680    1.4790    6.2580 cl        1 D9H     -0.071000
     19 N14        -0.1320    0.7960    4.8880 nb        1 D9H     -0.808000
     20 C15         1.9440    1.9470    9.3790 c3        1 D9H      0.206800
     21 C16         3.0350    1.9210   10.4590 c3        1 D9H      0.113400
     22 O17         4.1500    2.6390    9.9590 oh        1 D9H     -0.613800
     23 HN1        -2.3550   -1.1500   -1.9410 hn        1 D9H      0.446467
     24 HN11        3.3750    1.3290    7.9800 hn        1 D9H      0.473800
     25 H2          2.0680   -1.0930   -0.7560 ha        1 D9H      0.165000
     26 H3          2.9250   -1.0600    1.5360 ha        1 D9H      0.184500
     27 H5         -0.4710    1.4600    2.7210 ha        1 D9H      0.184500
     28 H15         1.6340    3.0180    9.2010 h1        1 D9H      0.076700
     29 H15A        1.0540    1.3760    9.7680 h1        1 D9H      0.076700
     30 H6         -1.2720    1.4090    0.4250 ha        1 D9H      0.165000
     31 H16         2.6230    2.4140   11.3800 h1        1 D9H      0.047700
     32 H16A        3.3400    0.8680   10.7040 h1        1 D9H      0.047700
     33 HN7         2.7370   -0.2560    3.7060 hn        1 D9H      0.482800
     34 HO17        4.7710    2.7420   10.6910 ho        1 D9H      0.421000
     35 HN1A       -1.4050   -1.8300   -0.7830 hn        1 D9H      0.446467
     36 H13        -1.1110   -2.1360   -2.3720 hn        1 D9H      0.446467
@<TRIPOS>BOND
     1    1    4 1   
     2    1    5 ar  
     3    1   10 ar  
     4    2    4 1   
     5    2   23 1   
     6    2   35 1   
     7    2   36 1   
     8    3    4 2   
     9    4    6 2   
    10    5    7 ar  
    11    5   25 1   
    12    7    8 ar  
    13    7   26 1   
    14    8    9 ar  
    15    8   11 1   
    16    9   10 ar  
    17    9   27 1   
    18   10   30 1   
    19   11   12 1   
    20   11   33 1   
    21   12   13 ar  
    22   12   19 ar  
    23   13   14 ar  
    24   14   15 1   
    25   14   16 ar  
    26   15   20 1   
    27   15   24 1   
    28   16   17 ar  
    29   17   18 1   
    30   17   19 ar  
    31   20   21 1   
    32   20   28 1   
    33   20   29 1   
    34   21   22 1   
    35   21   31 1   
    36   21   32 1   
    37   22   34 1   
@<TRIPOS>SUBSTRUCTURE
     1 D9H         1 TEMP              0 ****  ****    0 ROOT
