@<TRIPOS>MOLECULE
D9H
   35    36     1     0     0
SMALL
bcc


@<TRIPOS>ATOM
      1 C1         -3.8680    0.4670    0.0580 ca        1 D9H     -0.407500
      2 N1         -6.1840    0.8560   -1.0070 n3        1 D9H     -1.026700
      3 O1         -5.7040   -1.2570    0.1480 o         1 D9H     -0.659300
      4 S1         -5.5090    0.1370    0.2570 sy        1 D9H      1.531200
      5 C2         -3.2850    1.5920    0.6520 ca        1 D9H      0.001000
      6 O2         -5.9520    0.7730    1.4370 o         1 D9H     -0.659300
      7 C3         -1.9320    1.8630    0.5170 ca        1 D9H     -0.176000
      8 C4         -1.1020    0.9920   -0.2350 ca        1 D9H      0.212600
      9 C5         -1.6850   -0.1420   -0.8390 ca        1 D9H     -0.176000
     10 C6         -3.0430   -0.3910   -0.6770 ca        1 D9H      0.001000
     11 N7          0.2460    1.3460   -0.4150 nh        1 D9H     -0.725300
     12 C8          1.3320    0.4620   -0.3180 ca        1 D9H      0.934900
     13 N9          2.5840    1.0540   -0.3070 nb        1 D9H     -0.835000
     14 C10         3.6560    0.1720   -0.2780 ca        1 D9H      0.929900
     15 N11         4.9290    0.7220   -0.3930 nh        1 D9H     -0.821900
     16 N12         3.5270   -1.2190   -0.2010 nb        1 D9H     -0.793000
     17 C13         2.2420   -1.6600   -0.1990 ca        1 D9H      0.803000
     18 CL13        2.0180   -3.3670   -0.1070 cl        1 D9H     -0.101000
     19 N14         1.1040   -0.9090   -0.2570 nb        1 D9H     -0.791000
     20 C15         6.0990   -0.0610   -0.0720 c3        1 D9H      0.206800
     21 C16         7.4000    0.7290   -0.2700 c3        1 D9H      0.114400
     22 O17         7.3790    1.8200    0.6350 oh        1 D9H     -0.609800
     23 HN1        -6.5100    1.7890   -0.9960 hn        1 D9H      0.446300
     24 HN11        5.0090    1.7050   -0.2250 hn        1 D9H      0.453800
     25 H2         -3.9150    2.2660    1.2620 ha        1 D9H      0.155000
     26 H3         -1.5110    2.7550    1.0040 ha        1 D9H      0.154500
     27 H5         -1.0840   -0.8420   -1.4400 ha        1 D9H      0.154500
     28 H15         6.0560   -0.4200    0.9970 h1        1 D9H      0.068700
     29 H15A        6.1360   -0.9620   -0.7480 h1        1 D9H      0.068700
     30 H6         -3.4800   -1.2990   -1.1320 ha        1 D9H      0.155000
     31 H16         8.2630    0.0490   -0.0400 h1        1 D9H      0.039200
     32 H16A        7.4940    1.1050   -1.3230 h1        1 D9H      0.039200
     33 HN7         0.4620    2.3100   -0.2520 hn        1 D9H      0.456800
     34 HO17        8.2130    2.2910    0.5240 ho        1 D9H      0.410000
     35 HN1A       -6.3430    0.4060   -1.8730 hn        1 D9H      0.446300
@<TRIPOS>BOND
     1    1    4 1   
     2    1    5 ar  
     3    1   10 ar  
     4    2    4 1   
     5    2   23 1   
     6    2   35 1   
     7    3    4 2   
     8    4    6 2   
     9    5    7 ar  
    10    5   25 1   
    11    7    8 ar  
    12    7   26 1   
    13    8    9 ar  
    14    8   11 1   
    15    9   10 ar  
    16    9   27 1   
    17   10   30 1   
    18   11   12 1   
    19   11   33 1   
    20   12   13 ar  
    21   12   19 ar  
    22   13   14 ar  
    23   14   15 1   
    24   14   16 ar  
    25   15   20 1   
    26   15   24 1   
    27   16   17 ar  
    28   17   18 1   
    29   17   19 ar  
    30   20   21 1   
    31   20   28 1   
    32   20   29 1   
    33   21   22 1   
    34   21   31 1   
    35   21   32 1   
    36   22   34 1   
@<TRIPOS>SUBSTRUCTURE
     1 D9H         1 TEMP              0 ****  ****    0 ROOT
