@<TRIPOS>MOLECULE
D9Z
   23    24     1     0     0
SMALL
bcc


@<TRIPOS>ATOM
      1 O2          0.7430    0.2230    0.9490 o         1 D9Z     -0.570800
      2 S1          1.8950    0.1430    0.1960 sy        1 D9Z      1.476800
      3 O1          2.9870   -0.5480    0.6550 o         1 D9Z     -0.570800
      4 N3          1.3330   -1.0260   -1.1970 n4        1 D9Z     -0.780500
      5 C8          2.1750    1.4490   -0.6680 cc        1 D9Z     -0.350700
      6 S2          1.6600    3.0400   -0.4860 ss        1 D9Z      0.310200
      7 N2          3.0890    1.3500   -1.7500 nd        1 D9Z     -0.195000
      8 N1          3.3230    2.4320   -2.3260 nd        1 D9Z     -0.277000
      9 C7          2.6220    3.5230   -1.7580 cc        1 D9Z      0.428900
     10 C1          2.7460    4.8710   -2.2470 ca        1 D9Z     -0.189500
     11 C6          3.6110    5.1810   -3.3140 ca        1 D9Z     -0.035000
     12 C2          2.0020    5.9210   -1.6590 ca        1 D9Z      0.027400
     13 C3          2.1140    7.2300   -2.1210 ca        1 D9Z     -0.114000
     14 C4          2.9790    7.5130   -3.1820 ca        1 D9Z     -0.054000
     15 C5          3.7230    6.4910   -3.7730 ca        1 D9Z     -0.129000
     16 CL1         0.9470    5.5870   -0.3610 cl        1 D9Z     -0.043400
     17 HN3         2.0330   -1.7550   -1.3400 hn        1 D9Z      0.459133
     18 HN3A        0.4550   -1.4790   -0.9520 hn        1 D9Z      0.459133
     19 H6          4.2100    4.3870   -3.7930 ha        1 D9Z      0.175000
     20 H3          1.5280    8.0390   -1.6540 ha        1 D9Z      0.176000
     21 H4          3.0700    8.5500   -3.5480 ha        1 D9Z      0.169000
     22 H5          4.4050    6.7190   -4.6080 ha        1 D9Z      0.169000
     23 H33         1.1990   -0.5530   -2.0860 hn        1 D9Z      0.459133
@<TRIPOS>BOND
     1    1    2 2   
     2    2    3 2   
     3    2    4 1   
     4    2    5 1   
     5    4   17 1   
     6    4   18 1   
     7    4   23 1   
     8    5    6 1   
     9    5    7 2   
    10    6    9 1   
    11    7    8 1   
    12    8    9 2   
    13    9   10 1   
    14   10   11 ar  
    15   10   12 ar  
    16   11   15 ar  
    17   11   19 1   
    18   12   13 ar  
    19   12   16 1   
    20   13   14 ar  
    21   13   20 1   
    22   14   15 ar  
    23   14   21 1   
    24   15   22 1   
@<TRIPOS>SUBSTRUCTURE
     1 D9Z         1 TEMP              0 ****  ****    0 ROOT
