@<TRIPOS>MOLECULE
D9Z
   22    23     1     0     0
SMALL
bcc


@<TRIPOS>ATOM
      1 O2         -3.5620    1.2660   -0.2670 o         1 D9Z     -0.652300
      2 S1         -3.3970    0.0170    0.3660 sy        1 D9Z      1.486800
      3 O1         -3.7750   -0.0670    1.7120 o         1 D9Z     -0.652300
      4 N3         -4.0890   -1.1220   -0.4990 n3        1 D9Z     -1.015700
      5 C8         -1.7280   -0.3470    0.2610 cc        1 D9Z     -0.071700
      6 S2         -0.4340    0.6620   -0.0190 ss        1 D9Z      0.192200
      7 N2         -1.3310   -1.6540    0.4720 nd        1 D9Z     -0.239000
      8 N1         -0.0670   -1.8220    0.4120 nd        1 D9Z     -0.319000
      9 C7          0.6220   -0.6490    0.1490 cc        1 D9Z      0.355900
     10 C1          2.0670   -0.5890    0.0390 ca        1 D9Z     -0.125500
     11 C6          2.8390   -1.7480    0.2300 ca        1 D9Z     -0.071000
     12 C2          2.7380    0.6140   -0.2580 ca        1 D9Z      0.013400
     13 C3          4.1310    0.6560   -0.3620 ca        1 D9Z     -0.121000
     14 C4          4.8750   -0.5060   -0.1690 ca        1 D9Z     -0.103000
     15 C5          4.2270   -1.7050    0.1270 ca        1 D9Z     -0.131000
     16 CL1         1.8730    2.0640   -0.5010 cl        1 D9Z     -0.072400
     17 HN3        -4.2210   -2.0500   -0.1800 hn        1 D9Z      0.455800
     18 HN3A       -4.3710   -0.9990   -1.4400 hn        1 D9Z      0.455800
     19 H6          2.3450   -2.7060    0.4670 ha        1 D9Z      0.168000
     20 H3          4.6390    1.6050   -0.5950 ha        1 D9Z      0.155000
     21 H4          5.9720   -0.4730   -0.2500 ha        1 D9Z      0.145000
     22 H5          4.8130   -2.6240    0.2810 ha        1 D9Z      0.146000
@<TRIPOS>BOND
     1    1    2 2   
     2    2    3 2   
     3    2    4 1   
     4    2    5 1   
     5    4   17 1   
     6    4   18 1   
     7    5    6 1   
     8    5    7 2   
     9    6    9 1   
    10    7    8 1   
    11    8    9 2   
    12    9   10 1   
    13   10   11 ar  
    14   10   12 ar  
    15   11   15 ar  
    16   11   19 1   
    17   12   13 ar  
    18   12   16 1   
    19   13   14 ar  
    20   13   20 1   
    21   14   15 ar  
    22   14   21 1   
    23   15   22 1   
@<TRIPOS>SUBSTRUCTURE
     1 D9Z         1 TEMP              0 ****  ****    0 ROOT
