@<TRIPOS>MOLECULE
D9Z
   22    18     1     0     0
SMALL
bcc


@<TRIPOS>ATOM
      1 O2         -2.5160   -3.9620    0.4410 o         1 D9Z     -0.931500
      2 S1         -1.1520   -3.7120    0.8180 ss        1 D9Z      2.898000
      3 O1         -1.2870   -3.5080    2.2340 o         1 D9Z     -0.931500
      4 N3         -0.1970   -5.0080    0.4920 n2        1 D9Z     -0.942000
      5 C8         -0.5180   -2.2640    0.0170 c1        1 D9Z     -1.166000
      6 S2         -0.4340   -0.8610    0.6260 ss        1 D9Z      0.821000
      7 N2         -0.0090   -2.1960   -1.3010 n2        1 D9Z      0.024000
      8 N1          0.4290   -0.7090   -1.5900 n2        1 D9Z     -0.056000
      9 C7          0.1690    0.0650   -0.4350 c2        1 D9Z     -0.329000
     10 C1          0.3470    1.4340   -0.3150 c1        1 D9Z     -0.018000
     11 C6          1.5310    1.9370    0.2020 c1        1 D9Z     -0.106500
     12 C2         -0.6640    2.3010   -0.7000 c1        1 D9Z     -0.065000
     13 C3         -0.4910    3.6700   -0.5670 c1        1 D9Z     -0.106500
     14 C4          0.6940    4.1720   -0.0500 c1        1 D9Z     -0.106500
     15 C5          1.7040    3.3050    0.3340 c1        1 D9Z     -0.106500
     16 CL1        -2.1370    1.6720   -1.3880 cl        1 D9Z      0.006000
     17 HN3         0.5890   -5.1220    0.9450 hn        1 D9Z      0.251000
     18 HN3A       -0.4540   -5.6180   -0.1390 hn        1 D9Z      0.251000
     19 H6          2.2430    1.3260    0.4730 ha        1 D9Z      0.153500
     20 H3         -1.2030    4.2810   -0.8380 ha        1 D9Z      0.153500
     21 H4          0.8150    5.1360    0.0430 ha        1 D9Z      0.153500
     22 H5          2.5380    3.6590    0.6990 ha        1 D9Z      0.153500
@<TRIPOS>BOND
     1    1    2 1   
     2    2    3 1   
     3    4   17 1   
     4    4   18 1   
     5    5    6 1   
     6    5    7 1   
     7    6    9 1   
     8    7    8 1   
     9    8    9 1   
    10    9   10 1   
    11   10   12 1   
    12   11   15 1   
    13   11   19 1   
    14   12   16 1   
    15   13   14 1   
    16   13   20 1   
    17   14   21 1   
    18   15   22 1   
@<TRIPOS>SUBSTRUCTURE
     1 D9Z         1 TEMP              0 ****  ****    0 ROOT
