@<TRIPOS>MOLECULE
D9Z
   23    24     1     0     0
SMALL
bcc


@<TRIPOS>ATOM
      1 O2          0.8140    0.2330    1.0020 o         1 D9Z     -0.570800
      2 S1          1.9490    0.1520    0.2230 sy        1 D9Z      1.476800
      3 O1          3.0540   -0.5330    0.6610 o         1 D9Z     -0.570800
      4 N3          1.3600   -1.0260   -1.1510 nz        1 D9Z     -0.780500
      5 C8          2.2060    1.4540   -0.6530 cc        1 D9Z     -0.350700
      6 S2          1.6910    3.0440   -0.4690 ss        1 D9Z      0.310200
      7 N2          3.0950    1.3520   -1.7550 nd        1 D9Z     -0.195000
      8 N1          3.3130    2.4320   -2.3430 nd        1 D9Z     -0.277000
      9 C7          2.6220    3.5240   -1.7650 cc        1 D9Z      0.428900
     10 C1          2.7310    4.8690   -2.2630 ca        1 D9Z     -0.189500
     11 C6          3.5710    5.1760   -3.3510 ca        1 D9Z     -0.035000
     12 C2          1.9970    5.9200   -1.6640 ca        1 D9Z      0.027400
     13 C3          2.0950    7.2270   -2.1350 ca        1 D9Z     -0.114000
     14 C4          2.9350    7.5070   -3.2170 ca        1 D9Z     -0.054000
     15 C5          3.6680    6.4850   -3.8190 ca        1 D9Z     -0.129000
     16 Cl1         0.9720    5.5900   -0.3400 cl        1 D9Z     -0.043400
     17 HN3         1.2040   -0.5570   -2.0390 hn        1 D9Z      0.459133
     18 HN3A        0.4880   -1.4800   -0.8830 hn        1 D9Z      0.459133
     19 H6          4.1610    4.3820   -3.8390 ha        1 D9Z      0.175000
     20 H3          1.5170    8.0370   -1.6590 ha        1 D9Z      0.176000
     21 H4          3.0150    8.5420   -3.5900 ha        1 D9Z      0.169000
     22 H5          4.3310    6.7100   -4.6710 ha        1 D9Z      0.169000
     23 H33         2.0580   -1.7540   -1.3050 hn        1 D9Z      0.459133
@<TRIPOS>BOND
     1    1    2 2   
     2    2    3 2   
     3    2    4 1   
     4    2    5 1   
     5    4   17 1   
     6    4   18 1   
     7    4   23 1   
     8    5    6 1   
     9    5    7 2   
    10    6    9 1   
    11    7    8 1   
    12    8    9 2   
    13    9   10 1   
    14   10   11 ar  
    15   10   12 ar  
    16   11   15 ar  
    17   11   19 1   
    18   12   13 ar  
    19   12   16 1   
    20   13   14 ar  
    21   13   20 1   
    22   14   15 ar  
    23   14   21 1   
    24   15   22 1   
@<TRIPOS>SUBSTRUCTURE
     1 D9Z         1 TEMP              0 ****  ****    0 ROOT
