@<TRIPOS>MOLECULE
D9Z
   23    24     1     0     0
SMALL
bcc


@<TRIPOS>ATOM
      1 O2          0.7610    0.2250    0.9620 o         1 D9Z     -0.570800
      2 S1          1.9230    0.1560    0.2230 sy        1 D9Z      1.476800
      3 O1          3.0210   -0.5120    0.7020 o         1 D9Z     -0.570800
      4 N3          1.3970   -1.0360   -1.1640 n4        1 D9Z     -0.780500
      5 C8          2.1930    1.4570   -0.6510 cc        1 D9Z     -0.350700
      6 S2          1.6500    3.0410   -0.4920 ss        1 D9Z      0.310200
      7 N2          3.1210    1.3620   -1.7200 nd        1 D9Z     -0.195000
      8 N1          3.3450    2.4420   -2.3050 nd        1 D9Z     -0.277000
      9 C7          2.6190    3.5270   -1.7570 cc        1 D9Z      0.428900
     10 C1          2.7280    4.8720   -2.2580 ca        1 D9Z     -0.189500
     11 C6          3.6000    5.1850   -3.3180 ca        1 D9Z     -0.035000
     12 C2          1.9590    5.9150   -1.6910 ca        1 D9Z      0.027400
     13 C3          2.0560    7.2210   -2.1650 ca        1 D9Z     -0.114000
     14 C4          2.9290    7.5080   -3.2180 ca        1 D9Z     -0.054000
     15 C5          3.6960    6.4920   -3.7890 ca        1 D9Z     -0.129000
     16 CL1         0.8930    5.5770   -0.4020 cl        1 D9Z     -0.043400
     17 HN3         1.2660   -0.5740   -2.0590 hn        1 D9Z      0.459133
     18 HN3A        0.5230   -1.5000   -0.9240 hn        1 D9Z      0.459133
     19 H6          4.2180    4.3960   -3.7810 ha        1 D9Z      0.175000
     20 H3          1.4510    8.0250   -1.7140 ha        1 D9Z      0.176000
     21 H4          3.0070    8.5420   -3.5940 ha        1 D9Z      0.169000
     22 H5          4.3850    6.7230   -4.6190 ha        1 D9Z      0.169000
     23 H33         2.1100   -1.7560   -1.2900 hn        1 D9Z      0.459133
@<TRIPOS>BOND
     1    1    2 2   
     2    2    3 2   
     3    2    4 1   
     4    2    5 1   
     5    4   17 1   
     6    4   18 1   
     7    4   23 1   
     8    5    6 1   
     9    5    7 2   
    10    6    9 1   
    11    7    8 1   
    12    8    9 2   
    13    9   10 1   
    14   10   11 ar  
    15   10   12 ar  
    16   11   15 ar  
    17   11   19 1   
    18   12   13 ar  
    19   12   16 1   
    20   13   14 ar  
    21   13   20 1   
    22   14   15 ar  
    23   14   21 1   
    24   15   22 1   
@<TRIPOS>SUBSTRUCTURE
     1 D9Z         1 TEMP              0 ****  ****    0 ROOT
