@<TRIPOS>MOLECULE
DA
   34    32     1     0     0
SMALL
bcc


@<TRIPOS>ATOM
      1 OP3        -4.0070   -5.1150   -0.8120 o         1 DA      -0.929833
      2 P          -2.5640   -4.8920   -0.4080 p5        1 DA       1.330900
      3 OP1        -2.3920   -5.2300    1.0600 o         1 DA      -0.929833
      4 OP2        -1.6640   -5.7810   -1.2400 o         1 DA      -0.929833
      5 O5'        -2.1690   -3.3410   -0.6540 os        1 DA      -0.553200
      6 C5'        -0.7850   -2.9440   -0.4950 c3        1 DA       0.227400
      7 C4'        -0.5420   -1.6190   -1.2430 c3        1 DA       0.051100
      8 O4'        -0.9260   -0.6440   -0.5390 os        1 DA      -0.434600
      9 C3'         1.0600   -1.4010   -1.4930 c3        1 DA       0.156100
     10 O3'         1.4890   -2.1370   -2.7180 oh        1 DA      -0.671800
     11 C2'         1.2190   -0.1950   -1.6510 c3        1 DA      -0.130400
     12 C1'         0.0430    0.4760   -0.8690 c3        1 DA       0.252800
     13 N9          0.4890    1.0360    0.2380 n3        1 DA      -0.101400
     14 C8          1.3270    0.5890    1.2050 c1        1 DA       0.227400
     15 N7          1.5150    1.5950    2.0940 ne        1 DA      -0.437400
     16 C5          0.7860    2.6740    1.6720 cg        1 DA      -0.161000
     17 C6          0.5770    3.9330    2.2290 c1        1 DA       0.559600
     18 N6          0.9610    4.6590    3.3810 n3        1 DA      -0.795400
     19 N1         -0.2550    4.8050    1.6270 n1        1 DA      -0.604800
     20 C2         -0.8930    4.4550    0.4720 c1        1 DA       0.362300
     21 N3         -0.6880    3.2170   -0.0770 n1        1 DA      -0.514800
     22 C4          0.1550    2.3300    0.5320 c1        1 DA      -0.015300
     23 H5'        -0.5880   -2.8220    0.4550 h1        1 DA      -0.004800
     24 H5''       -0.2010   -3.6390   -0.8640 h1        1 DA      -0.004800
     25 H4'        -1.0180   -1.6240   -2.0990 h1        1 DA       0.081700
     26 H3'         1.5680   -1.7110   -0.7170 h1        1 DA       0.102700
     27 HO3'        2.2880   -2.4950   -2.5820 ho        1 DA       0.501000
     28 H2'         2.0820    0.0860   -1.2770 hc        1 DA       0.054700
     29 H2''        1.1690    0.0350   -2.6130 hc        1 DA       0.054700
     30 H1'        -0.3940    1.1430   -1.4300 h2        1 DA       0.072700
     31 H8          1.6790   -0.3240    1.2860 DU        1 DA       0.258000
     32 H61         0.6400    5.5000    3.5170 hn        1 DA       0.410300
     33 H62         1.5390    4.2890    3.9800 hn        1 DA       0.410300
     34 H2         -1.5000    5.0930    0.0330 ha        1 DA       0.106500
@<TRIPOS>BOND
     1    1    2 1   
     2    2    3 1   
     3    2    4 1   
     4    2    5 1   
     5    5    6 1   
     6    6    7 1   
     7    6   23 1   
     8    6   24 1   
     9    7    8 1   
    10    7    9 1   
    11    7   25 1   
    12    8   12 1   
    13    9   10 1   
    14    9   11 1   
    15    9   26 1   
    16   10   27 1   
    17   11   12 1   
    18   11   28 1   
    19   11   29 1   
    20   12   13 1   
    21   12   30 1   
    22   13   14 2   
    23   13   22 1   
    24   14   15 2   
    25   15   16 1   
    26   16   22 3   
    27   17   18 1   
    28   17   19 3   
    29   18   32 1   
    30   18   33 1   
    31   20   21 3   
    32   20   34 1   
@<TRIPOS>SUBSTRUCTURE
     1 DA          1 TEMP              0 ****  ****    0 ROOT
