@<TRIPOS>MOLECULE
DA
   34    36     1     0     0
SMALL
bcc


@<TRIPOS>ATOM
      1 OP3         0.3020    0.6470   -5.6470 o         1 DA      -0.929833
      2 P           0.2040    1.0270   -4.2030 p5        1 DA       1.330900
      3 OP1         1.3280    1.8140   -3.5920 o         1 DA      -0.929833
      4 OP2        -1.1670    1.4050   -3.6790 o         1 DA      -0.929833
      5 O5'         0.3650   -0.4980   -3.3620 os        1 DA      -0.553200
      6 C5'         0.3780   -0.3710   -2.0020 c3        1 DA       0.227400
      7 C4'        -0.9920   -0.7700   -1.4020 c3        1 DA       0.051100
      8 O4'        -0.7940   -1.4570   -0.1360 os        1 DA      -0.434600
      9 C3'        -1.9330    0.4240   -1.1480 c3        1 DA       0.156100
     10 O3'        -3.0700    0.3650   -1.9780 oh        1 DA      -0.671800
     11 C2'        -2.3850    0.2790    0.3140 c3        1 DA      -0.130400
     12 C1'        -1.4250   -0.7630    0.9260 c3        1 DA       0.252800
     13 N9         -0.4060   -0.1810    1.8030 na        1 DA      -0.258000
     14 C8          0.7890    0.4640    1.4140 cc        1 DA       0.462700
     15 N7          1.5680    0.8310    2.4490 nd        1 DA      -0.592100
     16 C5          0.8770    0.4070    3.5910 ca        1 DA      -0.204200
     17 C6          1.1680    0.4870    4.9880 ca        1 DA       0.699200
     18 N6          2.2930    1.1850    5.4230 nh        1 DA      -0.932500
     19 N1          0.2990   -0.0760    5.8860 nb        1 DA      -0.805000
     20 C2         -0.8310   -0.6500    5.3820 ca        1 DA       0.641900
     21 N3         -1.2500   -0.7830    4.1070 nb        1 DA      -0.715000
     22 C4         -0.3750   -0.2480    3.1990 ca        1 DA       0.430800
     23 H5'         0.6350    0.6860   -1.6990 h1        1 DA      -0.004800
     24 H5''        1.1460   -1.0740   -1.5580 h1        1 DA      -0.004800
     25 H4'        -1.4850   -1.5260   -2.0700 h1        1 DA       0.081700
     26 H3'        -1.3950    1.3980   -1.3170 h1        1 DA       0.102700
     27 HO3'       -2.7600    0.6840   -2.8580 ho        1 DA       0.501000
     28 H2'        -3.4280   -0.1220    0.3600 hc        1 DA       0.054700
     29 H2''       -2.3610    1.2590    0.8420 hc        1 DA       0.054700
     30 H1'        -1.9690   -1.5370    1.5420 h2        1 DA       0.072700
     31 H8          1.0150    0.6190    0.3400 h5        1 DA       0.128800
     32 H61         2.6350    0.9590    6.3280 hn        1 DA       0.410300
     33 H62         2.9890    1.3210    4.7250 hn        1 DA       0.410300
     34 H2         -1.5070   -1.0790    6.1500 h5        1 DA       0.027100
@<TRIPOS>BOND
     1    1    2 1   
     2    2    3 1   
     3    2    4 1   
     4    2    5 1   
     5    5    6 1   
     6    6    7 1   
     7    6   23 1   
     8    6   24 1   
     9    7    8 1   
    10    7    9 1   
    11    7   25 1   
    12    8   12 1   
    13    9   10 1   
    14    9   11 1   
    15    9   26 1   
    16   10   27 1   
    17   11   12 1   
    18   11   28 1   
    19   11   29 1   
    20   12   13 1   
    21   12   30 1   
    22   13   14 1   
    23   13   22 1   
    24   14   15 2   
    25   14   31 1   
    26   15   16 1   
    27   16   17 ar  
    28   16   22 ar  
    29   17   18 1   
    30   17   19 ar  
    31   18   32 1   
    32   18   33 1   
    33   19   20 ar  
    34   20   21 ar  
    35   20   34 1   
    36   21   22 ar  
@<TRIPOS>SUBSTRUCTURE
     1 DA          1 TEMP              0 ****  ****    0 ROOT
