@<TRIPOS>MOLECULE
DA1
   15    15     1     0     0
SMALL
bcc


@<TRIPOS>ATOM
      1 N1         -0.7010   -1.2020    0.0040 nb        1 DA1     -0.691000
      2 C7         -1.3760   -0.0090    0.0570 ca        1 DA1      0.575200
      3 N2         -2.7780   -0.0100    0.2190 nh        1 DA1     -0.909500
      4 C2         -0.6780    1.2330    0.0360 ca        1 DA1     -0.253300
      5 C3          0.7080    1.2410   -0.0170 ca        1 DA1     -0.122000
      6 C5          1.4150    0.0200   -0.0580 ca        1 DA1     -0.027700
      7 N3          2.8070   -0.0270   -0.2110 nh        1 DA1     -0.797200
      8 C4          0.6330   -1.1710   -0.0410 ca        1 DA1      0.382200
      9 HN21       -3.2180    0.7260   -0.2910 hn        1 DA1      0.390800
     10 HN22       -3.2140   -0.8950    0.0660 hn        1 DA1      0.390800
     11 H2         -1.2320    2.1820    0.0710 ha        1 DA1      0.142000
     12 H3          1.2460    2.2000   -0.0330 ha        1 DA1      0.137000
     13 HN31        3.2690    0.7810    0.1480 hn        1 DA1      0.381300
     14 HN32        3.2120   -0.8730    0.1290 hn        1 DA1      0.381300
     15 H4          1.1180   -2.1640   -0.0790 h4        1 DA1      0.020100
@<TRIPOS>BOND
     1    1    2 ar  
     2    1    8 ar  
     3    2    3 1   
     4    2    4 ar  
     5    3    9 1   
     6    3   10 1   
     7    4    5 ar  
     8    4   11 1   
     9    5    6 ar  
    10    5   12 1   
    11    6    7 1   
    12    6    8 ar  
    13    7   13 1   
    14    7   14 1   
    15    8   15 1   
@<TRIPOS>SUBSTRUCTURE
     1 DA1         1 TEMP              0 ****  ****    0 ROOT
