@<TRIPOS>MOLECULE
DA1
   15    15     1     0     0
SMALL
bcc


@<TRIPOS>ATOM
      1 N1         -0.0220   -0.1660   -0.0440 nb        1 DA1     -0.691000
      2 C7          1.3450   -0.0530   -0.0150 ca        1 DA1      0.575200
      3 N2          2.0820   -0.1930   -1.2100 nv        1 DA1     -0.909500
      4 C2          2.0430    0.1180    1.2160 ca        1 DA1     -0.253300
      5 C3          1.3350    0.1510    2.4080 ca        1 DA1     -0.122000
      6 C5         -0.0710    0.0220    2.3930 ca        1 DA1     -0.027700
      7 N3         -0.8420    0.1470    3.5570 nv        1 DA1     -0.797200
      8 C4         -0.6830   -0.1380    1.1150 ca        1 DA1      0.382200
      9 HN21        1.5330   -0.1490   -2.0440 hn        1 DA1      0.390800
     10 HN22        2.8720    0.4150   -1.2410 hn        1 DA1      0.390800
     11 H2          3.1380    0.2150    1.2260 ha        1 DA1      0.142000
     12 H3          1.8730    0.2830    3.3580 ha        1 DA1      0.137000
     13 HN31       -1.7280   -0.3060    3.4920 hn        1 DA1      0.381300
     14 HN32       -0.3470   -0.1110    4.3840 hn        1 DA1      0.381300
     15 H4         -1.7800   -0.2370    1.0240 h4        1 DA1      0.020100
@<TRIPOS>BOND
     1    1    2 ar  
     2    1    8 ar  
     3    2    3 1   
     4    2    4 ar  
     5    3    9 1   
     6    3   10 1   
     7    4    5 ar  
     8    4   11 1   
     9    5    6 ar  
    10    5   12 1   
    11    6    7 1   
    12    6    8 ar  
    13    7   13 1   
    14    7   14 1   
    15    8   15 1   
@<TRIPOS>SUBSTRUCTURE
     1 DA1         1 TEMP              0 ****  ****    0 ROOT
