@<TRIPOS>MOLECULE
DA1
   17    17     1     0     0
SMALL
bcc


@<TRIPOS>ATOM
      1 N1         -0.0440   -0.1800   -0.0560 nb        1 DA1     -0.602000
      2 C7          1.3170   -0.0380   -0.0110 ca        1 DA1      0.508200
      3 N2          2.0230   -0.0550   -1.3090 n4        1 DA1     -0.827300
      4 C2          2.0420    0.1170    1.1870 ca        1 DA1     -0.173300
      5 C3          1.3250    0.1270    2.3960 ca        1 DA1     -0.021000
      6 C5         -0.0690   -0.0180    2.3600 ca        1 DA1     -0.136700
      7 N3         -0.8640   -0.0150    3.5830 n4        1 DA1     -0.706000
      8 C4         -0.7160   -0.1700    1.0940 ca        1 DA1      0.480200
      9 HN21        3.0340    0.0600   -1.1580 hn        1 DA1      0.496467
     10 HN22        1.8500   -0.9520   -1.7950 hn        1 DA1      0.496467
     11 H2          3.1420    0.2310    1.2130 ha        1 DA1      0.212000
     12 H3          1.8870    0.2490    3.3430 ha        1 DA1      0.209000
     13 HN31       -1.3760   -0.9080    3.6710 hn        1 DA1      0.490800
     14 HN32       -0.2590    0.1030    4.4100 hn        1 DA1      0.490800
     15 H4         -1.8190   -0.2890    0.9900 h4        1 DA1      0.097100
     16 H23         1.6770    0.7120   -1.9110 hn        1 DA1      0.496467
     17 H33        -1.5460    0.7600    3.5570 hn        1 DA1      0.490800
@<TRIPOS>BOND
     1    1    2 ar  
     2    1    8 ar  
     3    2    3 1   
     4    2    4 ar  
     5    3    9 1   
     6    3   10 1   
     7    3   16 1   
     8    4    5 ar  
     9    4   11 1   
    10    5    6 ar  
    11    5   12 1   
    12    6    7 1   
    13    6    8 ar  
    14    7   13 1   
    15    7   14 1   
    16    7   17 1   
    17    8   15 1   
@<TRIPOS>SUBSTRUCTURE
     1 DA1         1 TEMP              0 ****  ****    0 ROOT
