@<TRIPOS>MOLECULE
DA1
   15    15     1     0     0
SMALL
bcc


@<TRIPOS>ATOM
      1 N1         -0.0240   -0.1670   -0.0430 nb        1 DA1     -0.691000
      2 C7          1.3440   -0.0710   -0.0140 ca        1 DA1      0.575200
      3 N2          2.0770   -0.2290   -1.2100 nh        1 DA1     -0.909500
      4 C2          2.0450    0.1020    1.2150 ca        1 DA1     -0.253300
      5 C3          1.3370    0.1520    2.4060 ca        1 DA1     -0.122000
      6 C5         -0.0700    0.0400    2.3930 ca        1 DA1     -0.027700
      7 N3         -0.8380    0.1830    3.5560 nh        1 DA1     -0.797200
      8 C4         -0.6840   -0.1230    1.1170 ca        1 DA1      0.382200
      9 HN21        1.5290   -0.1850   -2.0430 hn        1 DA1      0.390800
     10 HN22        2.8750    0.3680   -1.2450 hn        1 DA1      0.390800
     11 H2          3.1400    0.1850    1.2230 ha        1 DA1      0.142000
     12 H3          1.8780    0.2850    3.3560 ha        1 DA1      0.137000
     13 HN31       -0.3460   -0.0750    4.3850 hn        1 DA1      0.381300
     14 HN32       -1.7300   -0.2600    3.4950 hn        1 DA1      0.381300
     15 H4         -1.7830   -0.2090    1.0280 h4        1 DA1      0.020100
@<TRIPOS>BOND
     1    1    2 ar  
     2    1    8 ar  
     3    2    3 1   
     4    2    4 ar  
     5    3    9 1   
     6    3   10 1   
     7    4    5 ar  
     8    4   11 1   
     9    5    6 ar  
    10    5   12 1   
    11    6    7 1   
    12    6    8 ar  
    13    7   13 1   
    14    7   14 1   
    15    8   15 1   
@<TRIPOS>SUBSTRUCTURE
     1 DA1         1 TEMP              0 ****  ****    0 ROOT
