@<TRIPOS>MOLECULE
DA1
   15    12     1     0     0
SMALL
bcc


@<TRIPOS>ATOM
      1 N1         -0.7650    0.0030   -1.3260 n1        1 DA1     -0.165000
      2 C7          0.5970    0.0030   -1.3260 c1        1 DA1      0.054000
      3 N2          1.3060    0.0070   -2.5550 n3        1 DA1     -0.307000
      4 C2          1.2910    0.0030   -0.1260 c1        1 DA1     -0.188000
      5 C3          0.6080    0.0030    1.0560 c1        1 DA1     -0.122000
      6 C5         -0.7560    0.0030    1.0540 c1        1 DA1     -0.044000
      7 N3         -1.4670   -0.0170    2.2820 n2        1 DA1     -0.306000
      8 C4         -1.4480    0.0030   -0.1470 c2        1 DA1     -0.083000
      9 HN21        1.7020   -0.7580   -2.8560 hn        1 DA1      0.186000
     10 HN22        1.3840    0.7780   -3.0350 hn        1 DA1      0.186000
     11 H2          2.2670    0.0030   -0.1260 ha        1 DA1      0.142000
     12 H3          1.0960    0.0030    1.9010 ha        1 DA1      0.137000
     13 HN31       -1.0130   -0.0780    3.0710 hn        1 DA1      0.176500
     14 HN32       -2.3780    0.0360    2.2830 hn        1 DA1      0.176500
     15 H4         -2.4240    0.0030   -0.1480 h4        1 DA1      0.157000
@<TRIPOS>BOND
     1    1    8 1   
     2    2    3 1   
     3    2    4 1   
     4    3    9 1   
     5    3   10 1   
     6    4   11 1   
     7    5    6 1   
     8    5   12 1   
     9    6    8 1   
    10    7   13 1   
    11    7   14 1   
    12    8   15 1   
@<TRIPOS>SUBSTRUCTURE
     1 DA1         1 TEMP              0 ****  ****    0 ROOT
