@<TRIPOS>MOLECULE
DA2
   31    29     1     0     0
SMALL
bcc


@<TRIPOS>ATOM
      1 C1         -4.3800    1.1650    1.2400 c3        1 DA2      0.166600
      2 C2         -2.8890    0.4570    3.0760 c3        1 DA2      0.166600
      3 N           4.4310   -0.8430   -1.5210 n3        1 DA2     -0.888800
      4 CA          3.1290   -1.4400   -1.5190 c3        1 DA2      0.018500
      5 CB          2.0720   -0.3490   -1.5240 c3        1 DA2     -0.049400
      6 CG          1.1670   -0.5030   -0.2890 c3        1 DA2     -0.104400
      7 CD          0.1440    0.6290   -0.2690 c3        1 DA2      0.181800
      8 NE         -0.8390    0.3710    0.7200 nh        1 DA2     -0.766000
      9 CZ         -1.9040    1.2990    0.9160 c2        1 DA2      0.324000
     10 NH2        -1.8410    2.4950    0.3740 n1        1 DA2     -0.356000
     11 NH1        -3.0740    0.9170    1.7260 nh        1 DA2     -0.631400
     12 C           2.9720   -2.2850   -2.7360 c         1 DA2      0.885600
     13 O           2.6020   -3.4810   -2.6270 o         1 DA2     -0.843800
     14 OXT         3.2840   -1.8230   -3.8650 o         1 DA2     -0.843800
     15 HC11       -4.5430    2.1340    1.2170 h1        1 DA2      0.035033
     16 HC12       -4.4670    0.8010    0.3450 h1        1 DA2      0.035033
     17 HC13       -5.0380    0.7360    1.8330 h1        1 DA2      0.035033
     18 HC21       -2.6940   -0.4960    3.0700 h1        1 DA2      0.035033
     19 HC22       -3.7150    0.6220    3.5980 h1        1 DA2      0.035033
     20 HC23       -2.1460    0.9370    3.4830 h1        1 DA2      0.035033
     21 HN1         4.9530   -1.2490   -2.1630 hn        1 DA2      0.330300
     22 HN2         4.8220   -0.9520   -0.6910 hn        1 DA2      0.330300
     23 HCA         3.0240   -1.9920   -0.7210 h1        1 DA2      0.042700
     24 HCB1        1.5340   -0.4230   -2.3320 hc        1 DA2      0.025700
     25 HCB2        2.5070    0.5270   -1.5010 hc        1 DA2      0.025700
     26 HCG1        0.7000   -1.3700   -0.3280 hc        1 DA2      0.073700
     27 HCG2        1.7220   -0.4630    0.5350 hc        1 DA2      0.073700
     28 HCD1        0.5980    1.4740   -0.0640 h1        1 DA2      0.029200
     29 HCD2       -0.2870    0.6940   -1.1500 h1        1 DA2      0.029200
     30 HNE        -0.7300   -0.3190    1.2960 hn        1 DA2      0.418800
     31 HNH2       -1.1130    2.7310   -0.1290 DU        1 DA2      0.148000
@<TRIPOS>BOND
     1    1   11 1   
     2    1   15 1   
     3    1   16 1   
     4    1   17 1   
     5    2   11 1   
     6    2   18 1   
     7    2   19 1   
     8    2   20 1   
     9    3    4 1   
    10    3   21 1   
    11    3   22 1   
    12    4    5 1   
    13    4   12 1   
    14    4   23 1   
    15    5    6 1   
    16    5   24 1   
    17    5   25 1   
    18    6    7 1   
    19    6   26 1   
    20    6   27 1   
    21    7    8 1   
    22    7   28 1   
    23    7   29 1   
    24    8    9 1   
    25    8   30 1   
    26    9   10 2   
    27    9   11 1   
    28   12   13 1   
    29   12   14 1   
@<TRIPOS>SUBSTRUCTURE
     1 DA2         1 TEMP              0 ****  ****    0 ROOT
