@<TRIPOS>MOLECULE
DA2
   31    30     1     0     0
SMALL
bcc


@<TRIPOS>ATOM
      1 C1          5.1680   -0.6050   -1.0410 c3        1 DA2      0.165100
      2 C2          4.9130    1.4830    0.1500 c3        1 DA2      0.165100
      3 N          -3.3470    1.6810    0.1520 n3        1 DA2     -0.892800
      4 CA         -3.0210    0.3540   -0.3550 c3        1 DA2      0.017500
      5 CB         -1.7620   -0.2420    0.2760 c3        1 DA2     -0.064400
      6 CG         -0.5190    0.5460   -0.0740 c3        1 DA2     -0.084400
      7 CD          0.7190   -0.1650    0.4730 c3        1 DA2      0.174800
      8 NE          1.9510    0.5510    0.2130 nh        1 DA2     -0.839200
      9 CZ          3.1700   -0.1810    0.3040 c2        1 DA2      0.748100
     10 NH2         3.4010   -1.2120    1.0740 n2        1 DA2     -0.880100
     11 NH1         4.2500    0.3850   -0.5200 nh        1 DA2     -0.703600
     12 C          -4.1770   -0.6940   -0.2160 c         1 DA2      0.888600
     13 O          -5.2800   -0.3010    0.2590 o         1 DA2     -0.842300
     14 OXT        -3.9440   -1.8710   -0.6090 o         1 DA2     -0.842300
     15 HC11        5.7880   -0.1040   -1.8310 h1        1 DA2      0.035867
     16 HC12        5.8560   -1.0370   -0.2650 h1        1 DA2      0.035867
     17 HC13        4.5850   -1.4400   -1.5090 h1        1 DA2      0.035867
     18 HC21        5.5980    1.9780   -0.5880 h1        1 DA2      0.035867
     19 HC22        4.1480    2.2280    0.4910 h1        1 DA2      0.035867
     20 HC23        5.5200    1.1590    1.0390 h1        1 DA2      0.035867
     21 HCA        -2.8370    0.4730   -1.4630 h1        1 DA2      0.040700
     22 HCB1       -1.6740   -1.2970   -0.1030 hc        1 DA2      0.049700
     23 HCB2       -1.8770   -0.2940    1.3900 hc        1 DA2      0.049700
     24 HCG1       -0.5900    1.5800    0.3520 hc        1 DA2      0.045200
     25 HCG2       -0.4410    0.6470   -1.1890 hc        1 DA2      0.045200
     26 HCD1        0.7500   -1.2080    0.0410 h1        1 DA2      0.036700
     27 HCD2        0.6160   -0.2670    1.5920 h1        1 DA2      0.036700
     28 HNE         1.8930    1.1760   -0.5640 hn        1 DA2      0.409800
     29 HNH2        2.6120   -1.5710    1.5650 hn        1 DA2      0.396400
     30 HN1        -4.2870    1.8890   -0.1460 hn        1 DA2      0.331800
     31 HN2        -3.3750    1.6400    1.1560 hn        1 DA2      0.331800
@<TRIPOS>BOND
     1    1   11 1   
     2    1   15 1   
     3    1   16 1   
     4    1   17 1   
     5    2   11 1   
     6    2   18 1   
     7    2   19 1   
     8    2   20 1   
     9    3    4 1   
    10    3   30 1   
    11    3   31 1   
    12    4    5 1   
    13    4   12 1   
    14    4   21 1   
    15    5    6 1   
    16    5   22 1   
    17    5   23 1   
    18    6    7 1   
    19    6   24 1   
    20    6   25 1   
    21    7    8 1   
    22    7   26 1   
    23    7   27 1   
    24    8    9 1   
    25    8   28 1   
    26    9   10 2   
    27    9   11 1   
    28   10   29 1   
    29   12   13 1   
    30   12   14 1   
@<TRIPOS>SUBSTRUCTURE
     1 DA2         1 TEMP              0 ****  ****    0 ROOT
