@<TRIPOS>MOLECULE
DA3
   23    23     1     0     0
SMALL
bcc


@<TRIPOS>ATOM
      1 N1          0.1710   -0.2750   -0.2950 n4        1 DA3     -0.812600
      2 C2          1.6290    0.0000   -0.1150 c3        1 DA3     -0.046500
      3 C1          1.9700   -0.0710    1.4380 c         1 DA3      0.927600
      4 O1          3.0550    0.4200    1.7970 o         1 DA3     -0.783300
      5 O2          1.0940   -0.6420    2.1480 o         1 DA3     -0.783300
      6 O3          0.7520    0.7160   -2.7040 os        1 DA3     -0.269300
      7 O4          2.0480    3.2990   -6.0220 o         1 DA3     -0.797300
      8 N2          1.1410    0.7640   -3.9840 n2        1 DA3     -0.427200
      9 C3          2.0920    1.3170   -0.7190 c3        1 DA3     -0.100400
     10 C4          1.3110    1.8290   -1.9130 c3        1 DA3      0.081100
     11 C5          2.1580    2.6090   -2.9380 c3        1 DA3     -0.167700
     12 C6          1.9210    1.7940   -4.2020 ce        1 DA3      0.303300
     13 C7          2.5440    2.2560   -5.5270 c         1 DA3      0.854300
     14 O5          3.5050    1.5860   -5.9730 o         1 DA3     -0.797300
     15 HN11        0.0060   -0.7370   -1.1910 hn        1 DA3      0.449467
     16 HN12       -0.3450    0.6030   -0.2830 hn        1 DA3      0.449467
     17 H2          2.1770   -0.8520   -0.6110 hx        1 DA3      0.071700
     18 H31         2.0770    2.1090    0.0780 hc        1 DA3      0.082700
     19 H32         3.1710    1.1660   -0.9980 hc        1 DA3      0.082700
     20 H4          0.4230    2.4270   -1.5770 h1        1 DA3      0.072700
     21 H51         1.7940    3.6540   -3.0800 hc        1 DA3      0.079700
     22 H52         3.2420    2.6310   -2.6780 hc        1 DA3      0.079700
     23 H13        -0.1250   -0.8610    0.5070 hn        1 DA3      0.449467
@<TRIPOS>BOND
     1    1    2 1   
     2    1   15 1   
     3    1   16 1   
     4    1   23 1   
     5    2    3 1   
     6    2    9 1   
     7    2   17 1   
     8    3    4 1   
     9    3    5 1   
    10    6    8 1   
    11    6   10 1   
    12    7   13 1   
    13    8   12 2   
    14    9   10 1   
    15    9   18 1   
    16    9   19 1   
    17   10   11 1   
    18   10   20 1   
    19   11   12 1   
    20   11   21 1   
    21   11   22 1   
    22   12   13 1   
    23   13   14 1   
@<TRIPOS>SUBSTRUCTURE
     1 DA3         1 TEMP              0 ****  ****    0 ROOT
