@<TRIPOS>MOLECULE
DA3
   23    23     1     0     0
SMALL
bcc


@<TRIPOS>ATOM
      1 N1          0.4120   -0.6360   -0.4760 n4        1 DA3     -0.812600
      2 C2          1.6850   -0.0490    0.0370 c3        1 DA3     -0.046500
      3 C1          1.3970    0.6270    1.4520 c         1 DA3      0.927600
      4 O1          2.2630    1.4160    1.8740 o         1 DA3     -0.783300
      5 O2          0.3360    0.2420    2.0140 o         1 DA3     -0.783300
      6 O3          0.5780    0.9460   -2.6220 os        1 DA3     -0.269300
      7 O4          1.8090    3.5100   -5.9790 o         1 DA3     -0.797300
      8 N2          0.8130    1.1140   -3.9290 n2        1 DA3     -0.427200
      9 C3          2.3730    0.8710   -0.9570 c3        1 DA3     -0.100400
     10 C4          1.4780    1.7700   -1.7860 c3        1 DA3      0.081100
     11 C5          2.2730    2.5890   -2.8220 c3        1 DA3     -0.167700
     12 C6          1.7430    2.0150   -4.1290 ce        1 DA3      0.303300
     13 C7          2.3290    2.4890   -5.4660 c         1 DA3      0.854300
     14 O5          3.3070    1.8340   -5.9030 o         1 DA3     -0.797300
     15 HN11       -0.0370   -1.1270    0.3070 hn        1 DA3      0.449467
     16 HN12        0.5780   -1.2410   -1.2770 hn        1 DA3      0.449467
     17 H2          2.3770   -0.9130    0.2580 hx        1 DA3      0.071700
     18 H31         3.0590    1.5270   -0.3470 hc        1 DA3      0.082700
     19 H32         3.0020    0.2560   -1.6550 hc        1 DA3      0.082700
     20 H4          0.8110    2.3990   -1.1460 h1        1 DA3      0.072700
     21 H51         3.3750    2.4350   -2.7400 hc        1 DA3      0.079700
     22 H52         2.0490    3.6790   -2.7550 hc        1 DA3      0.079700
     23 H13        -0.2030    0.1320   -0.7690 hn        1 DA3      0.449467
@<TRIPOS>BOND
     1    1    2 1   
     2    1   15 1   
     3    1   16 1   
     4    1   23 1   
     5    2    3 1   
     6    2    9 1   
     7    2   17 1   
     8    3    4 1   
     9    3    5 1   
    10    6    8 1   
    11    6   10 1   
    12    7   13 1   
    13    8   12 2   
    14    9   10 1   
    15    9   18 1   
    16    9   19 1   
    17   10   11 1   
    18   10   20 1   
    19   11   12 1   
    20   11   21 1   
    21   11   22 1   
    22   12   13 1   
    23   13   14 1   
@<TRIPOS>SUBSTRUCTURE
     1 DA3         1 TEMP              0 ****  ****    0 ROOT
