@<TRIPOS>MOLECULE
DA3
   22    22     1     0     0
SMALL
bcc


@<TRIPOS>ATOM
      1 N1          0.3440   -1.2240    2.8550 n3        1 DA3     -0.904800
      2 C2         -0.0110   -1.4010    1.4890 c3        1 DA3      0.029500
      3 C1          0.6610   -2.6430    0.9500 c         1 DA3      0.893600
      4 O1          1.9170   -2.7310    0.9540 o         1 DA3     -0.854300
      5 O2         -0.0350   -3.5890    0.4970 o         1 DA3     -0.854300
      6 O3         -0.6140   -0.6830   -1.3750 os        1 DA3     -0.205300
      7 O4         -1.0860    2.8560   -3.5900 o         1 DA3     -0.829800
      8 N2         -0.5460    0.1290   -2.3300 n2        1 DA3     -0.428200
      9 C3          0.4380   -0.1980    0.6910 c3        1 DA3     -0.077400
     10 C4         -0.5680    0.1970   -0.1430 c3        1 DA3      0.097100
     11 C5         -0.2840    1.6740   -0.7090 c3        1 DA3     -0.163700
     12 C6         -0.0890    1.3970   -1.9600 ce        1 DA3      0.273300
     13 C7         -0.0380    2.5120   -2.9830 c         1 DA3      0.850300
     14 O5          1.0510    3.0940   -3.2260 o         1 DA3     -0.829800
     15 HN11       -0.2010   -0.5930    3.2330 hn        1 DA3      0.332800
     16 HN12        0.2480   -2.0180    3.3010 hn        1 DA3      0.332800
     17 H2         -0.9810   -1.4970    1.4140 h1        1 DA3      0.038700
     18 H31         0.6620    0.5340    1.3020 hc        1 DA3      0.058700
     19 H32         1.2280   -0.4340    0.1610 hc        1 DA3      0.058700
     20 H4         -1.4270    0.1710    0.3240 h1        1 DA3      0.051700
     21 H51         0.4040    2.2020   -0.2530 hc        1 DA3      0.064200
     22 H52        -1.0740    2.2450   -0.6010 hc        1 DA3      0.064200
@<TRIPOS>BOND
     1    1    2 1   
     2    1   15 1   
     3    1   16 1   
     4    2    3 1   
     5    2    9 1   
     6    2   17 1   
     7    3    4 1   
     8    3    5 1   
     9    6    8 1   
    10    6   10 1   
    11    7   13 1   
    12    8   12 2   
    13    9   10 1   
    14    9   18 1   
    15    9   19 1   
    16   10   11 1   
    17   10   20 1   
    18   11   12 1   
    19   11   21 1   
    20   11   22 1   
    21   12   13 1   
    22   13   14 1   
@<TRIPOS>SUBSTRUCTURE
     1 DA3         1 TEMP              0 ****  ****    0 ROOT
