@<TRIPOS>MOLECULE
DA3
   22    22     1     0     0
SMALL
bcc


@<TRIPOS>ATOM
      1 N1          1.2580    1.2910    2.0940 n3        1 DA3     -0.904800
      2 C2         -0.0130    0.6110    2.3110 c3        1 DA3      0.029500
      3 C1         -0.0830   -0.2140    3.6370 c         1 DA3      0.893600
      4 O1          0.9850   -0.4080    4.2900 o         1 DA3     -0.854300
      5 O2         -1.2160   -0.6260    4.0120 o         1 DA3     -0.854300
      6 O3         -1.6160   -0.2000   -0.9820 os        1 DA3     -0.205300
      7 O4          1.0700    0.7830   -4.3100 o         1 DA3     -0.829800
      8 N2         -1.1660   -0.4770   -2.2000 n2        1 DA3     -0.428200
      9 C3         -0.4420   -0.2970    1.1550 c3        1 DA3     -0.077400
     10 C4         -0.5750    0.4590   -0.1500 c3        1 DA3      0.097100
     11 C5          0.6650    0.4590   -1.0650 c3        1 DA3     -0.163700
     12 C6          0.0940   -0.1360   -2.3440 ce        1 DA3      0.273300
     13 C7          0.9500   -0.2520   -3.5960 c         1 DA3      0.850300
     14 O5          1.5140   -1.3540   -3.8330 o         1 DA3     -0.829800
     15 HN11        1.7990    0.7820    1.4180 hn        1 DA3      0.332800
     16 HN12        1.7750    1.2690    2.9590 hn        1 DA3      0.332800
     17 H2         -0.7850    1.4310    2.4140 h1        1 DA3      0.038700
     18 H31         0.2800   -1.1450    1.0390 hc        1 DA3      0.058700
     19 H32        -1.4370   -0.7400    1.4300 hc        1 DA3      0.058700
     20 H4         -0.9550    1.4970    0.0280 h1        1 DA3      0.051700
     21 H51         1.0540    1.4880   -1.2410 hc        1 DA3      0.064200
     22 H52         1.4890   -0.1790   -0.6670 hc        1 DA3      0.064200
@<TRIPOS>BOND
     1    1    2 1   
     2    1   15 1   
     3    1   16 1   
     4    2    3 1   
     5    2    9 1   
     6    2   17 1   
     7    3    4 1   
     8    3    5 1   
     9    6    8 1   
    10    6   10 1   
    11    7   13 1   
    12    8   12 2   
    13    9   10 1   
    14    9   18 1   
    15    9   19 1   
    16   10   11 1   
    17   10   20 1   
    18   11   12 1   
    19   11   21 1   
    20   11   22 1   
    21   12   13 1   
    22   13   14 1   
@<TRIPOS>SUBSTRUCTURE
     1 DA3         1 TEMP              0 ****  ****    0 ROOT
