@<TRIPOS>MOLECULE
DA3
   23    23     1     0     0
SMALL
bcc


@<TRIPOS>ATOM
      1 N1          0.4180   -0.6350   -0.4610 nz        1 DA3     -0.812600
      2 C2          1.7050   -0.0610    0.0320 c3        1 DA3     -0.046500
      3 C1          1.4480    0.6140    1.4540 c         1 DA3      0.927600
      4 O1          2.3280    1.3940    1.8630 o         1 DA3     -0.783300
      5 O2          0.3940    0.2370    2.0330 o         1 DA3     -0.783300
      6 O3          0.5600    0.9520   -2.6050 os        1 DA3     -0.269300
      7 O4          1.7520    3.5120   -5.9780 o         1 DA3     -0.797300
      8 N2          0.7740    1.1220   -3.9150 n2        1 DA3     -0.427200
      9 C3          2.3840    0.8560   -0.9720 c3        1 DA3     -0.100400
     10 C4          1.4820    1.7650   -1.7830 c3        1 DA3      0.081100
     11 C5          2.2670    2.5800   -2.8300 c3        1 DA3     -0.167700
     12 C6          1.7080    2.0150   -4.1290 ce        1 DA3      0.303300
     13 C7          2.2760    2.4880   -5.4740 c         1 DA3      0.854300
     14 O5          3.2430    1.8280   -5.9280 o         1 DA3     -0.797300
     15 HN11        0.5640   -1.2380   -1.2660 hn        1 DA3      0.449467
     16 HN12       -0.0220   -1.1240    0.3290 hn        1 DA3      0.449467
     17 H2          2.3920   -0.9320    0.2380 hx        1 DA3      0.071700
     18 H31         3.0860    1.5040   -0.3730 hc        1 DA3      0.082700
     19 H32         2.9940    0.2370   -1.6830 hc        1 DA3      0.082700
     20 H4          0.8330    2.3980   -1.1290 h1        1 DA3      0.072700
     21 H51         2.0530    3.6720   -2.7560 hc        1 DA3      0.079700
     22 H52         3.3680    2.4170   -2.7680 hc        1 DA3      0.079700
     23 H13        -0.1960    0.1400   -0.7410 hn        1 DA3      0.449467
@<TRIPOS>BOND
     1    1    2 1   
     2    1   15 1   
     3    1   16 1   
     4    1   23 1   
     5    2    3 1   
     6    2    9 1   
     7    2   17 1   
     8    3    4 1   
     9    3    5 1   
    10    6    8 1   
    11    6   10 1   
    12    7   13 1   
    13    8   12 2   
    14    9   10 1   
    15    9   18 1   
    16    9   19 1   
    17   10   11 1   
    18   10   20 1   
    19   11   12 1   
    20   11   21 1   
    21   11   22 1   
    22   12   13 1   
    23   13   14 1   
@<TRIPOS>SUBSTRUCTURE
     1 DA3         1 TEMP              0 ****  ****    0 ROOT
