@<TRIPOS>MOLECULE
DA4
   20    20     1     0     0
SMALL
bcc


@<TRIPOS>ATOM
      1 N1         -0.0730    0.1650   -0.1500 n4        1 DA4     -0.786500
      2 S2          1.8450    0.0190    0.0090 sy        1 DA4      1.493200
      3 O3          1.9500   -0.0670    1.3790 o         1 DA4     -0.564800
      4 O4          2.0560   -1.0690   -0.8090 o         1 DA4     -0.564800
      5 C5          2.2170    1.4370   -0.6260 ca        1 DA4     -0.552500
      6 C6          2.3580    2.5820    0.1880 ca        1 DA4      0.013000
      7 C7          2.7520    3.8110   -0.3470 ca        1 DA4      0.045000
      8 C8          3.0230    3.9060   -1.7270 ca        1 DA4      0.016000
      9 C9          2.8950    2.7800   -2.5440 ca        1 DA4     -0.143000
     10 C10         2.5010    1.5650   -2.0050 ca        1 DA4      0.006000
     11 C11         2.8850    4.9380    0.4820 cg        1 DA4     -0.208000
     12 C12         3.0070    5.9010    1.1830 c1        1 DA4     -0.015500
     13 HN1        -0.4370   -0.5900   -0.7280 hn        1 DA4      0.455467
     14 HN1A       -0.3630    1.0450   -0.5630 hn        1 DA4      0.455467
     15 H6          2.1730    2.5020    1.2770 ha        1 DA4      0.174000
     16 H8          3.3430    4.8720   -2.1570 ha        1 DA4      0.180000
     17 H9          3.1190    2.8580   -3.6230 ha        1 DA4      0.179000
     18 H10         2.4260    0.6750   -2.6580 ha        1 DA4      0.170000
     19 H12         3.1180    6.7580    1.8060 ha        1 DA4      0.191500
     20 H13        -0.5090    0.0900    0.7680 hn        1 DA4      0.455467
@<TRIPOS>BOND
     1    1    2 1   
     2    1   13 1   
     3    1   14 1   
     4    1   20 1   
     5    2    3 2   
     6    2    4 2   
     7    2    5 1   
     8    5    6 ar  
     9    5   10 ar  
    10    6    7 ar  
    11    6   15 1   
    12    7    8 ar  
    13    7   11 1   
    14    8    9 ar  
    15    8   16 1   
    16    9   10 ar  
    17    9   17 1   
    18   10   18 1   
    19   11   12 3   
    20   12   19 1   
@<TRIPOS>SUBSTRUCTURE
     1 DA4         1 TEMP              0 ****  ****    0 ROOT
