@<TRIPOS>MOLECULE
DA4
   19    19     1     0     0
SMALL
bcc


@<TRIPOS>ATOM
      1 N1         -2.2620    0.5700   -1.4170 n3        1 DA4     -1.026700
      2 S2         -1.8760    0.3600    0.1230 sy        1 DA4      1.527200
      3 O3         -1.7960    1.6190    0.7550 o         1 DA4     -0.656800
      4 O4         -2.7340   -0.6080    0.6870 o         1 DA4     -0.656800
      5 C5         -0.3170   -0.2960    0.0420 ca        1 DA4     -0.383500
      6 C6          0.8050    0.5360    0.0200 ca        1 DA4      0.002000
      7 C7          2.1000   -0.0010   -0.0320 ca        1 DA4      0.001000
      8 C8          2.2640   -1.3960   -0.0560 ca        1 DA4     -0.049000
      9 C9          1.1490   -2.2300   -0.0230 ca        1 DA4     -0.158000
     10 C10        -0.1310   -1.6840    0.0270 ca        1 DA4     -0.014000
     11 C11         3.2220    0.8490   -0.0570 cg        1 DA4     -0.136000
     12 C12         4.1760    1.5720   -0.0770 c1        1 DA4     -0.119500
     13 HN1        -2.0840    1.4050   -1.9170 hn        1 DA4      0.447800
     14 HN1A       -2.7260   -0.1110   -1.9640 hn        1 DA4      0.447800
     15 H6          0.6710    1.6320    0.0630 ha        1 DA4      0.159000
     16 H8          3.2770   -1.8270   -0.0960 ha        1 DA4      0.145000
     17 H9          1.2800   -3.3230   -0.0310 ha        1 DA4      0.144000
     18 H10        -1.0130   -2.3480    0.0740 ha        1 DA4      0.156000
     19 H12         5.0210    2.2130   -0.0930 ha        1 DA4      0.170500
@<TRIPOS>BOND
     1    1    2 1   
     2    1   13 1   
     3    1   14 1   
     4    2    3 2   
     5    2    4 2   
     6    2    5 1   
     7    5    6 ar  
     8    5   10 ar  
     9    6    7 ar  
    10    6   15 1   
    11    7    8 ar  
    12    7   11 1   
    13    8    9 ar  
    14    8   16 1   
    15    9   10 ar  
    16    9   17 1   
    17   10   18 1   
    18   11   12 3   
    19   12   19 1   
@<TRIPOS>SUBSTRUCTURE
     1 DA4         1 TEMP              0 ****  ****    0 ROOT
