@<TRIPOS>MOLECULE
DA4
   20    20     1     0     0
SMALL
bcc


@<TRIPOS>ATOM
      1 N1         -0.0430    0.1720    0.0290 nz        1 DA4     -0.786500
      2 S2          1.8790   -0.0090    0.0360 sy        1 DA4      1.493200
      3 O3          2.0870   -0.1200    1.3930 o         1 DA4     -0.564800
      4 O4          2.0050   -1.0880   -0.8120 o         1 DA4     -0.564800
      5 C5          2.2270    1.4120   -0.6040 ca        1 DA4     -0.552500
      6 C6          2.4510    2.5410    0.2140 ca        1 DA4      0.013000
      7 C7          2.8260    3.7710   -0.3320 ca        1 DA4      0.045000
      8 C8          2.9920    3.8840   -1.7270 ca        1 DA4      0.016000
      9 C9          2.7810    2.7740   -2.5490 ca        1 DA4     -0.143000
     10 C10         2.4060    1.5580   -1.9990 ca        1 DA4      0.006000
     11 C11         3.0430    4.8820    0.5020 cg        1 DA4     -0.208000
     12 C12         3.2360    5.8320    1.2060 c1        1 DA4     -0.015500
     13 HN1        -0.4080    0.0900    0.9760 hn        1 DA4      0.455467
     14 HN1A       -0.4650   -0.5660   -0.5320 hn        1 DA4      0.455467
     15 H6          2.3480    2.4460    1.3120 ha        1 DA4      0.174000
     16 H8          3.2960    4.8510   -2.1650 ha        1 DA4      0.180000
     17 H9          2.9230    2.8660   -3.6400 ha        1 DA4      0.179000
     18 H10         2.2650    0.6790   -2.6580 ha        1 DA4      0.170000
     19 H12         3.4090    6.6760    1.8310 ha        1 DA4      0.191500
     20 H13        -0.3480    1.0640   -0.3480 hn        1 DA4      0.455467
@<TRIPOS>BOND
     1    1    2 1   
     2    1   13 1   
     3    1   14 1   
     4    1   20 1   
     5    2    3 2   
     6    2    4 2   
     7    2    5 1   
     8    5    6 ar  
     9    5   10 ar  
    10    6    7 ar  
    11    6   15 1   
    12    7    8 ar  
    13    7   11 1   
    14    8    9 ar  
    15    8   16 1   
    16    9   10 ar  
    17    9   17 1   
    18   10   18 1   
    19   11   12 3   
    20   12   19 1   
@<TRIPOS>SUBSTRUCTURE
     1 DA4         1 TEMP              0 ****  ****    0 ROOT
