@<TRIPOS>MOLECULE
DA5
   45    47     1     0     0
SMALL
bcc


@<TRIPOS>ATOM
      1 C1         -0.9910   -3.8990    0.0450 ca        1 DA5     -0.148000
      2 C2          0.3500   -4.1550   -0.0110 ca        1 DA5     -0.042000
      3 C3          1.2920   -3.0890   -0.0860 ca        1 DA5     -0.017000
      4 C4          0.8820   -1.7800   -0.0930 ca        1 DA5     -0.141600
      5 C5         -2.7150    1.5320   -0.1890 ca        1 DA5     -0.072900
      6 C6         -4.0520    1.8460   -0.1210 ca        1 DA5     -0.002000
      7 C7         -5.0370    0.8300    0.0280 ca        1 DA5     -0.035000
      8 C8         -4.6800   -0.4900    0.0870 ca        1 DA5     -0.155000
      9 C9         -2.8650   -2.2290    0.0110 ca        1 DA5      0.069600
     10 N9         -3.8580   -3.3080    0.0270 n4        1 DA5     -0.723000
     11 N10        -0.9850   -0.1890   -0.1620 na        1 DA5     -0.055100
     12 C11        -1.4900   -2.5610   -0.0010 ca        1 DA5     -0.047000
     13 C12        -0.5340   -1.4780   -0.0830 ca        1 DA5      0.111700
     14 C13        -3.3120   -0.8870   -0.0000 ca        1 DA5     -0.037000
     15 C14        -2.3090    0.1470   -0.1160 ca        1 DA5      0.092700
     16 BR         -1.4400    2.8830   -0.3700 br        1 DA5      0.064900
     17 CD1         1.8860   -0.6530   -0.1670 c         1 DA5      0.656700
     18 OD1         1.5990    0.3710   -0.8350 o         1 DA5     -0.626100
     19 ND1         3.0430   -0.7790    0.5330 n         1 DA5     -0.505900
     20 CD2         4.0870    0.2260    0.5000 c3        1 DA5      0.061000
     21 CD3         5.4380   -0.3320   -0.0180 c3        1 DA5      0.164800
     22 ND2         6.4700    0.6820    0.0920 n3        1 DA5     -0.750600
     23 CD7         7.7490    0.1650    0.5240 c3        1 DA5      0.156600
     24 CD8         6.5580    1.5400   -1.0680 c3        1 DA5      0.156600
     25 H1         -1.6770   -4.7560    0.1410 ha        1 DA5      0.152000
     26 H2          0.7300   -5.1960    0.0090 ha        1 DA5      0.201000
     27 H3          2.3660   -3.3540   -0.1450 ha        1 DA5      0.198000
     28 H6         -4.3890    2.9030   -0.1750 ha        1 DA5      0.214000
     29 H7         -6.1010    1.1320    0.0980 ha        1 DA5      0.203000
     30 H8         -5.4790   -1.2360    0.2280 ha        1 DA5      0.152000
     31 HN91       -4.0560   -3.5840    1.0010 hn        1 DA5      0.487800
     32 HN92       -4.7330   -2.9950   -0.4210 hn        1 DA5      0.487800
     33 HN93       -3.5040   -4.1260   -0.4920 hn        1 DA5      0.487800
     34 H10        -0.2890    0.5670   -0.3040 hn        1 DA5      0.401700
     35 HND1        3.2460   -1.6220    1.0190 hn        1 DA5      0.323500
     36 HD21        4.2170    0.6090    1.5540 h1        1 DA5      0.091200
     37 HD22        3.7560    1.0840   -0.1530 h1        1 DA5      0.091200
     38 HD31        5.2990   -0.6820   -1.0830 h1        1 DA5      0.037700
     39 HD32        5.7210   -1.2300    0.6010 h1        1 DA5      0.037700
     40 HD71        8.4550    1.0270    0.6560 h1        1 DA5      0.042867
     41 HD72        7.6240   -0.3490    1.5130 h1        1 DA5      0.042867
     42 HD73        8.2020   -0.5610   -0.2060 h1        1 DA5      0.042867
     43 HD81        5.5470    1.9750   -1.2810 h1        1 DA5      0.042867
     44 HD82        7.2690    2.3780   -0.8390 h1        1 DA5      0.042867
     45 HD83        6.9190    1.0040   -1.9880 h1        1 DA5      0.042867
@<TRIPOS>BOND
     1    1    2 ar  
     2    1   12 ar  
     3    1   25 1   
     4    2    3 ar  
     5    2   26 1   
     6    3    4 ar  
     7    3   27 1   
     8    4   13 ar  
     9    4   17 1   
    10    5    6 ar  
    11    5   15 ar  
    12    5   16 1   
    13    6    7 ar  
    14    6   28 1   
    15    7    8 ar  
    16    7   29 1   
    17    8   14 ar  
    18    8   30 1   
    19    9   10 1   
    20    9   12 ar  
    21    9   14 ar  
    22   10   31 1   
    23   10   32 1   
    24   10   33 1   
    25   11   13 1   
    26   11   15 2   
    27   11   34 1   
    28   12   13 ar  
    29   14   15 ar  
    30   17   18 2   
    31   17   19 1   
    32   19   20 1   
    33   19   35 1   
    34   20   21 1   
    35   20   36 1   
    36   20   37 1   
    37   21   22 1   
    38   21   38 1   
    39   21   39 1   
    40   22   23 1   
    41   22   24 1   
    42   23   40 1   
    43   23   41 1   
    44   23   42 1   
    45   24   43 1   
    46   24   44 1   
    47   24   45 1   
@<TRIPOS>SUBSTRUCTURE
     1 DA5         1 TEMP              0 ****  ****    0 ROOT
