@<TRIPOS>MOLECULE
DA5
   47    49     1     0     0
SMALL
bcc


@<TRIPOS>ATOM
      1 C1         -0.1080   -0.0910   -0.0960 ca        1 DA5     -0.028000
      2 C2          1.2630   -0.1240   -0.1640 ca        1 DA5     -0.090000
      3 C3          2.0350   -0.0990    1.0150 ca        1 DA5      0.028000
      4 C4          1.4520   -0.0530    2.2760 ca        1 DA5     -0.216600
      5 C5         -2.6410    0.0180    4.9930 ca        1 DA5     -0.111900
      6 C6         -4.0210    0.0090    5.0970 ca        1 DA5      0.079000
      7 C7         -4.8420   -0.0220    3.9310 ca        1 DA5     -0.027000
      8 C8         -4.2840   -0.0270    2.6820 ca        1 DA5     -0.131000
      9 C9         -2.2110    0.0240    1.2590 ca        1 DA5      0.130600
     10 N9         -3.0140    0.1030    0.0330 n4        1 DA5     -0.737000
     11 N10        -0.6610    0.0030    3.5750 na        1 DA5     -0.110100
     12 C11        -0.7830   -0.0270    1.1580 ca        1 DA5     -0.090000
     13 C12        -0.0010   -0.0250    2.3690 ca        1 DA5      0.136700
     14 C13        -2.8630    0.0000    2.5010 ca        1 DA5     -0.029000
     15 C14        -2.0290    0.0040    3.6970 ca        1 DA5      0.136700
     16 BR         -1.6000    0.0450    6.5450 br        1 DA5      0.071900
     17 CD1         2.2840   -0.0320    3.4920 c         1 DA5      0.586700
     18 OD1         1.9120    0.0280    4.6570 o         1 DA5     -0.421100
     19 ND1         3.8050   -0.0900    3.3290 n4        1 DA5     -0.672800
     20 CD2         4.5380   -0.0690    4.6380 c3        1 DA5      0.083800
     21 CD3         6.0720   -0.1430    4.4500 c3        1 DA5      0.076800
     22 ND2         6.8320   -0.1840    5.7380 n4        1 DA5     -0.674400
     23 CD7         8.2270   -0.6790    5.4920 c3        1 DA5      0.073600
     24 CD8         6.8790    1.1490    6.4060 c3        1 DA5      0.073600
     25 H1         -0.6620   -0.1330   -1.0530 ha        1 DA5      0.186000
     26 H2          1.7780   -0.1750   -1.1490 ha        1 DA5      0.232000
     27 H3          3.1310   -0.1190    0.8630 ha        1 DA5      0.169000
     28 H6         -4.5170    0.0210    6.0960 ha        1 DA5      0.242000
     29 H7         -5.9470   -0.0460    4.0620 ha        1 DA5      0.236000
     30 H8         -4.9680   -0.0740    1.8160 ha        1 DA5      0.179000
     31 HN91       -3.1790   -0.8480   -0.3460 hn        1 DA5      0.504133
     32 HN92       -3.9320    0.5440    0.2250 hn        1 DA5      0.504133
     33 HN93       -2.5370    0.6750   -0.6830 hn        1 DA5      0.504133
     34 H10        -0.1350    0.0220    4.4500 hn        1 DA5      0.368700
     35 HND1        4.1040    0.7180    2.7630 hn        1 DA5      0.478800
     36 HD21        4.2490    0.8830    5.1770 hx        1 DA5      0.141700
     37 HD22        4.1680   -0.9460    5.2510 hx        1 DA5      0.141700
     38 HD31        6.3400   -1.0780    3.8700 hx        1 DA5      0.128700
     39 HD32        6.4410    0.7540    3.8700 hx        1 DA5      0.128700
     40 HD71        8.1930   -1.7230    5.0760 hx        1 DA5      0.128700
     41 HD72        8.7550    0.0080    4.7760 hx        1 DA5      0.128700
     42 HD73        8.7830   -0.6880    6.4740 hx        1 DA5      0.128700
     43 HD81        7.4260    1.0450    7.3890 hx        1 DA5      0.128700
     44 HD82        7.4370    1.8830    5.7620 hx        1 DA5      0.128700
     45 HD83        5.8370    1.5150    6.6020 hx        1 DA5      0.128700
     46 HD13        4.0460   -0.9530    2.8200 hn        1 DA5      0.478800
     47 HD23        6.3730   -0.8510    6.3780 hn        1 DA5      0.463800
@<TRIPOS>BOND
     1    1    2 ar  
     2    1   12 ar  
     3    1   25 1   
     4    2    3 ar  
     5    2   26 1   
     6    3    4 ar  
     7    3   27 1   
     8    4   13 ar  
     9    4   17 1   
    10    5    6 ar  
    11    5   15 ar  
    12    5   16 1   
    13    6    7 ar  
    14    6   28 1   
    15    7    8 ar  
    16    7   29 1   
    17    8   14 ar  
    18    8   30 1   
    19    9   10 1   
    20    9   12 ar  
    21    9   14 ar  
    22   10   31 1   
    23   10   32 1   
    24   10   33 1   
    25   11   13 1   
    26   11   15 2   
    27   11   34 1   
    28   12   13 ar  
    29   14   15 ar  
    30   17   18 2   
    31   17   19 1   
    32   19   20 1   
    33   19   35 1   
    34   19   46 1   
    35   20   21 1   
    36   20   36 1   
    37   20   37 1   
    38   21   22 1   
    39   21   38 1   
    40   21   39 1   
    41   22   23 1   
    42   22   24 1   
    43   22   47 1   
    44   23   40 1   
    45   23   41 1   
    46   23   42 1   
    47   24   43 1   
    48   24   44 1   
    49   24   45 1   
@<TRIPOS>SUBSTRUCTURE
     1 DA5         1 TEMP              0 ****  ****    0 ROOT
