@<TRIPOS>MOLECULE
DA5
   47    49     1     0     0
SMALL
bcc


@<TRIPOS>ATOM
      1 C1         -0.1060   -0.1000   -0.0970 ca        1 DA5     -0.028000
      2 C2          1.2650   -0.1350   -0.1640 ca        1 DA5     -0.090000
      3 C3          2.0360   -0.1060    1.0150 ca        1 DA5      0.028000
      4 C4          1.4530   -0.0570    2.2760 ca        1 DA5     -0.216600
      5 C5         -2.6420    0.0280    4.9910 ca        1 DA5     -0.111900
      6 C6         -4.0210    0.0200    5.0940 ca        1 DA5      0.079000
      7 C7         -4.8420   -0.0140    3.9280 ca        1 DA5     -0.027000
      8 C8         -4.2830   -0.0230    2.6790 ca        1 DA5     -0.131000
      9 C9         -2.2100    0.0210    1.2570 ca        1 DA5      0.130600
     10 N9         -3.0130    0.0970    0.0300 nz        1 DA5     -0.737000
     11 N10        -0.6610    0.0060    3.5740 na        1 DA5     -0.110100
     12 C11        -0.7820   -0.0310    1.1570 ca        1 DA5     -0.090000
     13 C12        -0.0010   -0.0260    2.3690 ca        1 DA5      0.136700
     14 C13        -2.8620    0.0020    2.4990 ca        1 DA5     -0.029000
     15 C14        -2.0290    0.0090    3.6950 ca        1 DA5      0.136700
     16 Br         -1.6010    0.0590    6.5430 br        1 DA5      0.071900
     17 CD1         2.2840   -0.0330    3.4920 c         1 DA5      0.586700
     18 OD1         1.9120    0.0320    4.6560 o         1 DA5     -0.421100
     19 ND1         3.8060   -0.0940    3.3300 ny        1 DA5     -0.672800
     20 CD2         4.5370   -0.0690    4.6390 c3        1 DA5      0.083800
     21 CD3         6.0720   -0.1460    4.4530 c3        1 DA5      0.076800
     22 ND2         6.8310   -0.1820    5.7410 nx        1 DA5     -0.674400
     23 CD7         8.2260   -0.6790    5.4970 c3        1 DA5      0.073600
     24 CD8         6.8780    1.1540    6.4040 c3        1 DA5      0.073600
     25 H1         -0.6610   -0.1440   -1.0530 ha        1 DA5      0.186000
     26 H2          1.7800   -0.1890   -1.1480 ha        1 DA5      0.232000
     27 H3          3.1310   -0.1290    0.8640 ha        1 DA5      0.169000
     28 H6         -4.5180    0.0360    6.0930 ha        1 DA5      0.242000
     29 H7         -5.9470   -0.0360    4.0590 ha        1 DA5      0.236000
     30 H8         -4.9680   -0.0730    1.8140 ha        1 DA5      0.179000
     31 HN91       -3.1770   -0.8550   -0.3460 hn        1 DA5      0.504133
     32 HN92       -2.5350    0.6670   -0.6870 hn        1 DA5      0.504133
     33 HN93       -3.9310    0.5390    0.2210 hn        1 DA5      0.504133
     34 H10        -0.1350    0.0270    4.4490 hn        1 DA5      0.368700
     35 HND1        4.0450   -0.9600    2.8250 hn        1 DA5      0.478800
     36 HD21        4.2500    0.8860    5.1740 hx        1 DA5      0.141700
     37 HD22        4.1660   -0.9430    5.2560 hx        1 DA5      0.141700
     38 HD31        6.3380   -1.0850    3.8770 hx        1 DA5      0.128700
     39 HD32        6.4420    0.7480    3.8680 hx        1 DA5      0.128700
     40 HD71        8.7810   -0.6840    6.4790 hx        1 DA5      0.128700
     41 HD72        8.7540    0.0050    4.7790 hx        1 DA5      0.128700
     42 HD73        8.1910   -1.7240    5.0860 hx        1 DA5      0.128700
     43 HD81        7.4250    1.0540    7.3870 hx        1 DA5      0.128700
     44 HD82        5.8370    1.5210    6.5980 hx        1 DA5      0.128700
     45 HD83        7.4360    1.8850    5.7560 hx        1 DA5      0.128700
     46 HD13        4.1060    0.7100    2.7610 hn        1 DA5      0.478800
     47 HD23        6.3710   -0.8450    6.3830 hn        1 DA5      0.463800
@<TRIPOS>BOND
     1    1    2 ar  
     2    1   12 ar  
     3    1   25 1   
     4    2    3 ar  
     5    2   26 1   
     6    3    4 ar  
     7    3   27 1   
     8    4   13 ar  
     9    4   17 1   
    10    5    6 ar  
    11    5   15 ar  
    12    5   16 1   
    13    6    7 ar  
    14    6   28 1   
    15    7    8 ar  
    16    7   29 1   
    17    8   14 ar  
    18    8   30 1   
    19    9   10 1   
    20    9   12 ar  
    21    9   14 ar  
    22   10   31 1   
    23   10   32 1   
    24   10   33 1   
    25   11   13 1   
    26   11   15 2   
    27   11   34 1   
    28   12   13 ar  
    29   14   15 ar  
    30   17   18 2   
    31   17   19 1   
    32   19   20 1   
    33   19   35 1   
    34   19   46 1   
    35   20   21 1   
    36   20   36 1   
    37   20   37 1   
    38   21   22 1   
    39   21   38 1   
    40   21   39 1   
    41   22   23 1   
    42   22   24 1   
    43   22   47 1   
    44   23   40 1   
    45   23   41 1   
    46   23   42 1   
    47   24   43 1   
    48   24   44 1   
    49   24   45 1   
@<TRIPOS>SUBSTRUCTURE
     1 DA5         1 TEMP              0 ****  ****    0 ROOT
