@<TRIPOS>MOLECULE
DA5
   47    49     1     0     0
SMALL
bcc


@<TRIPOS>ATOM
      1 C1         -0.1070   -0.0940   -0.0970 ca        1 DA5     -0.028000
      2 C2          1.2640   -0.1280   -0.1640 ca        1 DA5     -0.090000
      3 C3          2.0360   -0.1010    1.0150 ca        1 DA5      0.028000
      4 C4          1.4530   -0.0540    2.2760 ca        1 DA5     -0.216600
      5 C5         -2.6420    0.0190    4.9910 ca        1 DA5     -0.111900
      6 C6         -4.0210    0.0100    5.0950 ca        1 DA5      0.079000
      7 C7         -4.8420   -0.0220    3.9290 ca        1 DA5     -0.027000
      8 C8         -4.2840   -0.0270    2.6800 ca        1 DA5     -0.131000
      9 C9         -2.2100    0.0220    1.2580 ca        1 DA5      0.130600
     10 N9         -3.0130    0.1000    0.0310 n4        1 DA5     -0.737000
     11 N10        -0.6610    0.0030    3.5740 na        1 DA5     -0.110100
     12 C11        -0.7820   -0.0290    1.1570 ca        1 DA5     -0.090000
     13 C12        -0.0010   -0.0260    2.3690 ca        1 DA5      0.136700
     14 C13        -2.8620   -0.0010    2.5000 ca        1 DA5     -0.029000
     15 C14        -2.0290    0.0040    3.6960 ca        1 DA5      0.136700
     16 BR         -1.6010    0.0470    6.5440 br        1 DA5      0.071900
     17 CD1         2.2840   -0.0330    3.4920 c         1 DA5      0.586700
     18 OD1         1.9120    0.0280    4.6570 o         1 DA5     -0.421100
     19 ND1         3.8060   -0.0910    3.3300 n4        1 DA5     -0.672800
     20 CD2         4.5380   -0.0690    4.6390 c3        1 DA5      0.083800
     21 CD3         6.0720   -0.1420    4.4520 c3        1 DA5      0.076800
     22 ND2         6.8320   -0.1820    5.7400 n4        1 DA5     -0.674400
     23 CD7         8.2270   -0.6760    5.4930 c3        1 DA5      0.074100
     24 CD8         6.8770    1.1520    6.4080 c3        1 DA5      0.074100
     25 H1         -0.6610   -0.1370   -1.0530 ha        1 DA5      0.186000
     26 H2          1.7790   -0.1790   -1.1480 ha        1 DA5      0.232000
     27 H3          3.1310   -0.1220    0.8640 ha        1 DA5      0.169000
     28 H6         -4.5180    0.0230    6.0940 ha        1 DA5      0.242000
     29 H7         -5.9470   -0.0450    4.0590 ha        1 DA5      0.236000
     30 H8         -4.9680   -0.0760    1.8140 ha        1 DA5      0.179000
     31 HN91       -3.1770   -0.8510   -0.3470 hn        1 DA5      0.504133
     32 HN92       -2.5360    0.6720   -0.6850 hn        1 DA5      0.504133
     33 HN93       -3.9310    0.5410    0.2230 hn        1 DA5      0.504133
     34 H10        -0.1350    0.0220    4.4500 hn        1 DA5      0.368700
     35 HND1        4.0460   -0.9540    2.8210 hn        1 DA5      0.478800
     36 HD21        4.2480    0.8840    5.1770 hx        1 DA5      0.141700
     37 HD22        4.1680   -0.9450    5.2520 hx        1 DA5      0.141700
     38 HD31        6.3400   -1.0780    3.8720 hx        1 DA5      0.128700
     39 HD32        6.4400    0.7550    3.8700 hx        1 DA5      0.128700
     40 HD71        8.7820   -0.6840    6.4760 hx        1 DA5      0.128700
     41 HD72        8.7540    0.0110    4.7770 hx        1 DA5      0.128700
     42 HD73        8.1940   -1.7200    5.0780 hx        1 DA5      0.128700
     43 HD81        7.4240    1.0480    7.3900 hx        1 DA5      0.128700
     44 HD82        5.8350    1.5160    6.6040 hx        1 DA5      0.128700
     45 HD83        7.4340    1.8860    5.7630 hx        1 DA5      0.128700
     46 HD13        4.1040    0.7170    2.7630 hn        1 DA5      0.478800
     47 HD23        6.3730   -0.8490    6.3790 hn        1 DA5      0.463800
@<TRIPOS>BOND
     1    1    2 ar  
     2    1   12 ar  
     3    1   25 1   
     4    2    3 ar  
     5    2   26 1   
     6    3    4 ar  
     7    3   27 1   
     8    4   13 ar  
     9    4   17 1   
    10    5    6 ar  
    11    5   15 ar  
    12    5   16 1   
    13    6    7 ar  
    14    6   28 1   
    15    7    8 ar  
    16    7   29 1   
    17    8   14 ar  
    18    8   30 1   
    19    9   10 1   
    20    9   12 ar  
    21    9   14 ar  
    22   10   31 1   
    23   10   32 1   
    24   10   33 1   
    25   11   13 1   
    26   11   15 2   
    27   11   34 1   
    28   12   13 ar  
    29   14   15 ar  
    30   17   18 2   
    31   17   19 1   
    32   19   20 1   
    33   19   35 1   
    34   19   46 1   
    35   20   21 1   
    36   20   36 1   
    37   20   37 1   
    38   21   22 1   
    39   21   38 1   
    40   21   39 1   
    41   22   23 1   
    42   22   24 1   
    43   22   47 1   
    44   23   40 1   
    45   23   41 1   
    46   23   42 1   
    47   24   43 1   
    48   24   44 1   
    49   24   45 1   
@<TRIPOS>SUBSTRUCTURE
     1 DA5         1 TEMP              0 ****  ****    0 ROOT
