@<TRIPOS>MOLECULE
DA5
   45    39     1     0     0
SMALL
bcc


@<TRIPOS>ATOM
      1 C1         -1.4070    0.3650   -3.2260 c1        1 DA5     -0.056750
      2 C2         -0.0100    0.3570   -3.2120 c1        1 DA5     -0.056750
      3 C3          0.6770    0.4050   -2.0000 c1        1 DA5     -0.018000
      4 C4         -0.0300    0.4610   -0.7990 c1        1 DA5     -0.121000
      5 C5         -4.2650    0.4360    1.6170 c1        1 DA5     -0.213000
      6 C6         -5.6340    0.3950    1.6130 c1        1 DA5     -0.056750
      7 C7         -6.3280    0.3470    0.4000 c1        1 DA5     -0.056750
      8 C8         -5.6340    0.3410   -0.7960 c1        1 DA5     -0.155000
      9 C9         -3.5120    0.3790   -2.0080 c1        1 DA5     -0.012000
     10 N9         -4.2420    0.4030   -3.3110 n3        1 DA5     -0.027000
     11 N10        -2.1610    0.4740    0.3910 n2        1 DA5     -0.054000
     12 C11        -2.1320    0.4230   -2.0000 c1        1 DA5     -0.047000
     13 C12        -1.4580    0.4690   -0.8100 c1        1 DA5      0.136000
     14 C13        -4.2220    0.3840   -0.7930 c1        1 DA5     -0.037000
     15 C14        -3.5480    0.4300    0.3860 c1        1 DA5      0.116000
     16 BR         -3.8490    0.5570    3.5050 br        1 DA5      0.206000
     17 CD1         0.7890    0.4760    0.4700 c2        1 DA5      0.330000
     18 OD1         0.2220    0.5240    1.5730 o         1 DA5     -0.384000
     19 ND1         2.2140    0.3990    0.4010 n         1 DA5     -0.316000
     20 CD2         2.9690   -0.0530    1.5460 c3        1 DA5     -0.055000
     21 CD3         4.4650   -0.3070    1.1250 c3        1 DA5     -0.071000
     22 ND2         5.1290   -1.0770    2.1480 n3        1 DA5     -0.276000
     23 CD7         5.7060   -2.2730    1.5610 c3        1 DA5     -0.119000
     24 CD8         6.1550   -0.3020    2.7320 c3        1 DA5     -0.119000
     25 H1         -1.8870    0.3310   -4.0790 ha        1 DA5      0.192500
     26 H2          0.4910    0.3170   -4.0590 ha        1 DA5      0.192500
     27 H3          1.6950    0.3980   -1.9910 ha        1 DA5      0.198000
     28 H6         -6.1320    0.3990    2.4710 ha        1 DA5      0.192500
     29 H7         -7.3040    0.3180    0.3980 ha        1 DA5      0.192500
     30 H8         -6.1200    0.3080   -1.6410 ha        1 DA5      0.152000
     31 HN91       -4.6480    1.2330   -3.4240 hn        1 DA5      0.283000
     32 HN92       -4.9010   -0.2720   -3.3150 hn        1 DA5      0.283000
     33 HN93       -3.6420    0.2540   -4.0050 hn        1 DA5      0.283000
     34 H10        -1.7140    0.5870    1.1760 hn        1 DA5      0.352000
     35 HND1        2.6480    0.6160   -0.3780 hn        1 DA5      0.236000
     36 HD21        2.5780   -0.8870    1.8870 h1        1 DA5      0.131000
     37 HD22        2.9390    0.6370    2.2540 h1        1 DA5      0.131000
     38 HD31        4.9210    0.5500    1.0140 h1        1 DA5      0.076500
     39 HD32        4.4880   -0.8060    0.2710 h1        1 DA5      0.076500
     40 HD71        5.0130   -2.7770    1.1010 h1        1 DA5      0.081833
     41 HD72        6.4050   -2.0170    0.9190 h1        1 DA5      0.081833
     42 HD73        6.1040   -2.8360    2.2790 h1        1 DA5      0.081833
     43 HD81        6.8050   -0.0590    2.0510 h1        1 DA5      0.081833
     44 HD82        5.7700    0.5110    3.1220 h1        1 DA5      0.081833
     45 HD83        6.5970   -0.8230    3.4350 h1        1 DA5      0.081833
@<TRIPOS>BOND
     1    1    2 1   
     2    1   25 1   
     3    2   26 1   
     4    3    4 1   
     5    3   27 1   
     6    4   17 1   
     7    5   15 1   
     8    5   16 1   
     9    6    7 1   
    10    6   28 1   
    11    7   29 1   
    12    8   14 1   
    13    8   30 1   
    14    9   12 1   
    15    9   14 1   
    16   10   31 1   
    17   10   32 1   
    18   10   33 1   
    19   11   15 1   
    20   11   34 1   
    21   12   13 1   
    22   17   18 1   
    23   17   19 1   
    24   19   20 1   
    25   19   35 1   
    26   20   21 1   
    27   20   36 1   
    28   20   37 1   
    29   21   22 1   
    30   21   38 1   
    31   21   39 1   
    32   22   23 1   
    33   22   24 1   
    34   23   40 1   
    35   23   41 1   
    36   23   42 1   
    37   24   43 1   
    38   24   44 1   
    39   24   45 1   
@<TRIPOS>SUBSTRUCTURE
     1 DA5         1 TEMP              0 ****  ****    0 ROOT
