@<TRIPOS>MOLECULE
DA6
   47    49     1     0     0
SMALL
bcc


@<TRIPOS>ATOM
      1 C1         -0.1010    0.0360   -0.0850 ca        1 DA6     -0.021000
      2 C2          1.2730   -0.0070   -0.1490 ca        1 DA6     -0.095000
      3 C3          2.0350   -0.0860    1.0290 ca        1 DA6      0.021000
      4 C4          1.4420   -0.1110    2.2900 ca        1 DA6     -0.221600
      5 C5         -2.6560    0.0120    4.9730 ca        1 DA6     -0.192000
      6 C6         -4.0370    0.0900    5.1080 ca        1 DA6      0.122100
      7 C7         -4.8500    0.1770    3.9240 ca        1 DA6     -0.026000
      8 C8         -4.2890    0.1680    2.6800 ca        1 DA6     -0.128000
      9 C9         -2.2170    0.0310    1.2560 ca        1 DA6      0.124600
     10 N9         -3.0070    0.0210    0.0190 n4        1 DA6     -0.735000
     11 N10        -0.6750   -0.0640    3.5810 na        1 DA6     -0.132100
     12 C11        -0.7810   -0.0000    1.1620 ca        1 DA6     -0.102000
     13 C12        -0.0090   -0.0590    2.3760 ca        1 DA6      0.145700
     14 C13        -2.8690    0.0710    2.4890 ca        1 DA6     -0.028000
     15 C14        -2.0450    0.0080    3.6950 ca        1 DA6      0.141700
     16 BR         -4.8410    0.0900    6.7630 br        1 DA6      0.200900
     17 CD1         2.2640   -0.1870    3.5080 c         1 DA6      0.588700
     18 OD1         1.8870   -0.2300    4.6720 o         1 DA6     -0.428100
     19 ND1         3.7880   -0.2210    3.3500 n4        1 DA6     -0.672800
     20 CD2         4.5140   -0.2930    4.6600 c3        1 DA6      0.083800
     21 CD3         6.0500   -0.3100    4.4770 c3        1 DA6      0.076800
     22 ND2         6.8070   -0.3200    5.7670 n4        1 DA6     -0.674400
     23 CD7         6.7700   -1.6550    6.4310 c3        1 DA6      0.074100
     24 CD8         8.2300    0.0890    5.5250 c3        1 DA6      0.074100
     25 H1         -0.6480    0.1140   -1.0440 ha        1 DA6      0.183000
     26 H2          1.7910    0.0220   -1.1320 ha        1 DA6      0.230000
     27 H3          3.1300   -0.1240    0.8850 ha        1 DA6      0.167000
     28 H5         -2.0260   -0.0460    5.8850 ha        1 DA6      0.209000
     29 H7         -5.9560    0.2560    4.0380 ha        1 DA6      0.237000
     30 H8         -4.9720    0.2590    1.8160 ha        1 DA6      0.179000
     31 HN91       -3.0390    0.9720   -0.3900 hn        1 DA6      0.502800
     32 HN92       -2.5940   -0.6310   -0.6690 hn        1 DA6      0.502800
     33 HN93       -3.9770   -0.2910    0.2030 hn        1 DA6      0.502800
     34 H10        -0.1540   -0.1190    4.4480 hn        1 DA6      0.359700
     35 HND1        4.0810    0.6280    2.8460 hn        1 DA6      0.478300
     36 HD21        4.1960    0.6010    5.2770 hx        1 DA6      0.141700
     37 HD22        4.1660   -1.2290    5.1930 hx        1 DA6      0.141700
     38 HD31        6.3650   -1.2270    3.8940 hx        1 DA6      0.128700
     39 HD32        6.3750    0.6080    3.9010 hx        1 DA6      0.128700
     40 HD71        7.3200   -1.5880    7.4150 hx        1 DA6      0.128533
     41 HD72        5.7070   -1.9560    6.6240 hx        1 DA6      0.128533
     42 HD73        7.2820   -2.4210    5.7860 hx        1 DA6      0.128533
     43 HD81        8.7830    0.0620    6.5090 hx        1 DA6      0.128533
     44 HD82        8.2620    1.1340    5.1130 hx        1 DA6      0.128533
     45 HD83        8.7170   -0.6270    4.8090 hx        1 DA6      0.128533
     46 HD13        4.0380   -1.0420    2.7800 hn        1 DA6      0.478300
     47 HD23        6.3870    0.3720    6.4070 hn        1 DA6      0.463800
@<TRIPOS>BOND
     1    1    2 ar  
     2    1   12 ar  
     3    1   25 1   
     4    2    3 ar  
     5    2   26 1   
     6    3    4 ar  
     7    3   27 1   
     8    4   13 ar  
     9    4   17 1   
    10    5    6 ar  
    11    5   15 ar  
    12    5   28 1   
    13    6    7 ar  
    14    6   16 1   
    15    7    8 ar  
    16    7   29 1   
    17    8   14 ar  
    18    8   30 1   
    19    9   10 1   
    20    9   12 ar  
    21    9   14 ar  
    22   10   31 1   
    23   10   32 1   
    24   10   33 1   
    25   11   13 1   
    26   11   15 2   
    27   11   34 1   
    28   12   13 ar  
    29   14   15 ar  
    30   17   18 2   
    31   17   19 1   
    32   19   20 1   
    33   19   35 1   
    34   19   46 1   
    35   20   21 1   
    36   20   36 1   
    37   20   37 1   
    38   21   22 1   
    39   21   38 1   
    40   21   39 1   
    41   22   23 1   
    42   22   24 1   
    43   22   47 1   
    44   23   40 1   
    45   23   41 1   
    46   23   42 1   
    47   24   43 1   
    48   24   44 1   
    49   24   45 1   
@<TRIPOS>SUBSTRUCTURE
     1 DA6         1 TEMP              0 ****  ****    0 ROOT
