@<TRIPOS>MOLECULE
DA6
   47    49     1     0     0
SMALL
bcc


@<TRIPOS>ATOM
      1 C1         -0.1080   -0.0560   -0.0870 ca        1 DA6     -0.021000
      2 C2          1.2650   -0.1340   -0.1520 ca        1 DA6     -0.095000
      3 C3          2.0300   -0.1690    1.0260 ca        1 DA6      0.021000
      4 C4          1.4400   -0.1390    2.2880 ca        1 DA6     -0.221600
      5 C5         -2.6550   -0.0100    4.9750 ca        1 DA6     -0.192000
      6 C6         -4.0380    0.0290    5.1100 ca        1 DA6      0.122100
      7 C7         -4.8540    0.0640    3.9260 ca        1 DA6     -0.026000
      8 C8         -4.2930    0.0750    2.6820 ca        1 DA6     -0.128000
      9 C9         -2.2160    0.0850    1.2590 ca        1 DA6      0.124600
     10 N9         -3.0010    0.2140    0.0250 nz        1 DA6     -0.735000
     11 N10        -0.6730   -0.0520    3.5820 na        1 DA6     -0.132100
     12 C11        -0.7830   -0.0080    1.1630 ca        1 DA6     -0.102000
     13 C12        -0.0090   -0.0660    2.3760 ca        1 DA6      0.145700
     14 C13        -2.8690    0.0530    2.4910 ca        1 DA6     -0.028000
     15 C14        -2.0450   -0.0070    3.6960 ca        1 DA6      0.141700
     16 Br         -4.8400    0.0320    6.7650 br        1 DA6      0.200900
     17 CD1         2.2650   -0.1850    3.5060 c         1 DA6      0.588700
     18 OD1         1.8910   -0.1860    4.6720 o         1 DA6     -0.428100
     19 ND1         3.7880   -0.2390    3.3460 ny        1 DA6     -0.672800
     20 CD2         4.5160   -0.2760    4.6560 c3        1 DA6      0.083800
     21 CD3         6.0520   -0.3160    4.4700 c3        1 DA6      0.076800
     22 ND2         6.8120   -0.2930    5.7580 nx        1 DA6     -0.674400
     23 CD7         6.7630   -1.6060    6.4640 c3        1 DA6      0.074100
     24 CD8         8.2390    0.0940    5.5000 c3        1 DA6      0.074100
     25 H1         -0.6580   -0.0480   -1.0470 ha        1 DA6      0.183000
     26 H2          1.7790   -0.1720   -1.1370 ha        1 DA6      0.230000
     27 H3          3.1240   -0.2260    0.8810 ha        1 DA6      0.167000
     28 H5         -2.0230   -0.0470    5.8860 ha        1 DA6      0.209000
     29 H7         -5.9630    0.0790    4.0390 ha        1 DA6      0.237000
     30 H8         -4.9810    0.0810    1.8170 ha        1 DA6      0.179000
     31 HN91       -3.9390    0.6040    0.2240 hn        1 DA6      0.502800
     32 HN92       -2.5300    0.8520   -0.6380 hn        1 DA6      0.502800
     33 HN93       -3.1170   -0.7140   -0.4200 hn        1 DA6      0.502800
     34 H10        -0.1510   -0.0810    4.4490 hn        1 DA6      0.359700
     35 HND1        4.0880    0.5900    2.8130 hn        1 DA6      0.478300
     36 HD21        4.2100    0.6410    5.2440 hx        1 DA6      0.141700
     37 HD22        4.1600   -1.1890    5.2210 hx        1 DA6      0.141700
     38 HD31        6.3560   -1.2540    3.9160 hx        1 DA6      0.128700
     39 HD32        6.3860    0.5810    3.8640 hx        1 DA6      0.128700
     40 HD71        7.2660   -2.3970    5.8420 hx        1 DA6      0.128533
     41 HD72        7.3160   -1.5140    7.4440 hx        1 DA6      0.128533
     42 HD73        5.6980   -1.8900    6.6690 hx        1 DA6      0.128533
     43 HD81        8.7160   -0.6500    4.8060 hx        1 DA6      0.128533
     44 HD82        8.2800    1.1250    5.0550 hx        1 DA6      0.128533
     45 HD83        8.7930    0.0920    6.4830 hx        1 DA6      0.128533
     46 HD13        4.0280   -1.0810    2.8030 hn        1 DA6      0.478300
     47 HD23        6.4010    0.4230    6.3770 hn        1 DA6      0.463800
@<TRIPOS>BOND
     1    1    2 ar  
     2    1   12 ar  
     3    1   25 1   
     4    2    3 ar  
     5    2   26 1   
     6    3    4 ar  
     7    3   27 1   
     8    4   13 ar  
     9    4   17 1   
    10    5    6 ar  
    11    5   15 ar  
    12    5   28 1   
    13    6    7 ar  
    14    6   16 1   
    15    7    8 ar  
    16    7   29 1   
    17    8   14 ar  
    18    8   30 1   
    19    9   10 1   
    20    9   12 ar  
    21    9   14 ar  
    22   10   31 1   
    23   10   32 1   
    24   10   33 1   
    25   11   13 1   
    26   11   15 2   
    27   11   34 1   
    28   12   13 ar  
    29   14   15 ar  
    30   17   18 2   
    31   17   19 1   
    32   19   20 1   
    33   19   35 1   
    34   19   46 1   
    35   20   21 1   
    36   20   36 1   
    37   20   37 1   
    38   21   22 1   
    39   21   38 1   
    40   21   39 1   
    41   22   23 1   
    42   22   24 1   
    43   22   47 1   
    44   23   40 1   
    45   23   41 1   
    46   23   42 1   
    47   24   43 1   
    48   24   44 1   
    49   24   45 1   
@<TRIPOS>SUBSTRUCTURE
     1 DA6         1 TEMP              0 ****  ****    0 ROOT
