@<TRIPOS>MOLECULE
DA6
   45    47     1     0     0
SMALL
bcc


@<TRIPOS>ATOM
      1 C1         -0.4780   -3.9870   -0.2700 ca        1 DA6     -0.145000
      2 C2         -1.8450   -3.9510   -0.2810 ca        1 DA6     -0.046000
      3 C3         -2.5400   -2.7140   -0.1710 ca        1 DA6     -0.017000
      4 C4         -1.8620   -1.5250   -0.0630 ca        1 DA6     -0.143600
      5 C5          2.3380    0.9080    0.4130 ca        1 DA6     -0.138000
      6 C6          3.7120    0.9610    0.4330 ca        1 DA6      0.052100
      7 C7          4.4700   -0.2420    0.2520 ca        1 DA6     -0.023000
      8 C8          3.8500   -1.4480    0.0800 ca        1 DA6     -0.156000
      9 C9          1.7060   -2.7680   -0.0540 ca        1 DA6      0.073600
     10 N9          2.4400   -4.0360   -0.1160 n4        1 DA6     -0.723000
     11 N10         0.2950   -0.3810    0.1840 na        1 DA6     -0.060100
     12 C11         0.2900   -2.7920   -0.1160 ca        1 DA6     -0.054000
     13 C12        -0.4160   -1.5360    0.0010 ca        1 DA6      0.111700
     14 C13         2.4250   -1.5610    0.0740 ca        1 DA6     -0.041000
     15 C14         1.6610   -0.3430    0.2210 ca        1 DA6      0.089700
     16 BR          4.6060    2.5670    0.6840 br        1 DA6      0.091900
     17 CD1        -2.6060   -0.2140    0.0430 c         1 DA6      0.658700
     18 OD1        -2.1270    0.6990    0.7600 o         1 DA6     -0.629100
     19 ND1        -3.7430   -0.0570   -0.6850 n         1 DA6     -0.504900
     20 CD2        -4.5500    1.1450   -0.6170 c3        1 DA6      0.061000
     21 CD3        -5.9840    0.8750   -0.0920 c3        1 DA6      0.165800
     22 ND2        -6.7530    2.1040   -0.0920 n3        1 DA6     -0.750600
     23 CD7        -7.4550    2.3460   -1.3320 c3        1 DA6      0.157100
     24 CD8        -7.5800    2.2740    1.0820 c3        1 DA6      0.157100
     25 H1          0.0150   -4.9640   -0.3950 ha        1 DA6      0.151000
     26 H2         -2.4340   -4.8830   -0.3840 ha        1 DA6      0.200000
     27 H3         -3.6470   -2.7460   -0.1700 ha        1 DA6      0.197000
     28 H5          1.7370    1.8310    0.5440 ha        1 DA6      0.208000
     29 H7          5.5780   -0.1800    0.2510 ha        1 DA6      0.207000
     30 H8          4.4870   -2.3340   -0.0760 ha        1 DA6      0.153000
     31 HN91        2.5650   -4.3170   -1.1010 hn        1 DA6      0.487800
     32 HN92        3.3660   -3.9390    0.3280 hn        1 DA6      0.487800
     33 HN93        1.9170   -4.7720    0.3820 hn        1 DA6      0.487800
     34 H10        -0.2270    0.4930    0.3450 hn        1 DA6      0.395700
     35 HND1       -4.1120   -0.8190   -1.2060 hn        1 DA6      0.322500
     36 HD21       -4.6010    1.5690   -1.6610 h1        1 DA6      0.091700
     37 HD22       -4.0430    1.8990    0.0510 h1        1 DA6      0.091700
     38 HD31       -5.9100    0.4690    0.9560 h1        1 DA6      0.037200
     39 HD32       -6.4630    0.0780   -0.7330 h1        1 DA6      0.037200
     40 HD71       -6.7250    2.2980   -2.1830 h1        1 DA6      0.042533
     41 HD72       -8.2790    1.6050   -1.5250 h1        1 DA6      0.042533
     42 HD73       -7.8990    3.3750   -1.2980 h1        1 DA6      0.042533
     43 HD81       -8.3850    1.4940    1.1720 h1        1 DA6      0.042533
     44 HD82       -6.9330    2.2330    1.9970 h1        1 DA6      0.042533
     45 HD83       -8.0660    3.2840    1.0320 h1        1 DA6      0.042533
@<TRIPOS>BOND
     1    1    2 ar  
     2    1   12 ar  
     3    1   25 1   
     4    2    3 ar  
     5    2   26 1   
     6    3    4 ar  
     7    3   27 1   
     8    4   13 ar  
     9    4   17 1   
    10    5    6 ar  
    11    5   15 ar  
    12    5   28 1   
    13    6    7 ar  
    14    6   16 1   
    15    7    8 ar  
    16    7   29 1   
    17    8   14 ar  
    18    8   30 1   
    19    9   10 1   
    20    9   12 ar  
    21    9   14 ar  
    22   10   31 1   
    23   10   32 1   
    24   10   33 1   
    25   11   13 1   
    26   11   15 2   
    27   11   34 1   
    28   12   13 ar  
    29   14   15 ar  
    30   17   18 2   
    31   17   19 1   
    32   19   20 1   
    33   19   35 1   
    34   20   21 1   
    35   20   36 1   
    36   20   37 1   
    37   21   22 1   
    38   21   38 1   
    39   21   39 1   
    40   22   23 1   
    41   22   24 1   
    42   23   40 1   
    43   23   41 1   
    44   23   42 1   
    45   24   43 1   
    46   24   44 1   
    47   24   45 1   
@<TRIPOS>SUBSTRUCTURE
     1 DA6         1 TEMP              0 ****  ****    0 ROOT
