@<TRIPOS>MOLECULE
DA6
   47    49     1     0     0
SMALL
bcc


@<TRIPOS>ATOM
      1 C1         -0.1050   -0.0460   -0.0880 ca        1 DA6     -0.021000
      2 C2          1.2680   -0.1230   -0.1520 ca        1 DA6     -0.095000
      3 C3          2.0320   -0.1620    1.0260 ca        1 DA6      0.021000
      4 C4          1.4410   -0.1360    2.2880 ca        1 DA6     -0.221600
      5 C5         -2.6560   -0.0160    4.9720 ca        1 DA6     -0.192000
      6 C6         -4.0400    0.0230    5.1060 ca        1 DA6      0.122100
      7 C7         -4.8550    0.0620    3.9210 ca        1 DA6     -0.026000
      8 C8         -4.2930    0.0760    2.6780 ca        1 DA6     -0.128000
      9 C9         -2.2140    0.0900    1.2560 ca        1 DA6      0.124600
     10 N9         -2.9980    0.2240    0.0220 n4        1 DA6     -0.735000
     11 N10        -0.6740   -0.0530    3.5800 na        1 DA6     -0.132100
     12 C11        -0.7810   -0.0010    1.1610 ca        1 DA6     -0.102000
     13 C12        -0.0080   -0.0630    2.3740 ca        1 DA6      0.145700
     14 C13        -2.8690    0.0550    2.4880 ca        1 DA6     -0.028000
     15 C14        -2.0450   -0.0090    3.6930 ca        1 DA6      0.141700
     16 BR         -4.8430    0.0200    6.7600 br        1 DA6      0.200900
     17 CD1         2.2650   -0.1860    3.5070 c         1 DA6      0.588700
     18 OD1         1.8890   -0.1900    4.6720 o         1 DA6     -0.428100
     19 ND1         3.7880   -0.2390    3.3480 n4        1 DA6     -0.672800
     20 CD2         4.5150   -0.2790    4.6580 c3        1 DA6      0.083800
     21 CD3         6.0510   -0.3180    4.4730 c3        1 DA6      0.076800
     22 ND2         6.8100   -0.2990    5.7620 n4        1 DA6     -0.674400
     23 CD7         6.7610   -1.6150    6.4640 c3        1 DA6      0.074100
     24 CD8         8.2370    0.0890    5.5080 c3        1 DA6      0.074100
     25 H1         -0.6540   -0.0340   -1.0480 ha        1 DA6      0.183000
     26 H2          1.7830   -0.1580   -1.1370 ha        1 DA6      0.230000
     27 H3          3.1270   -0.2180    0.8820 ha        1 DA6      0.167000
     28 H5         -2.0260   -0.0550    5.8830 ha        1 DA6      0.209000
     29 H7         -5.9630    0.0760    4.0330 ha        1 DA6      0.237000
     30 H8         -4.9790    0.0850    1.8120 ha        1 DA6      0.179000
     31 HN91       -3.9360    0.6130    0.2210 hn        1 DA6      0.502800
     32 HN92       -2.5270    0.8640   -0.6390 hn        1 DA6      0.502800
     33 HN93       -3.1140   -0.7030   -0.4260 hn        1 DA6      0.502800
     34 H10        -0.1520   -0.0850    4.4480 hn        1 DA6      0.359700
     35 HND1        4.0880    0.5930    2.8180 hn        1 DA6      0.478300
     36 HD21        4.2070    0.6360    5.2490 hx        1 DA6      0.141700
     37 HD22        4.1590   -1.1950    5.2200 hx        1 DA6      0.141700
     38 HD31        6.3560   -1.2530    3.9160 hx        1 DA6      0.128700
     39 HD32        6.3850    0.5810    3.8720 hx        1 DA6      0.128700
     40 HD71        7.2650   -2.4030    5.8400 hx        1 DA6      0.128533
     41 HD72        7.3130   -1.5260    7.4450 hx        1 DA6      0.128533
     42 HD73        5.6960   -1.9000    6.6660 hx        1 DA6      0.128533
     43 HD81        8.7150   -0.6510    4.8110 hx        1 DA6      0.128533
     44 HD82        8.2780    1.1220    5.0660 hx        1 DA6      0.128533
     45 HD83        8.7900    0.0840    6.4910 hx        1 DA6      0.128533
     46 HD13        4.0290   -1.0790    2.8020 hn        1 DA6      0.478300
     47 HD23        6.3980    0.4140    6.3830 hn        1 DA6      0.463800
@<TRIPOS>BOND
     1    1    2 ar  
     2    1   12 ar  
     3    1   25 1   
     4    2    3 ar  
     5    2   26 1   
     6    3    4 ar  
     7    3   27 1   
     8    4   13 ar  
     9    4   17 1   
    10    5    6 ar  
    11    5   15 ar  
    12    5   28 1   
    13    6    7 ar  
    14    6   16 1   
    15    7    8 ar  
    16    7   29 1   
    17    8   14 ar  
    18    8   30 1   
    19    9   10 1   
    20    9   12 ar  
    21    9   14 ar  
    22   10   31 1   
    23   10   32 1   
    24   10   33 1   
    25   11   13 1   
    26   11   15 2   
    27   11   34 1   
    28   12   13 ar  
    29   14   15 ar  
    30   17   18 2   
    31   17   19 1   
    32   19   20 1   
    33   19   35 1   
    34   19   46 1   
    35   20   21 1   
    36   20   36 1   
    37   20   37 1   
    38   21   22 1   
    39   21   38 1   
    40   21   39 1   
    41   22   23 1   
    42   22   24 1   
    43   22   47 1   
    44   23   40 1   
    45   23   41 1   
    46   23   42 1   
    47   24   43 1   
    48   24   44 1   
    49   24   45 1   
@<TRIPOS>SUBSTRUCTURE
     1 DA6         1 TEMP              0 ****  ****    0 ROOT
