@<TRIPOS>MOLECULE
DA6
   45    39     1     0     0
SMALL
bcc


@<TRIPOS>ATOM
      1 C1         -1.4560   -0.3650   -3.0530 c1        1 DA6     -0.095000
      2 C2         -0.1020   -0.3770   -3.0440 c1        1 DA6     -0.095000
      3 C3          0.5870   -0.3710   -1.8360 c1        1 DA6     -0.016000
      4 C4         -0.1120   -0.3520   -0.6350 c1        1 DA6     -0.123000
      5 C5         -4.3080   -0.3450    1.7720 c1        1 DA6     -0.138000
      6 C6         -5.7100   -0.3640    1.7550 c1        1 DA6     -0.088000
      7 C7         -6.4000   -0.3710    0.5140 c1        1 DA6     -0.023000
      8 C8         -5.6870   -0.3590   -0.6770 c1        1 DA6     -0.155000
      9 C9         -3.5540   -0.3460   -1.8560 c1        1 DA6     -0.008000
     10 N9         -4.3480   -0.3460   -3.0570 n3        1 DA6     -0.027000
     11 N10        -2.2020   -0.3330    0.5700 n2        1 DA6     -0.059000
     12 C11        -2.1650   -0.3450   -1.8440 c1        1 DA6     -0.054000
     13 C12        -1.4870   -0.3390   -0.6440 c1        1 DA6      0.136000
     14 C13        -4.2650   -0.3400   -0.6570 c1        1 DA6     -0.041000
     15 C14        -3.5840   -0.3330    0.5570 c1        1 DA6      0.114000
     16 BR         -6.7890   -0.3950    3.4320 br        1 DA6      0.232000
     17 CD1         0.7620   -0.3050    0.6280 c2        1 DA6      0.331000
     18 OD1         0.2450   -0.2860    1.7150 o         1 DA6     -0.393000
     19 ND1         2.2450   -0.4030    0.5120 n         1 DA6     -0.314000
     20 CD2         3.0730    0.0840    1.5610 c3        1 DA6     -0.055000
     21 CD3         4.5850    0.0200    1.1150 c3        1 DA6     -0.072000
     22 ND2         5.3020    1.0220    1.7620 n3        1 DA6     -0.276000
     23 CD7         6.4380    0.4380    2.4250 c3        1 DA6     -0.119500
     24 CD8         5.7660    2.0280    0.7580 c3        1 DA6     -0.119500
     25 H1         -1.8970   -0.3690   -3.8290 ha        1 DA6      0.175500
     26 H2          0.3550   -0.3880   -3.8260 ha        1 DA6      0.175500
     27 H3          1.5860   -0.3800   -1.8330 ha        1 DA6      0.197000
     28 H5         -3.8460   -0.3400    2.5950 ha        1 DA6      0.208000
     29 H7         -7.3120   -0.3830    0.5000 ha        1 DA6      0.208000
     30 H8         -6.1700   -0.3620   -1.5450 ha        1 DA6      0.153000
     31 HN91       -4.9030   -1.1660   -3.0850 hn        1 DA6      0.283000
     32 HN92       -4.9080    0.4150   -3.0670 hn        1 DA6      0.283000
     33 HN93       -3.7890   -0.3270   -3.7960 hn        1 DA6      0.283000
     34 H10        -1.7340   -0.2890    1.3920 hn        1 DA6      0.346000
     35 HND1        2.6210   -0.7340   -0.2480 hn        1 DA6      0.237000
     36 HD21        2.8420    0.9670    1.7540 h1        1 DA6      0.131000
     37 HD22        2.9500   -0.4520    2.3330 h1        1 DA6      0.131000
     38 HD31        4.9880   -0.9170    1.3700 h1        1 DA6      0.077000
     39 HD32        4.6470    0.1550    0.1020 h1        1 DA6      0.077000
     40 HD71        6.9210    1.1480    2.9560 h1        1 DA6      0.082167
     41 HD72        6.1240   -0.2910    3.0460 h1        1 DA6      0.082167
     42 HD73        7.0550    0.0530    1.7470 h1        1 DA6      0.082167
     43 HD81        5.0250    2.4800    0.4010 h1        1 DA6      0.082167
     44 HD82        6.3750    2.6830    1.1990 h1        1 DA6      0.082167
     45 HD83        6.2330    1.5820    0.0570 h1        1 DA6      0.082167
@<TRIPOS>BOND
     1    1    2 1   
     2    1   25 1   
     3    2   26 1   
     4    3    4 1   
     5    3   27 1   
     6    4   17 1   
     7    5   15 1   
     8    5   28 1   
     9    6    7 1   
    10    6   16 1   
    11    7   29 1   
    12    8   14 1   
    13    8   30 1   
    14    9   12 1   
    15    9   14 1   
    16   10   31 1   
    17   10   32 1   
    18   10   33 1   
    19   11   15 1   
    20   11   34 1   
    21   12   13 1   
    22   17   18 1   
    23   17   19 1   
    24   19   20 1   
    25   19   35 1   
    26   20   21 1   
    27   20   36 1   
    28   20   37 1   
    29   21   22 1   
    30   21   38 1   
    31   21   39 1   
    32   22   23 1   
    33   22   24 1   
    34   23   40 1   
    35   23   41 1   
    36   23   42 1   
    37   24   43 1   
    38   24   44 1   
    39   24   45 1   
@<TRIPOS>SUBSTRUCTURE
     1 DA6         1 TEMP              0 ****  ****    0 ROOT
