@<TRIPOS>MOLECULE
DA7
   43    45     1     0     0
SMALL
bcc


@<TRIPOS>ATOM
      1 C8          0.7180    0.7710   -4.2280 ca        1 DA7     -0.110000
      2 C7          2.0730    0.9440   -4.1820 ca        1 DA7     -0.127000
      3 C6          2.7930    0.7070   -2.9860 ca        1 DA7     -0.153000
      4 C5          2.1330    0.2980   -1.8470 ca        1 DA7      0.072600
      5 F           2.8320    0.0810   -0.7090 f         1 DA7     -0.120900
      6 N10         0.0750   -0.3120   -0.7180 nb        1 DA7     -0.713000
      7 C4         -1.9180   -0.9510    0.4870 ca        1 DA7     -0.196900
      8 C3         -3.2730   -1.1460    0.5200 ca        1 DA7     -0.050000
      9 C2         -4.0710   -0.8810   -0.6220 ca        1 DA7     -0.155000
     10 C1         -3.4920   -0.4540   -1.7840 ca        1 DA7     -0.082000
     11 C13        -0.0150    0.3440   -3.0810 ca        1 DA7     -0.215300
     12 C14         0.6840    0.0960   -1.8530 ca        1 DA7      0.446600
     13 C12        -1.2660   -0.4920   -0.7220 ca        1 DA7      0.481600
     14 C11        -2.0820   -0.2620   -1.8840 ca        1 DA7     -0.228300
     15 C9         -1.4350    0.1510   -3.0930 ca        1 DA7      0.261600
     16 N9         -2.1660    0.3970   -4.2290 nh        1 DA7     -0.848200
     17 C15        -1.1310   -1.2860    1.7170 c         1 DA7      0.684700
     18 O15        -1.2860   -2.3920    2.2780 o         1 DA7     -0.616100
     19 N16        -0.3160   -0.3100    2.2450 n         1 DA7     -0.544900
     20 C17         0.5630   -0.5700    3.3540 c3        1 DA7      0.082000
     21 C18         0.2590    0.3490    4.5610 c3        1 DA7      0.153800
     22 N19         1.2880    0.2830    5.5900 n3        1 DA7     -0.737600
     23 C20         1.1390    1.3340    6.5720 c3        1 DA7      0.155600
     24 C21         1.4220   -1.0260    6.1870 c3        1 DA7      0.155600
     25 H8          0.2010    0.9790   -5.1760 ha        1 DA7      0.123000
     26 H7          2.6300    1.2730   -5.0720 ha        1 DA7      0.140000
     27 H6          3.8840    0.8530   -2.9700 ha        1 DA7      0.153000
     28 H3         -3.7540   -1.5240    1.4380 ha        1 DA7      0.157000
     29 H2         -5.1590   -1.0300   -0.5540 ha        1 DA7      0.141000
     30 H1         -4.1460   -0.2520   -2.6470 ha        1 DA7      0.122000
     31 HN91       -1.6930    0.5110   -5.0920 hn        1 DA7      0.428800
     32 HN92       -3.1040    0.0850   -4.2760 hn        1 DA7      0.428800
     33 H16        -0.1260    0.5030    1.7090 hn        1 DA7      0.320500
     34 H171        1.6300   -0.4100    3.0240 h1        1 DA7      0.067200
     35 H172        0.4470   -1.6470    3.6690 h1        1 DA7      0.067200
     36 H181       -0.7570    0.0780    4.9720 h1        1 DA7      0.033700
     37 H182        0.2070    1.4170    4.2050 h1        1 DA7      0.033700
     38 H201        1.9990    1.2830    7.2900 h1        1 DA7      0.031367
     39 H202        1.1660    2.3280    6.0530 h1        1 DA7      0.031367
     40 H203        0.1810    1.2640    7.1570 h1        1 DA7      0.031367
     41 H211        1.7350   -1.7550    5.3950 h1        1 DA7      0.031367
     42 H212        2.2200   -0.9910    6.9740 h1        1 DA7      0.031367
     43 H213        0.4710   -1.3980    6.6600 h1        1 DA7      0.031367
@<TRIPOS>BOND
     1    1    2 ar  
     2    1   11 ar  
     3    1   25 1   
     4    2    3 ar  
     5    2   26 1   
     6    3    4 ar  
     7    3   27 1   
     8    4    5 1   
     9    4   12 ar  
    10    6   12 ar  
    11    6   13 ar  
    12    7    8 ar  
    13    7   13 ar  
    14    7   17 1   
    15    8    9 ar  
    16    8   28 1   
    17    9   10 ar  
    18    9   29 1   
    19   10   14 ar  
    20   10   30 1   
    21   11   12 ar  
    22   11   15 ar  
    23   13   14 ar  
    24   14   15 ar  
    25   15   16 1   
    26   16   31 1   
    27   16   32 1   
    28   17   18 2   
    29   17   19 1   
    30   19   20 1   
    31   19   33 1   
    32   20   21 1   
    33   20   34 1   
    34   20   35 1   
    35   21   22 1   
    36   21   36 1   
    37   21   37 1   
    38   22   23 1   
    39   22   24 1   
    40   23   38 1   
    41   23   39 1   
    42   23   40 1   
    43   24   41 1   
    44   24   42 1   
    45   24   43 1   
@<TRIPOS>SUBSTRUCTURE
     1 DA7         1 TEMP              0 ****  ****    0 ROOT
