@<TRIPOS>MOLECULE
DA7
   45    47     1     0     0
SMALL
bcc


@<TRIPOS>ATOM
      1 C8          0.4230   -0.1430    0.7860 ca        1 DA7     -0.076000
      2 C7          1.7820   -0.0920    1.0210 ca        1 DA7     -0.103000
      3 C6          2.2820   -0.0620    2.3320 ca        1 DA7     -0.054000
      4 C5          1.4020   -0.0630    3.4120 ca        1 DA7      0.084900
      5 F           1.8730   -0.0230    4.6810 f         1 DA7     -0.114900
      6 N10        -0.8900   -0.0650    4.2650 na        1 DA7     -0.196100
      7 C4         -3.1270    0.1350    5.2320 ca        1 DA7     -0.215600
      8 C3         -4.5000    0.1650    5.0400 ca        1 DA7      0.004000
      9 C2         -5.0510    0.0880    3.7510 ca        1 DA7     -0.155000
     10 C1         -4.2280   -0.0310    2.6520 ca        1 DA7     -0.018000
     11 C13        -0.5070   -0.1670    1.8540 ca        1 DA7     -0.152000
     12 C14        -0.0200   -0.0990    3.1880 ca        1 DA7      0.069700
     13 C12        -2.2530   -0.0150    4.1010 ca        1 DA7      0.171700
     14 C11        -2.8200   -0.1010    2.7910 ca        1 DA7     -0.190000
     15 C9         -1.9420   -0.2680    1.6430 ca        1 DA7      0.369600
     16 N9         -2.4350   -0.5340    0.4270 nh        1 DA7     -0.760200
     17 C15        -2.5690    0.2370    6.6090 c         1 DA7      0.692700
     18 O15        -1.5790   -0.4390    6.9870 o         1 DA7     -0.667100
     19 N16        -3.1810    1.0870    7.5070 n         1 DA7     -0.559900
     20 C17        -2.5880    1.4230    8.7710 c3        1 DA7      0.074000
     21 C18        -2.8460    0.4150    9.9110 c3        1 DA7      0.083800
     22 N19        -1.9310   -0.7710    9.8980 n4        1 DA7     -0.688400
     23 C20        -0.6200   -0.4480   10.5220 c3        1 DA7      0.083600
     24 C21        -2.5590   -1.9270   10.5930 c3        1 DA7      0.083600
     25 H8          0.0850   -0.1480   -0.2640 ha        1 DA7      0.156000
     26 H7          2.4930   -0.0730    0.1760 ha        1 DA7      0.187000
     27 H6          3.3710   -0.0310    2.5160 ha        1 DA7      0.195000
     28 H3         -5.1920    0.2410    5.8970 ha        1 DA7      0.163000
     29 H2         -6.1470    0.1280    3.6260 ha        1 DA7      0.185000
     30 H1         -4.7050   -0.0580    1.6570 ha        1 DA7      0.159000
     31 HN91       -3.4150   -0.6190    0.2650 hn        1 DA7      0.476300
     32 HN92       -1.8350   -0.6580   -0.3610 hn        1 DA7      0.476300
     33 H16        -3.9450    1.6490    7.2010 hn        1 DA7      0.343500
     34 H171       -3.0310    2.4050    9.1160 h1        1 DA7      0.097700
     35 H172       -1.4750    1.5690    8.6390 h1        1 DA7      0.097700
     36 H181       -2.7050    0.9540   10.8930 hx        1 DA7      0.114200
     37 H182       -3.9090    0.0400    9.8660 hx        1 DA7      0.114200
     38 H201        0.0630   -1.3360   10.4250 hx        1 DA7      0.106867
     39 H202       -0.7640   -0.2070   11.6090 hx        1 DA7      0.106867
     40 H203       -0.1630    0.4320    9.9960 hx        1 DA7      0.106867
     41 H211       -3.4960   -2.2260   10.0500 hx        1 DA7      0.106867
     42 H212       -1.8390   -2.7890   10.5990 hx        1 DA7      0.106867
     43 H213       -2.8100   -1.6420   11.6500 hx        1 DA7      0.106867
     44 H162       -0.4970   -0.1140    5.1910 hn        1 DA7      0.348700
     45 H191       -1.7550   -1.0370    8.9100 hn        1 DA7      0.479800
@<TRIPOS>BOND
     1    1    2 ar  
     2    1   11 ar  
     3    1   25 1   
     4    2    3 ar  
     5    2   26 1   
     6    3    4 ar  
     7    3   27 1   
     8    4    5 1   
     9    4   12 ar  
    10    6   12 1   
    11    6   13 2   
    12    6   44 1   
    13    7    8 ar  
    14    7   13 ar  
    15    7   17 1   
    16    8    9 ar  
    17    8   28 1   
    18    9   10 ar  
    19    9   29 1   
    20   10   14 ar  
    21   10   30 1   
    22   11   12 ar  
    23   11   15 ar  
    24   13   14 ar  
    25   14   15 ar  
    26   15   16 1   
    27   16   31 1   
    28   16   32 1   
    29   17   18 2   
    30   17   19 1   
    31   19   20 1   
    32   19   33 1   
    33   20   21 1   
    34   20   34 1   
    35   20   35 1   
    36   21   22 1   
    37   21   36 1   
    38   21   37 1   
    39   22   23 1   
    40   22   24 1   
    41   22   45 1   
    42   23   38 1   
    43   23   39 1   
    44   23   40 1   
    45   24   41 1   
    46   24   42 1   
    47   24   43 1   
@<TRIPOS>SUBSTRUCTURE
     1 DA7         1 TEMP              0 ****  ****    0 ROOT
