@<TRIPOS>MOLECULE
DA7
   45    47     1     0     0
SMALL
bcc


@<TRIPOS>ATOM
      1 C8          0.2170    0.4490    0.7390 ca        1 DA7     -0.076000
      2 C7          1.5830    0.4750    0.9290 ca        1 DA7     -0.103000
      3 C6          2.1340    0.2800    2.2060 ca        1 DA7     -0.054000
      4 C5          1.2960    0.0710    3.2980 ca        1 DA7      0.084900
      5 F           1.8160   -0.1090    4.5360 f         1 DA7     -0.114900
      6 N10        -0.9600   -0.1500    4.2160 na        1 DA7     -0.195100
      7 C4         -3.1620   -0.2520    5.2770 ca        1 DA7     -0.216600
      8 C3         -4.5370   -0.1140    5.1570 ca        1 DA7      0.004000
      9 C2         -5.1320    0.1510    3.9130 ca        1 DA7     -0.156000
     10 C1         -4.3530    0.2480    2.7800 ca        1 DA7     -0.018000
     11 C13        -0.6710    0.2270    1.8190 ca        1 DA7     -0.152000
     12 C14        -0.1330    0.0500    3.1230 ca        1 DA7      0.069700
     13 C12        -2.3290   -0.0940    4.1170 ca        1 DA7      0.171700
     14 C11        -2.9450    0.1070    2.8420 ca        1 DA7     -0.191000
     15 C9         -2.1140    0.1720    1.6500 ca        1 DA7      0.369600
     16 N9         -2.6590    0.1560    0.4270 nv        1 DA7     -0.760200
     17 C15        -2.5600   -0.5290    6.6100 c         1 DA7      0.692700
     18 O15        -1.4890    0.0080    6.9920 o         1 DA7     -0.667100
     19 N16        -3.2200   -1.3870    7.4650 ns        1 DA7     -0.559900
     20 C17        -2.6130   -1.8900    8.6650 c3        1 DA7      0.074000
     21 C18        -2.7160   -0.9650    9.8960 c3        1 DA7      0.083800
     22 N19        -1.6830    0.1200    9.9340 nx        1 DA7     -0.688400
     23 C20        -2.1570    1.2680   10.7530 c3        1 DA7      0.083600
     24 C21        -0.3870   -0.3860   10.4620 c3        1 DA7      0.083600
     25 H8         -0.1600    0.6230   -0.2820 ha        1 DA7      0.156000
     26 H7          2.2620    0.6510    0.0750 ha        1 DA7      0.187000
     27 H6          3.2290    0.2960    2.3530 ha        1 DA7      0.195000
     28 H3         -5.1940   -0.1900    6.0420 ha        1 DA7      0.163000
     29 H2         -6.2270    0.2790    3.8520 ha        1 DA7      0.185000
     30 H1         -4.8640    0.4610    1.8250 ha        1 DA7      0.159000
     31 HN91       -3.6460    0.1080    0.2930 hn        1 DA7      0.476300
     32 HN92       -2.0940    0.1940   -0.3950 hn        1 DA7      0.476300
     33 H16        -4.0510   -1.8390    7.1540 hn        1 DA7      0.343500
     34 H171       -3.1420   -2.8490    8.9500 h1        1 DA7      0.097700
     35 H172       -1.5280   -2.1360    8.4650 h1        1 DA7      0.097700
     36 H181       -3.7350   -0.4820    9.9370 hx        1 DA7      0.114200
     37 H182       -2.5900   -1.5990   10.8220 hx        1 DA7      0.114200
     38 H201       -3.0790    1.7060   10.2850 hx        1 DA7      0.106867
     39 H202       -1.3510    2.0500   10.7930 hx        1 DA7      0.106867
     40 H203       -2.3910    0.9190   11.7940 hx        1 DA7      0.106867
     41 H211       -0.0470   -1.2590    9.8420 hx        1 DA7      0.106867
     42 H212        0.3800    0.4330   10.4030 hx        1 DA7      0.106867
     43 H213       -0.5100   -0.7060   11.5310 hx        1 DA7      0.106867
     44 H162       -0.5270   -0.2360    5.1230 hn        1 DA7      0.348700
     45 H191       -1.5220    0.4520    8.9640 hn        1 DA7      0.479800
@<TRIPOS>BOND
     1    1    2 ar  
     2    1   11 ar  
     3    1   25 1   
     4    2    3 ar  
     5    2   26 1   
     6    3    4 ar  
     7    3   27 1   
     8    4    5 1   
     9    4   12 ar  
    10    6   12 1   
    11    6   13 2   
    12    6   44 1   
    13    7    8 ar  
    14    7   13 ar  
    15    7   17 1   
    16    8    9 ar  
    17    8   28 1   
    18    9   10 ar  
    19    9   29 1   
    20   10   14 ar  
    21   10   30 1   
    22   11   12 ar  
    23   11   15 ar  
    24   13   14 ar  
    25   14   15 ar  
    26   15   16 1   
    27   16   31 1   
    28   16   32 1   
    29   17   18 2   
    30   17   19 1   
    31   19   20 1   
    32   19   33 1   
    33   20   21 1   
    34   20   34 1   
    35   20   35 1   
    36   21   22 1   
    37   21   36 1   
    38   21   37 1   
    39   22   23 1   
    40   22   24 1   
    41   22   45 1   
    42   23   38 1   
    43   23   39 1   
    44   23   40 1   
    45   24   41 1   
    46   24   42 1   
    47   24   43 1   
@<TRIPOS>SUBSTRUCTURE
     1 DA7         1 TEMP              0 ****  ****    0 ROOT
