@<TRIPOS>MOLECULE
DA7
   43    38     1     0     0
SMALL
bcc


@<TRIPOS>ATOM
      1 C8          2.1390   -0.3150   -5.4260 c1        1 DA7     -0.118500
      2 C7          3.5470   -0.3150   -5.3990 c1        1 DA7     -0.118500
      3 C6          4.2250   -0.3910   -4.1810 c1        1 DA7     -0.153000
      4 C5          3.4920   -0.4710   -2.9600 c1        1 DA7      0.103000
      5 F           4.1740   -0.8540   -1.8850 f         1 DA7     -0.086000
      6 N10         1.3720   -0.5170   -1.7950 n1        1 DA7     -0.187000
      7 C4         -0.8010   -0.5610   -0.5690 c1        1 DA7     -0.111000
      8 C3         -2.1760   -0.5570   -0.5880 c1        1 DA7     -0.050000
      9 C2         -2.8730   -0.4780   -1.8300 c1        1 DA7     -0.118500
     10 C1         -2.1490   -0.4040   -3.0470 c1        1 DA7     -0.118500
     11 C13         1.4060   -0.3940   -4.2180 c1        1 DA7     -0.150000
     12 C14         2.0870   -0.4720   -2.9840 c2        1 DA7      0.053000
     13 C12        -0.0520   -0.4850   -1.8170 c1        1 DA7      0.088000
     14 C11        -0.7270   -0.4080   -3.0280 c1        1 DA7     -0.163000
     15 C9          0.0060   -0.3630   -4.2430 c2        1 DA7      0.180000
     16 N9         -0.7040   -0.4570   -5.4620 n3        1 DA7     -0.357000
     17 C15         0.0050   -0.5180    0.8160 c2        1 DA7      0.358000
     18 O15         1.2160   -0.5250    0.8120 o         1 DA7     -0.377000
     19 N16        -0.7080   -0.3700    2.0500 n         1 DA7     -0.354000
     20 C17        -0.0430    0.1120    3.2110 c3        1 DA7     -0.034000
     21 C18        -1.0660    0.2370    4.3720 c3        1 DA7     -0.083000
     22 N19        -0.5760    1.1580    5.3320 n3        1 DA7     -0.263000
     23 C20        -1.5000    2.1780    5.5130 c3        1 DA7     -0.120500
     24 C21        -0.3520    0.4840    6.5790 c3        1 DA7     -0.120500
     25 H8          1.6630   -0.2640   -6.2900 ha        1 DA7      0.131500
     26 H7          4.0660   -0.2570   -6.2610 ha        1 DA7      0.131500
     27 H6          5.2070   -0.3880   -4.1660 ha        1 DA7      0.153000
     28 H3         -2.6870   -0.6120    0.2690 ha        1 DA7      0.157000
     29 H2         -3.8650   -0.4730   -1.8420 ha        1 DA7      0.131500
     30 H1         -2.6390   -0.3500   -3.9200 ha        1 DA7      0.131500
     31 HN91       -0.5090   -1.1140   -6.0450 hn        1 DA7      0.224000
     32 HN92       -1.3880    0.1430   -5.6490 hn        1 DA7      0.224000
     33 H16        -1.5620   -0.5710    2.0880 hn        1 DA7      0.234000
     34 H171        0.3410    0.9780    3.0270 h1        1 DA7      0.106500
     35 H172        0.6570   -0.5040    3.4620 h1        1 DA7      0.106500
     36 H181       -1.9350    0.5620    4.0140 h1        1 DA7      0.073000
     37 H182       -1.1990   -0.6680    4.8070 h1        1 DA7      0.073000
     38 H201       -1.1830    2.7820    6.1900 h1        1 DA7      0.070667
     39 H202       -2.3920    1.7770    5.8040 h1        1 DA7      0.070667
     40 H203       -1.6210    2.6720    4.6610 h1        1 DA7      0.070667
     41 H211       -0.3590    1.1410    7.3140 h1        1 DA7      0.070667
     42 H212        0.5310    0.0240    6.5520 h1        1 DA7      0.070667
     43 H213       -1.0710   -0.1880    6.7300 h1        1 DA7      0.070667
@<TRIPOS>BOND
     1    1    2 1   
     2    1   25 1   
     3    2   26 1   
     4    3    4 1   
     5    3   27 1   
     6    4   12 1   
     7    6   12 1   
     8    7    8 1   
     9    7   17 1   
    10    8   28 1   
    11    9   10 1   
    12    9   29 1   
    13   10   30 1   
    14   11   12 1   
    15   11   15 1   
    16   13   14 1   
    17   14   15 1   
    18   15   16 1   
    19   16   31 1   
    20   16   32 1   
    21   17   18 1   
    22   17   19 1   
    23   19   20 1   
    24   19   33 1   
    25   20   21 1   
    26   20   34 1   
    27   20   35 1   
    28   21   22 1   
    29   21   36 1   
    30   21   37 1   
    31   22   23 1   
    32   22   24 1   
    33   23   38 1   
    34   23   39 1   
    35   23   40 1   
    36   24   41 1   
    37   24   42 1   
    38   24   43 1   
@<TRIPOS>SUBSTRUCTURE
     1 DA7         1 TEMP              0 ****  ****    0 ROOT
