@<TRIPOS>MOLECULE
DA7
   46    48     1     0     0
SMALL
bcc


@<TRIPOS>ATOM
      1 C8         -0.1300    1.6070    1.1390 ca        1 DA7     -0.187000
      2 C7          0.9890    2.2040    1.6580 ca        1 DA7      0.001000
      3 C6          1.3160    2.0840    3.0350 ca        1 DA7     -0.101000
      4 C5          0.5020    1.3620    3.8790 ca        1 DA7      0.081600
      5 F           0.7910    1.2500    5.1950 f         1 DA7     -0.121900
      6 N10        -1.4690   -0.0220    4.2110 nb        1 DA7     -0.709000
      7 C4         -3.3720   -1.4450    4.6690 ca        1 DA7     -0.254900
      8 C3         -4.5300   -2.0570    4.2280 ca        1 DA7      0.038000
      9 C2         -4.9770   -1.8860    2.8900 ca        1 DA7     -0.084000
     10 C1         -4.2400   -1.1600    1.9970 ca        1 DA7     -0.086000
     11 C13        -1.0010    0.8360    1.9610 ca        1 DA7     -0.072300
     12 C14        -0.6990    0.6970    3.3710 ca        1 DA7      0.430600
     13 C12        -2.5820   -0.6350    3.7600 ca        1 DA7      0.449600
     14 C11        -3.0100   -0.5390    2.3840 ca        1 DA7     -0.106300
     15 C9         -2.1670    0.1790    1.5000 ca        1 DA7      0.013600
     16 N9         -2.4940    0.2440    0.0730 n4        1 DA7     -0.715000
     17 C15        -2.9690   -1.7680    6.0450 c         1 DA7      0.588700
     18 O15        -3.2230   -2.7940    6.6570 o         1 DA7     -0.397100
     19 N16        -2.1800   -0.7260    6.8490 n4        1 DA7     -0.665800
     20 C17        -2.1900   -1.0280    8.3080 c3        1 DA7      0.075800
     21 C18        -1.3220   -0.0540    9.1300 c3        1 DA7      0.080800
     22 N19        -1.2130   -0.4430   10.5710 n4        1 DA7     -0.675400
     23 C20        -0.0810    0.2930   11.2160 c3        1 DA7      0.075600
     24 C21        -2.4790   -0.1910   11.3170 c3        1 DA7      0.075600
     25 H8         -0.3420    1.7560    0.0680 ha        1 DA7      0.153000
     26 H7          1.6620    2.8000    1.0100 ha        1 DA7      0.203000
     27 H6          2.2280    2.5780    3.4230 ha        1 DA7      0.209000
     28 H3         -5.1270   -2.7010    4.9050 ha        1 DA7      0.201000
     29 H2         -5.9290   -2.3650    2.5870 ha        1 DA7      0.210000
     30 H1         -4.6320   -1.0530    0.9710 ha        1 DA7      0.160000
     31 HN91       -3.0570   -0.5700   -0.2090 hn        1 DA7      0.483800
     32 HN92       -3.0200    1.1080   -0.1270 hn        1 DA7      0.483800
     33 H16        -1.2090   -0.7180    6.4990 hn        1 DA7      0.478800
     34 H171       -1.8220   -2.0930    8.4380 hx        1 DA7      0.135700
     35 H172       -3.2640   -0.9910    8.6570 hx        1 DA7      0.135700
     36 H181       -0.2730   -0.0200    8.7070 hx        1 DA7      0.124200
     37 H182       -1.7560    0.9890    9.0890 hx        1 DA7      0.124200
     38 H201       -0.0220   -0.0120   12.2990 hx        1 DA7      0.123200
     39 H202       -0.2630    1.4000   11.1510 hx        1 DA7      0.123200
     40 H203        0.8840    0.0300   10.7030 hx        1 DA7      0.123200
     41 H211       -3.3170   -0.7760   10.8530 hx        1 DA7      0.123200
     42 H212       -2.3460   -0.5220   12.3860 hx        1 DA7      0.123200
     43 H213       -2.7180    0.9070   11.3030 hx        1 DA7      0.123200
     44 H93        -1.6260    0.2440   -0.4850 hn        1 DA7      0.483800
     45 H162       -2.5870    0.2000    6.6730 hn        1 DA7      0.478800
     46 H191       -1.0040   -1.4530   10.6260 hn        1 DA7      0.463800
@<TRIPOS>BOND
     1    1    2 ar  
     2    1   11 ar  
     3    1   25 1   
     4    2    3 ar  
     5    2   26 1   
     6    3    4 ar  
     7    3   27 1   
     8    4    5 1   
     9    4   12 ar  
    10    6   12 ar  
    11    6   13 ar  
    12    7    8 ar  
    13    7   13 ar  
    14    7   17 1   
    15    8    9 ar  
    16    8   28 1   
    17    9   10 ar  
    18    9   29 1   
    19   10   14 ar  
    20   10   30 1   
    21   11   12 ar  
    22   11   15 ar  
    23   13   14 ar  
    24   14   15 ar  
    25   15   16 1   
    26   16   31 1   
    27   16   32 1   
    28   16   44 1   
    29   17   18 2   
    30   17   19 1   
    31   19   20 1   
    32   19   33 1   
    33   19   45 1   
    34   20   21 1   
    35   20   34 1   
    36   20   35 1   
    37   21   22 1   
    38   21   36 1   
    39   21   37 1   
    40   22   23 1   
    41   22   24 1   
    42   22   46 1   
    43   23   38 1   
    44   23   39 1   
    45   23   40 1   
    46   24   41 1   
    47   24   42 1   
    48   24   43 1   
@<TRIPOS>SUBSTRUCTURE
     1 DA7         1 TEMP              0 ****  ****    0 ROOT
