@<TRIPOS>MOLECULE
DA8
   67    68     1     0     0
SMALL
bcc


@<TRIPOS>ATOM
      1 C16        -5.5170   -0.4610   -4.9170 c3        1 DA8     -0.079400
      2 C15        -3.9980   -0.3500   -4.8500 c3        1 DA8     -0.079400
      3 C14        -3.5590   -0.2660   -3.3890 c3        1 DA8     -0.078400
      4 C13        -2.0200   -0.3500   -3.3090 c3        1 DA8     -0.078400
      5 C12        -1.5670   -0.2360   -1.8130 c3        1 DA8     -0.083400
      6 C11        -0.0040   -0.3530   -1.7290 c3        1 DA8      0.134400
      7 O1          0.4130   -0.2590   -0.3520 os        1 DA8     -0.423600
      8 C1          1.7900   -0.5640   -0.1440 c3        1 DA8      0.307900
      9 O5          2.0260   -1.9470   -0.5140 os        1 DA8     -0.459600
     10 C5          3.3730   -2.4020   -0.1800 c3        1 DA8      0.069100
     11 C6          3.4620   -3.8780   -0.4280 c3        1 DA8      0.140400
     12 O6          3.8100   -4.1060   -1.7520 oh        1 DA8     -0.596800
     13 C4          3.7400   -2.1230    1.2740 c3        1 DA8      0.119100
     14 O4          2.9400   -2.9710    2.1290 oh        1 DA8     -0.590800
     15 C3          3.5120   -0.7350    1.6450 c3        1 DA8     -0.116400
     16 C2          2.1440   -0.2800    1.3000 c3        1 DA8      0.126100
     17 O2          2.0490    1.1550    1.5370 os        1 DA8     -0.396600
     18 C1F         1.4900    1.3830    2.8010 c3        1 DA8      0.330900
     19 O5F         2.4550    0.9650    3.8310 os        1 DA8     -0.449600
     20 C5F         2.0330    1.3190    5.1900 c3        1 DA8      0.118100
     21 C6F         3.1630    1.0180    6.1440 c3        1 DA8     -0.092100
     22 C4F         1.6630    2.7730    5.3190 c3        1 DA8      0.081100
     23 O4F         2.8490    3.5650    5.1890 oh        1 DA8     -0.597800
     24 C3F         0.6810    3.2010    4.2830 c3        1 DA8      0.072100
     25 O3F         0.5150    4.6460    4.3590 oh        1 DA8     -0.596800
     26 C2F         1.1160    2.8410    2.9170 c3        1 DA8      0.091100
     27 O2F         0.0430    3.1210    1.9960 oh        1 DA8     -0.588800
     28 H16        -5.8100   -1.2550   -4.4170 hc        1 DA8      0.039700
     29 C19        -5.9630   -0.5890   -6.3970 c3        1 DA8     -0.080400
     30 H16A       -5.9250    0.3480   -4.5200 hc        1 DA8      0.039700
     31 H15        -3.6000   -1.1290   -5.2630 hc        1 DA8      0.040200
     32 H15A       -3.7090    0.4540   -5.3240 hc        1 DA8      0.040200
     33 H14        -3.8600    0.5850   -3.0060 hc        1 DA8      0.041200
     34 H14A       -3.9500   -1.0040   -2.8900 hc        1 DA8      0.041200
     35 H13        -1.6240    0.3880   -3.8290 hc        1 DA8      0.042200
     36 H13A       -1.7200   -1.2060   -3.6770 hc        1 DA8      0.042200
     37 H12        -1.8520    0.6360   -1.4480 hc        1 DA8      0.053200
     38 H12A       -1.9760   -0.9570   -1.2940 hc        1 DA8      0.053200
     39 H11         0.2760   -1.2080   -2.0940 h1        1 DA8      0.039200
     40 H11A        0.4090    0.3790   -2.2480 h1        1 DA8      0.039200
     41 H1          2.3390    0.0200   -0.7280 h2        1 DA8      0.063700
     42 H5          4.0150   -1.9440   -0.7630 h1        1 DA8      0.061700
     43 H6          2.6030   -4.2890   -0.2440 h1        1 DA8      0.061200
     44 H6A         4.1440   -4.2680    0.1610 h1        1 DA8      0.061200
     45 HO6         4.2370   -4.8640   -1.8140 ho        1 DA8      0.412000
     46 H4          4.6930   -2.3380    1.4110 h1        1 DA8      0.086700
     47 HO4         3.4750   -3.4840    2.6240 ho        1 DA8      0.412000
     48 H3          4.1600   -0.1730    1.1790 hc        1 DA8      0.073200
     49 H3A         3.6440   -0.6390    2.6120 hc        1 DA8      0.073200
     50 H2          1.5030   -0.7400    1.8790 h1        1 DA8      0.083700
     51 H1F         0.6820    0.8440    2.8900 h2        1 DA8      0.088700
     52 H5F         1.2620    0.7760    5.4320 h1        1 DA8      0.052700
     53 H6F         3.2650    0.0350    6.2370 hc        1 DA8      0.054033
     54 H6FA        3.9890    1.3990    5.7980 hc        1 DA8      0.054033
     55 H6FB        2.9630    1.4150    7.0300 hc        1 DA8      0.054033
     56 H4F         1.2730    2.9250    6.2090 h1        1 DA8      0.095700
     57 HO4F        2.9660    4.0400    5.9220 ho        1 DA8      0.420000
     58 H3F        -0.1780    2.7730    4.4650 h1        1 DA8      0.090700
     59 HO3F       -0.2280    4.8390    4.8250 ho        1 DA8      0.421000
     60 H2F         1.8980    3.3920    2.6750 h1        1 DA8      0.062700
     61 HO2F        0.1320    3.9590    1.6790 ho        1 DA8      0.421000
     62 H34        -5.6390    0.1800   -6.9030 hc        1 DA8      0.038700
     63 C20        -7.4820   -0.6380   -6.4670 c3        1 DA8     -0.093100
     64 H35        -5.5920   -1.4110   -6.7790 hc        1 DA8      0.038700
     65 H36        -7.8480    0.1920   -6.1220 hc        1 DA8      0.032700
     66 H37        -7.8100   -1.3890   -5.9290 hc        1 DA8      0.032700
     67 H38        -7.7650   -0.7580   -7.4090 hc        1 DA8      0.032700
@<TRIPOS>BOND
     1    1    2 1   
     2    1   28 1   
     3    1   29 1   
     4    1   30 1   
     5    2    3 1   
     6    2   31 1   
     7    2   32 1   
     8    3    4 1   
     9    3   33 1   
    10    3   34 1   
    11    4    5 1   
    12    4   35 1   
    13    4   36 1   
    14    5    6 1   
    15    5   37 1   
    16    5   38 1   
    17    6    7 1   
    18    6   39 1   
    19    6   40 1   
    20    7    8 1   
    21    8    9 1   
    22    8   16 1   
    23    8   41 1   
    24    9   10 1   
    25   10   11 1   
    26   10   13 1   
    27   10   42 1   
    28   11   12 1   
    29   11   43 1   
    30   11   44 1   
    31   12   45 1   
    32   13   14 1   
    33   13   15 1   
    34   13   46 1   
    35   14   47 1   
    36   15   16 1   
    37   15   48 1   
    38   15   49 1   
    39   16   17 1   
    40   16   50 1   
    41   17   18 1   
    42   18   19 1   
    43   18   26 1   
    44   18   51 1   
    45   19   20 1   
    46   20   21 1   
    47   20   22 1   
    48   20   52 1   
    49   21   53 1   
    50   21   54 1   
    51   21   55 1   
    52   22   23 1   
    53   22   24 1   
    54   22   56 1   
    55   23   57 1   
    56   24   25 1   
    57   24   26 1   
    58   24   58 1   
    59   25   59 1   
    60   26   27 1   
    61   26   60 1   
    62   27   61 1   
    63   29   62 1   
    64   29   63 1   
    65   29   64 1   
    66   63   65 1   
    67   63   66 1   
    68   63   67 1   
@<TRIPOS>SUBSTRUCTURE
     1 DA8         1 TEMP              0 ****  ****    0 ROOT
