@<TRIPOS>MOLECULE
DA8
   67    68     1     0     0
SMALL
bcc


@<TRIPOS>ATOM
      1 C16        -7.2560    0.4290    0.2560 c3        1 DA8     -0.079400
      2 C15        -6.1540   -0.3670   -0.4100 c3        1 DA8     -0.079400
      3 C14        -4.8000   -0.0270    0.1760 c3        1 DA8     -0.078400
      4 C13        -3.6990   -0.8230   -0.4900 c3        1 DA8     -0.078400
      5 C12        -2.3480   -0.4800    0.0980 c3        1 DA8     -0.084400
      6 C11        -1.2570   -1.2940   -0.5750 c3        1 DA8      0.134400
      7 O1         -0.0200   -0.8570    0.0030 os        1 DA8     -0.412600
      8 C1          1.1100   -1.4990   -0.5420 c3        1 DA8      0.343900
      9 O5          0.9780   -2.8250   -0.0410 os        1 DA8     -0.442600
     10 C5          2.0990   -3.6600   -0.3250 c3        1 DA8      0.115100
     11 C6          1.7740   -5.0100    0.3250 c3        1 DA8      0.142400
     12 O6          0.6180   -5.5790   -0.2490 oh        1 DA8     -0.599800
     13 C4          3.4150   -3.0790    0.2120 c3        1 DA8      0.118100
     14 O4          3.3830   -3.1680    1.6280 oh        1 DA8     -0.586800
     15 C3          3.5980   -1.6460   -0.2720 c3        1 DA8     -0.143400
     16 C2          2.3640   -0.8070    0.0340 c3        1 DA8      0.126100
     17 O2          2.4500    0.4520   -0.6350 os        1 DA8     -0.450600
     18 C1F         3.1230    1.4650    0.0920 c3        1 DA8      0.297900
     19 O5F         2.3870    1.7260    1.2660 os        1 DA8     -0.442600
     20 C5F         1.0530    2.2090    1.0400 c3        1 DA8      0.102100
     21 C6F         0.4380    2.4040    2.4110 c3        1 DA8     -0.089100
     22 C4F         1.1070    3.5180    0.2410 c3        1 DA8      0.079100
     23 O4F         1.7570    4.5640    0.9430 oh        1 DA8     -0.597800
     24 C3F         1.8230    3.2740   -1.1000 c3        1 DA8      0.086100
     25 O3F         1.8970    4.4600   -1.8570 oh        1 DA8     -0.578800
     26 C2F         3.2230    2.6890   -0.8450 c3        1 DA8      0.099100
     27 O2F         3.8890    2.3340   -2.0340 oh        1 DA8     -0.572800
     28 H16        -7.0570    1.5260    0.1290 hc        1 DA8      0.039700
     29 C19        -8.6110    0.0890   -0.3290 c3        1 DA8     -0.080400
     30 H16A       -7.2590    0.2190    1.3580 hc        1 DA8      0.039700
     31 H15        -6.3530   -1.4640   -0.2830 hc        1 DA8      0.040200
     32 H15A       -6.1510   -0.1570   -1.5120 hc        1 DA8      0.040200
     33 H14        -4.6010    1.0700    0.0500 hc        1 DA8      0.041200
     34 H14A       -4.8030   -0.2380    1.2780 hc        1 DA8      0.041200
     35 H13        -3.8980   -1.9200   -0.3630 hc        1 DA8      0.041700
     36 H13A       -3.6960   -0.6130   -1.5920 hc        1 DA8      0.041700
     37 H12        -2.1320    0.6120   -0.0350 hc        1 DA8      0.053200
     38 H12A       -2.3400   -0.6880    1.1990 hc        1 DA8      0.053200
     39 H11        -1.3900   -2.3900   -0.3840 h1        1 DA8      0.036700
     40 H11A       -1.2350   -1.1090   -1.6810 h1        1 DA8      0.036700
     41 H1          1.1080   -1.4970   -1.6660 h2        1 DA8      0.049700
     42 H5          2.1910   -3.7730   -1.4420 h1        1 DA8      0.052700
     43 H6          2.6010   -5.7380    0.1140 h1        1 DA8      0.066200
     44 H6A         1.6480   -4.8740    1.4310 h1        1 DA8      0.066200
     45 HO6        -0.1120   -4.9700   -0.0720 ho        1 DA8      0.413000
     46 H4          4.2680   -3.7120   -0.1690 h1        1 DA8      0.045700
     47 HO4         4.1460   -2.6790    1.9590 ho        1 DA8      0.404000
     48 H3          4.4920   -1.1840    0.2220 hc        1 DA8      0.061200
     49 H3A         3.7850   -1.6490   -1.3770 hc        1 DA8      0.061200
     50 H2          2.2370   -0.6630    1.1420 h1        1 DA8      0.098700
     51 H1F         4.1340    1.1230    0.4490 h2        1 DA8      0.083700
     52 H5F         0.4850    1.4310    0.4530 h1        1 DA8      0.089700
     53 H6F         0.9590    3.2240    2.9610 hc        1 DA8      0.051700
     54 H6FA       -0.6390    2.6700    2.2930 hc        1 DA8      0.051700
     55 H6FB        0.5230    1.4620    3.0030 hc        1 DA8      0.051700
     56 H4F         0.0690    3.9070    0.0510 h1        1 DA8      0.095700
     57 HO4F        2.5140    4.1740    1.4010 ho        1 DA8      0.410000
     58 H3F         1.2240    2.5600   -1.7330 h1        1 DA8      0.092700
     59 HO3F        2.2610    5.1460   -1.2800 ho        1 DA8      0.415000
     60 H2F         3.8860    3.4610   -0.3630 h1        1 DA8      0.087700
     61 HO2F        3.2970    1.7540   -2.5320 ho        1 DA8      0.416000
     62 H34        -8.8070   -1.0080   -0.2030 hc        1 DA8      0.038700
     63 C20        -9.7110    0.8800    0.3310 c3        1 DA8     -0.093100
     64 H35        -8.6050    0.2990   -1.4310 hc        1 DA8      0.038700
     65 H36        -9.5460    1.9760    0.1940 hc        1 DA8      0.032700
     66 H37       -10.7000    0.6140   -0.1150 hc        1 DA8      0.032700
     67 H38        -9.7480    0.6650    1.4260 hc        1 DA8      0.032700
@<TRIPOS>BOND
     1    1    2 1   
     2    1   28 1   
     3    1   29 1   
     4    1   30 1   
     5    2    3 1   
     6    2   31 1   
     7    2   32 1   
     8    3    4 1   
     9    3   33 1   
    10    3   34 1   
    11    4    5 1   
    12    4   35 1   
    13    4   36 1   
    14    5    6 1   
    15    5   37 1   
    16    5   38 1   
    17    6    7 1   
    18    6   39 1   
    19    6   40 1   
    20    7    8 1   
    21    8    9 1   
    22    8   16 1   
    23    8   41 1   
    24    9   10 1   
    25   10   11 1   
    26   10   13 1   
    27   10   42 1   
    28   11   12 1   
    29   11   43 1   
    30   11   44 1   
    31   12   45 1   
    32   13   14 1   
    33   13   15 1   
    34   13   46 1   
    35   14   47 1   
    36   15   16 1   
    37   15   48 1   
    38   15   49 1   
    39   16   17 1   
    40   16   50 1   
    41   17   18 1   
    42   18   19 1   
    43   18   26 1   
    44   18   51 1   
    45   19   20 1   
    46   20   21 1   
    47   20   22 1   
    48   20   52 1   
    49   21   53 1   
    50   21   54 1   
    51   21   55 1   
    52   22   23 1   
    53   22   24 1   
    54   22   56 1   
    55   23   57 1   
    56   24   25 1   
    57   24   26 1   
    58   24   58 1   
    59   25   59 1   
    60   26   27 1   
    61   26   60 1   
    62   27   61 1   
    63   29   62 1   
    64   29   63 1   
    65   29   64 1   
    66   63   65 1   
    67   63   66 1   
    68   63   67 1   
@<TRIPOS>SUBSTRUCTURE
     1 DA8         1 TEMP              0 ****  ****    0 ROOT
