@<TRIPOS>MOLECULE
DA9
   18    16     1     0     0
SMALL
bcc


@<TRIPOS>ATOM
      1 N1          2.9680    2.6940    2.2770 n2        1 DA9      0.230000
      2 N2          2.4970    1.3200    1.8000 n1        1 DA9     -0.152000
      3 C3          1.0360    1.0960    1.4890 c2        1 DA9     -0.090000
      4 C4          0.8340    0.3910    0.2890 c2        1 DA9      0.274000
      5 O5          1.6710    0.1330   -0.3760 o         1 DA9     -0.375000
      6 N6         -0.4530    0.0380   -0.0350 n         1 DA9     -0.366000
      7 C7         -0.7750   -0.5310   -1.2880 c3        1 DA9     -0.033000
      8 C8         -1.7650   -1.8300   -1.0300 c3        1 DA9     -0.295000
      9 S9         -2.5430   -2.3380   -2.6410 sh        1 DA9     -0.004000
     10 N10         3.5680    4.4440    2.8840 n1        1 DA9     -0.152000
     11 H3          0.5100    2.0550    1.4070 ha        1 DA9      0.120000
     12 H3A         0.6450    0.5580    2.2290 ha        1 DA9      0.120000
     13 HN6        -1.2520    0.2310    0.6910 hn        1 DA9      0.223000
     14 H7          0.0210   -0.8060   -1.7400 h1        1 DA9      0.112500
     15 H7A        -1.2830    0.1710   -1.8690 h1        1 DA9      0.112500
     16 H8         -2.4030   -1.5970   -0.4540 h1        1 DA9      0.119500
     17 H8A        -1.2180   -2.6260   -0.6320 h1        1 DA9      0.119500
     18 HS9        -2.0570   -3.4020   -3.0020 hs        1 DA9      0.034000
@<TRIPOS>BOND
     1    1    2 1   
     2    1   10 1   
     3    3    4 1   
     4    3   11 1   
     5    3   12 1   
     6    4    5 1   
     7    4    6 1   
     8    6    7 1   
     9    6   13 1   
    10    7    8 1   
    11    7   14 1   
    12    7   15 1   
    13    8    9 1   
    14    8   16 1   
    15    8   17 1   
    16    9   18 1   
@<TRIPOS>SUBSTRUCTURE
     1 DA9         1 TEMP              0 ****  ****    0 ROOT
