@<TRIPOS>MOLECULE
DA9
   18    17     1     0     0
SMALL
bcc


@<TRIPOS>ATOM
      1 N1         -3.6090   -0.3200    0.4660 n1        1 DA9      0.231000
      2 N2         -3.1910    0.4100   -0.4740 n2        1 DA9     -0.446200
      3 C3         -1.9420    1.1250   -0.3820 c3        1 DA9      0.096800
      4 C4         -0.7110    0.2720   -0.0420 c         1 DA9      0.633100
      5 O5         -0.7590   -0.5760    0.8720 o         1 DA9     -0.613100
      6 N6          0.4330    0.4840   -0.7780 n         1 DA9     -0.562900
      7 C7          1.6690   -0.1940   -0.5050 c3        1 DA9      0.098000
      8 C8          2.6810    0.6360    0.2820 c3        1 DA9     -0.026300
      9 S9          4.2250   -0.2210    0.1610 sh        1 DA9     -0.365900
     10 N10        -4.1410   -1.0210    1.1780 n1        1 DA9     -0.014000
     11 H3         -1.8580    1.5940   -1.4040 h1        1 DA9      0.078200
     12 H3A        -1.9680    1.9500    0.3880 h1        1 DA9      0.078200
     13 HN6         0.4520    1.2190   -1.4430 hn        1 DA9      0.310500
     14 H7          1.4440   -1.1370    0.0740 h1        1 DA9      0.080200
     15 H7A         2.1310   -0.4840   -1.4940 h1        1 DA9      0.080200
     16 H8          2.7870    1.6620   -0.1460 h1        1 DA9      0.066200
     17 H8A         2.3580    0.7380    1.3450 h1        1 DA9      0.066200
     18 HS9         4.8350    0.3020    1.2090 hs        1 DA9      0.206800
@<TRIPOS>BOND
     1    1    2 1   
     2    1   10 3   
     3    2    3 1   
     4    3    4 1   
     5    3   11 1   
     6    3   12 1   
     7    4    5 2   
     8    4    6 1   
     9    6    7 1   
    10    6   13 1   
    11    7    8 1   
    12    7   14 1   
    13    7   15 1   
    14    8    9 1   
    15    8   16 1   
    16    8   17 1   
    17    9   18 1   
@<TRIPOS>SUBSTRUCTURE
     1 DA9         1 TEMP              0 ****  ****    0 ROOT
