@<TRIPOS>MOLECULE
DA9
   19    18     1     0     0
SMALL
bcc


@<TRIPOS>ATOM
      1 N1          0.9290    0.1130   -0.3380 n2        1 DA9      0.208000
      2 N2          1.6570    0.3390    0.6770 n2        1 DA9     -0.308000
      3 C3          1.4590   -0.3720    1.9120 c3        1 DA9     -0.085000
      4 C4          2.2980   -1.6430    2.0630 c2        1 DA9      0.273000
      5 O5          1.8690   -2.6800    2.5910 o         1 DA9     -0.335000
      6 N6          3.6480   -1.6090    1.6660 ns        1 DA9     -0.371000
      7 C7          4.3850   -2.7910    1.5450 c3        1 DA9     -0.183000
      8 C8          5.8740   -2.1960    3.9340 c3        1 DA9     -0.512000
      9 S9          5.0710   -3.5070    3.1150 s4        1 DA9      0.800000
     10 N10         0.3910    0.0900   -1.3310 n1        1 DA9      0.058000
     11 H3          0.3950   -0.6680    2.1490 h1        1 DA9      0.152000
     12 H3A         1.8040    0.3550    2.7080 h1        1 DA9      0.152000
     13 HN6         5.2870   -2.6630    0.8850 h2        1 DA9      0.170000
     14 H7          5.3090   -1.2330    3.9510 h1        1 DA9      0.170667
     15 H7A         3.7560   -3.6610    1.1900 h2        1 DA9      0.170000
     16 H8          6.0850   -2.4860    4.9950 h1        1 DA9      0.170667
     17 H8A         6.8570   -2.0130    3.4290 h1        1 DA9      0.170667
     18 HS9         3.9490   -3.5620    3.8300 hs        1 DA9      0.028000
     19 H62         3.9990   -0.7840    1.2260 hn        1 DA9      0.274000
@<TRIPOS>BOND
     1    1    2 1   
     2    1   10 1   
     3    2    3 1   
     4    3    4 1   
     5    3   11 1   
     6    3   12 1   
     7    4    5 1   
     8    4    6 1   
     9    6    7 1   
    10    6   19 1   
    11    7    9 1   
    12    7   13 1   
    13    7   15 1   
    14    8    9 1   
    15    8   14 1   
    16    8   16 1   
    17    8   17 1   
    18    9   18 1   
@<TRIPOS>SUBSTRUCTURE
     1 DA9         1 TEMP              0 ****  ****    0 ROOT
