@<TRIPOS>MOLECULE
DA9
   19    18     1     0     0
SMALL
bcc


@<TRIPOS>ATOM
      1 N1          0.9640    0.1700   -0.3310 n2        1 DA9      0.208000
      2 N2          1.6930    0.3770    0.6860 n2        1 DA9     -0.308000
      3 C3          1.4810   -0.3370    1.9170 c3        1 DA9     -0.085000
      4 C4          2.2980   -1.6230    2.0620 c2        1 DA9      0.273000
      5 O5          1.8500   -2.6570    2.5830 o         1 DA9     -0.335000
      6 N6          3.6480   -1.6110    1.6660 n         1 DA9     -0.371000
      7 C7          4.3660   -2.8040    1.5400 c3        1 DA9     -0.183000
      8 C8          5.8620   -2.2480    3.9330 c3        1 DA9     -0.512000
      9 S9          5.0370   -3.5400    3.1070 s4        1 DA9      0.800000
     10 N10         0.4270    0.1620   -1.3260 n1        1 DA9      0.058000
     11 H3          0.4110   -0.6170    2.1500 h1        1 DA9      0.152000
     12 H3A         1.8370    0.3780    2.7180 h1        1 DA9      0.152000
     13 HN6         5.2700   -2.6880    0.8820 h2        1 DA9      0.170000
     14 H7          5.3140   -1.2760    3.9550 h1        1 DA9      0.170667
     15 H7A         3.7220   -3.6610    1.1790 h2        1 DA9      0.170000
     16 H8          6.0670   -2.5470    4.9930 h1        1 DA9      0.170667
     17 H8A         6.8480   -2.0800    3.4310 h1        1 DA9      0.170667
     18 HS9         3.9130   -3.5800    3.8200 hs        1 DA9      0.028000
     19 H62         4.0140   -0.7890    1.2320 hn        1 DA9      0.274000
@<TRIPOS>BOND
     1    1    2 1   
     2    1   10 1   
     3    2    3 1   
     4    3    4 1   
     5    3   11 1   
     6    3   12 1   
     7    4    5 1   
     8    4    6 1   
     9    6    7 1   
    10    6   19 1   
    11    7    9 1   
    12    7   13 1   
    13    7   15 1   
    14    8    9 1   
    15    8   14 1   
    16    8   16 1   
    17    8   17 1   
    18    9   18 1   
@<TRIPOS>SUBSTRUCTURE
     1 DA9         1 TEMP              0 ****  ****    0 ROOT
