@<TRIPOS>MOLECULE
DAB
   17    16     1     0     0
SMALL
bcc


@<TRIPOS>ATOM
      1 N          -1.9280   -0.6170    0.6920 n3        1 DAB     -0.891800
      2 CA         -0.5050   -0.6170    0.6920 c3        1 DAB      0.021500
      3 C          -0.0010   -0.6170    2.1170 c         1 DAB      0.887600
      4 O          -0.3820    0.2760    2.9190 o         1 DAB     -0.844300
      5 CB         -0.0010    0.6170   -0.0210 c3        1 DAB     -0.100400
      6 CG          0.7780    0.2070   -1.2510 c3        1 DAB      0.138800
      7 ND          1.2340    1.3710   -1.9350 n3        1 DAB     -0.909800
      8 OXT         0.7980   -1.5100    2.5020 o         1 DAB     -0.844300
      9 H          -2.2320   -0.9850   -0.0850 hn        1 DAB      0.330300
     10 H2         -2.2320   -1.1050    1.3990 hn        1 DAB      0.330300
     11 HA         -0.1800   -1.4140    0.2320 h1        1 DAB      0.041700
     12 HB2         0.5790    1.1250    0.5780 hc        1 DAB      0.045200
     13 HB3        -0.7600    1.1720   -0.2860 hc        1 DAB      0.045200
     14 HG2         0.2010   -0.3130   -1.8430 h1        1 DAB      0.047700
     15 HG3         1.5440   -0.3360   -0.9850 h1        1 DAB      0.047700
     16 HD1         2.1460    1.3930   -1.9240 hn        1 DAB      0.327300
     17 HD2         0.9410    1.3510   -2.7990 hn        1 DAB      0.327300
@<TRIPOS>BOND
     1    1    2 1   
     2    1    9 1   
     3    1   10 1   
     4    2    3 1   
     5    2    5 1   
     6    2   11 1   
     7    3    4 1   
     8    3    8 1   
     9    5    6 1   
    10    5   12 1   
    11    5   13 1   
    12    6    7 1   
    13    6   14 1   
    14    6   15 1   
    15    7   16 1   
    16    7   17 1   
@<TRIPOS>SUBSTRUCTURE
     1 DAB         1 TEMP              0 ****  ****    0 ROOT
