@<TRIPOS>MOLECULE
DAB
   17    16     1     0     0
SMALL
bcc


@<TRIPOS>ATOM
      1 N          -1.8560    0.4700   -0.1050 n3        1 DAB     -0.891800
      2 CA         -0.4020    0.3910   -0.1640 c3        1 DAB      0.021500
      3 C           0.1560   -0.2950   -1.4570 c         1 DAB      0.887600
      4 O          -0.6720   -0.6610   -2.3400 o         1 DAB     -0.844300
      5 CB          0.2160   -0.3060    1.0470 c3        1 DAB     -0.100400
      6 CG          0.0050    0.4850    2.3350 c3        1 DAB      0.138800
      7 ND          0.6580   -0.0410    3.5150 n3        1 DAB     -0.909800
      8 OXT         1.4080   -0.4260   -1.5530 o         1 DAB     -0.844300
      9 H          -2.2180   -0.4530    0.0640 hn        1 DAB      0.330300
     10 H2         -2.1760    0.7310   -1.0240 hn        1 DAB      0.330300
     11 HA         -0.0270    1.4560   -0.1860 h1        1 DAB      0.041700
     12 HB2         1.3130   -0.4190    0.8330 hc        1 DAB      0.045200
     13 HB3        -0.2130   -1.3360    1.1580 hc        1 DAB      0.045200
     14 HG2        -1.0970    0.5480    2.5550 h1        1 DAB      0.047700
     15 HG3         0.3780    1.5370    2.1800 h1        1 DAB      0.047700
     16 HD1         0.3430   -0.9770    3.6900 hn        1 DAB      0.327300
     17 HD2         1.6490   -0.0810    3.3670 hn        1 DAB      0.327300
@<TRIPOS>BOND
     1    1    2 1   
     2    1    9 1   
     3    1   10 1   
     4    2    3 1   
     5    2    5 1   
     6    2   11 1   
     7    3    4 1   
     8    3    8 1   
     9    5    6 1   
    10    5   12 1   
    11    5   13 1   
    12    6    7 1   
    13    6   14 1   
    14    6   15 1   
    15    7   16 1   
    16    7   17 1   
@<TRIPOS>SUBSTRUCTURE
     1 DAB         1 TEMP              0 ****  ****    0 ROOT
