@<TRIPOS>MOLECULE
DAC
   44    43     1     0     0
SMALL
bcc


@<TRIPOS>ATOM
      1 C1         -0.2500    1.3330   -0.8720 c         1 DAC      0.597900
      2 O1          0.9500    1.5570   -1.0800 o         1 DAC     -0.559100
      3 C2         -0.9250    1.2620    0.4090 ce        1 DAC     -0.311200
      4 C3         -0.3260    1.4780    1.5950 c2        1 DAC      0.003800
      5 C4          1.1010    1.8130    1.7730 c3        1 DAC     -0.084200
      6 C5          1.4690    2.0290    3.2260 c3        1 DAC     -0.081400
      7 C6          2.9380    2.3690    3.3680 c3        1 DAC     -0.078400
      8 C7          3.3100    2.5850    4.8190 c3        1 DAC     -0.080400
      9 C8          4.7780    2.9260    4.9630 c3        1 DAC     -0.078400
     10 C9          5.1520    3.1420    6.4140 c3        1 DAC     -0.080400
     11 C10         6.6130    3.4820    6.5620 c3        1 DAC     -0.094100
     12 S          -1.4010    1.0230   -2.1520 ss        1 DAC     -0.192700
     13 C1'        -0.4670    1.3260   -3.6110 c3        1 DAC     -0.077300
     14 C2'         0.4990    0.1800   -3.8480 c3        1 DAC      0.107800
     15 N3'         1.3800    0.4000   -5.0380 n4        1 DAC     -0.688800
     16 C4'         2.3150   -0.7790   -5.2590 c         1 DAC      0.551100
     17 O4'         3.4380   -0.6390   -4.8070 o         1 DAC     -0.387100
     18 C5'         1.7440   -1.9310   -6.0100 c3        1 DAC     -0.186100
     19 H2         -2.0030    1.0220    0.3650 ha        1 DAC      0.160000
     20 H3         -0.9310    1.4080    2.5200 ha        1 DAC      0.149000
     21 H41         1.7320    0.9890    1.3340 hc        1 DAC      0.077700
     22 H42         1.3440    2.7350    1.1730 hc        1 DAC      0.077700
     23 H51         1.2400    1.1020    3.8170 hc        1 DAC      0.048700
     24 H52         0.8480    2.8590    3.6550 hc        1 DAC      0.048700
     25 H61         3.1680    3.2950    2.7780 hc        1 DAC      0.041700
     26 H62         3.5600    1.5400    2.9390 hc        1 DAC      0.041700
     27 H71         3.0790    1.6590    5.4090 hc        1 DAC      0.043200
     28 H72         2.6880    3.4150    5.2480 hc        1 DAC      0.043200
     29 H81         5.4010    2.0970    4.5340 hc        1 DAC      0.040200
     30 H82         5.0100    3.8520    4.3730 hc        1 DAC      0.040200
     31 H91         4.9190    2.2160    7.0020 hc        1 DAC      0.040700
     32 H92         4.5280    3.9710    6.8410 hc        1 DAC      0.040700
     33 H101        6.8670    3.6370    7.6380 hc        1 DAC      0.035033
     34 H102        6.8600    4.4170    6.0030 hc        1 DAC      0.035033
     35 H103        7.2530    2.6570    6.1650 hc        1 DAC      0.035033
     36 H1'1        0.0880    2.2950   -3.5110 h1        1 DAC      0.106200
     37 H1'2       -1.2090    1.4230   -4.4440 h1        1 DAC      0.106200
     38 H2'1       -0.0680   -0.7820   -4.0080 hx        1 DAC      0.121700
     39 H2'2        1.1770    0.0690   -2.9460 hx        1 DAC      0.121700
     40 HN'         0.8020    0.5420   -5.8710 hn        1 DAC      0.458800
     41 H5'1        1.5680   -1.6480   -7.0800 hc        1 DAC      0.116033
     42 H5'2        2.4850   -2.7750   -5.9820 hc        1 DAC      0.116033
     43 H5'3        0.7820   -2.2810   -5.5580 hc        1 DAC      0.116033
     44 H3'2        1.9380    1.2510   -4.8780 hn        1 DAC      0.458800
@<TRIPOS>BOND
     1    1    2 2   
     2    1    3 1   
     3    1   12 1   
     4    3    4 2   
     5    3   19 1   
     6    4    5 1   
     7    4   20 1   
     8    5    6 1   
     9    5   21 1   
    10    5   22 1   
    11    6    7 1   
    12    6   23 1   
    13    6   24 1   
    14    7    8 1   
    15    7   25 1   
    16    7   26 1   
    17    8    9 1   
    18    8   27 1   
    19    8   28 1   
    20    9   10 1   
    21    9   29 1   
    22    9   30 1   
    23   10   11 1   
    24   10   31 1   
    25   10   32 1   
    26   11   33 1   
    27   11   34 1   
    28   11   35 1   
    29   12   13 1   
    30   13   14 1   
    31   13   36 1   
    32   13   37 1   
    33   14   15 1   
    34   14   38 1   
    35   14   39 1   
    36   15   16 1   
    37   15   40 1   
    38   15   44 1   
    39   16   17 2   
    40   16   18 1   
    41   18   41 1   
    42   18   42 1   
    43   18   43 1   
@<TRIPOS>SUBSTRUCTURE
     1 DAC         1 TEMP              0 ****  ****    0 ROOT
