@<TRIPOS>MOLECULE
DAC
   43    42     1     0     0
SMALL
bcc


@<TRIPOS>ATOM
      1 C1         -0.9810   -0.5690    0.9590 c         1 DAC      0.576900
      2 O1          0.1980   -0.4220    0.6100 o         1 DAC     -0.549100
      3 C2         -2.1270   -0.6300    0.0540 ce        1 DAC     -0.279200
      4 C3         -2.0470   -0.5340   -1.2820 c2        1 DAC     -0.051200
      5 C4         -0.7900   -0.3530   -2.0410 c3        1 DAC     -0.074200
      6 C5         -1.0220   -0.2800   -3.5350 c3        1 DAC     -0.078400
      7 C6          0.2840   -0.0960   -4.2780 c3        1 DAC     -0.079400
      8 C7          0.0590   -0.0220   -5.7730 c3        1 DAC     -0.079400
      9 C8          1.3650    0.1630   -6.5160 c3        1 DAC     -0.079400
     10 C9          1.1410    0.2360   -8.0120 c3        1 DAC     -0.080400
     11 C10         2.4390    0.4200   -8.7560 c3        1 DAC     -0.093100
     12 S          -1.5380   -0.7440    2.5860 ss        1 DAC     -0.232700
     13 C1'        -0.0730   -0.6640    3.5680 c3        1 DAC     -0.063300
     14 C2'        -0.0020    0.6730    4.3010 c3        1 DAC      0.096000
     15 N3'         1.1940    0.8660    5.0700 n         1 DAC     -0.571900
     16 C4'         1.2440    0.6490    6.4370 c         1 DAC      0.653100
     17 O4'         0.2140    0.3890    7.0900 o         1 DAC     -0.603100
     18 C5'         2.5890    0.7880    7.1080 c3        1 DAC     -0.175100
     19 H2         -3.1070   -0.7640    0.5450 ha        1 DAC      0.150000
     20 H3         -2.9720   -0.5920   -1.8840 ha        1 DAC      0.129000
     21 H41        -0.0870   -1.2000   -1.8000 hc        1 DAC      0.076200
     22 H42        -0.2740    0.5820   -1.6840 hc        1 DAC      0.076200
     23 H51        -1.7120    0.5730   -3.7700 hc        1 DAC      0.040700
     24 H52        -1.5240   -1.2200   -3.8860 hc        1 DAC      0.040700
     25 H61         0.9750   -0.9480   -4.0420 hc        1 DAC      0.043200
     26 H62         0.7870    0.8440   -3.9260 hc        1 DAC      0.043200
     27 H71        -0.6310    0.8310   -6.0080 hc        1 DAC      0.039700
     28 H72        -0.4440   -0.9610   -6.1240 hc        1 DAC      0.039700
     29 H81         2.0550   -0.6900   -6.2810 hc        1 DAC      0.040700
     30 H82         1.8680    1.1020   -6.1650 hc        1 DAC      0.040700
     31 H91         0.4490    1.0890   -8.2440 hc        1 DAC      0.038700
     32 H92         0.6360   -0.7030   -8.3610 hc        1 DAC      0.038700
     33 H101        2.2520    0.4720   -9.8550 hc        1 DAC      0.032700
     34 H102        2.9450    1.3640   -8.4390 hc        1 DAC      0.032700
     35 H103        3.1320   -0.4320   -8.5560 hc        1 DAC      0.032700
     36 H1'1       -0.1280   -1.5080    4.3010 h1        1 DAC      0.090200
     37 H1'2        0.8270   -0.8150    2.9200 h1        1 DAC      0.090200
     38 H2'1       -0.0610    1.5040    3.5400 h1        1 DAC      0.072700
     39 H2'2       -0.8910    0.7590    4.9920 h1        1 DAC      0.072700
     40 HN'         2.0470    0.9310    4.5690 hn        1 DAC      0.305500
     41 H5'1        2.4650    0.6020    8.2020 hc        1 DAC      0.066033
     42 H5'2        3.3130    0.0480    6.6920 hc        1 DAC      0.066033
     43 H5'3        2.9940    1.8190    6.9600 hc        1 DAC      0.066033
@<TRIPOS>BOND
     1    1    2 2   
     2    1    3 1   
     3    1   12 1   
     4    3    4 2   
     5    3   19 1   
     6    4    5 1   
     7    4   20 1   
     8    5    6 1   
     9    5   21 1   
    10    5   22 1   
    11    6    7 1   
    12    6   23 1   
    13    6   24 1   
    14    7    8 1   
    15    7   25 1   
    16    7   26 1   
    17    8    9 1   
    18    8   27 1   
    19    8   28 1   
    20    9   10 1   
    21    9   29 1   
    22    9   30 1   
    23   10   11 1   
    24   10   31 1   
    25   10   32 1   
    26   11   33 1   
    27   11   34 1   
    28   11   35 1   
    29   12   13 1   
    30   13   14 1   
    31   13   36 1   
    32   13   37 1   
    33   14   15 1   
    34   14   38 1   
    35   14   39 1   
    36   15   16 1   
    37   15   40 1   
    38   16   17 2   
    39   16   18 1   
    40   18   41 1   
    41   18   42 1   
    42   18   43 1   
@<TRIPOS>SUBSTRUCTURE
     1 DAC         1 TEMP              0 ****  ****    0 ROOT
