@<TRIPOS>MOLECULE
DAC
   43    40     1     0     0
SMALL
bcc


@<TRIPOS>ATOM
      1 C1         -0.1470   -1.8300   -0.5100 c1        1 DAC      0.136000
      2 O1          0.9870   -1.5110   -0.8070 o         1 DAC     -0.310000
      3 C2         -0.5360   -1.9740    0.9450 c1        1 DAC     -0.153500
      4 C3         -0.3430   -0.9490    1.7990 c1        1 DAC     -0.153500
      5 C4          0.2620    0.3460    1.3020 c2        1 DAC     -0.157000
      6 C5          0.2490    1.3680    2.4170 c3        1 DAC     -0.157000
      7 C6          1.0560    2.5780    2.0010 c3        1 DAC     -0.158000
      8 C7          1.0250    3.6100    3.1060 c3        1 DAC     -0.158000
      9 C8          1.8490    4.8120    2.6980 c3        1 DAC     -0.158000
     10 C9          1.8110    5.8470    3.8000 c3        1 DAC     -0.159000
     11 C10         2.5510    7.0880    3.3520 c3        1 DAC     -0.211000
     12 S          -1.3440   -2.1350   -1.7820 ss        1 DAC      0.132000
     13 C1'        -0.8970   -3.6000   -2.6750 c3        1 DAC     -0.324000
     14 C2'        -1.8890   -3.8320   -3.7930 c3        1 DAC     -0.020000
     15 N3'        -1.6640   -5.1120   -4.3690 n         1 DAC     -0.381000
     16 C4'        -2.6290   -5.6770   -5.2410 c2        1 DAC      0.297000
     17 O4'        -3.6560   -5.0740   -5.4840 o         1 DAC     -0.364000
     18 C5'        -2.3750   -7.0260   -5.8790 c3        1 DAC     -0.243000
     19 H2         -0.9260   -2.8090    1.2660 ha        1 DAC      0.139500
     20 H3         -0.5940   -1.0420    2.7380 ha        1 DAC      0.139500
     21 H41        -0.2610    0.6810    0.5470 ha        1 DAC      0.115500
     22 H42         1.1830    0.1860    1.0160 ha        1 DAC      0.115500
     23 H51         0.6410    0.9760    3.2230 hc        1 DAC      0.080000
     24 H52        -0.6720    1.6390    2.6010 hc        1 DAC      0.080000
     25 H61         0.6730    2.9610    1.1860 hc        1 DAC      0.082500
     26 H62         1.9820    2.3100    1.8310 hc        1 DAC      0.082500
     27 H71         0.1010    3.8880    3.2670 hc        1 DAC      0.079000
     28 H72         1.3960    3.2230    3.9240 hc        1 DAC      0.079000
     29 H81         2.7740    4.5350    2.5420 hc        1 DAC      0.080000
     30 H82         1.4810    5.1960    1.8770 hc        1 DAC      0.080000
     31 H91         2.2370    5.4850    4.6030 hc        1 DAC      0.078000
     32 H92         0.8810    6.0770    4.0000 hc        1 DAC      0.078000
     33 H101        3.4370    6.8370    3.0170 hc        1 DAC      0.072000
     34 H102        2.6500    7.7020    4.1100 hc        1 DAC      0.072000
     35 H103        2.0450    7.5300    2.6380 hc        1 DAC      0.072000
     36 H1'1       -0.9050   -4.3670   -2.0680 h1        1 DAC      0.129500
     37 H1'2       -0.0010   -3.4920   -3.0510 h1        1 DAC      0.129500
     38 H2'1       -2.8000   -3.7900   -3.4350 h1        1 DAC      0.112000
     39 H2'2       -1.7760   -3.1410   -4.4780 h1        1 DAC      0.112000
     40 HN'        -0.8950   -5.5660   -4.1840 hn        1 DAC      0.219000
     41 H5'1       -1.5370   -6.9940   -6.3860 hc        1 DAC      0.105333
     42 H5'2       -3.1140   -7.2450   -6.4840 hc        1 DAC      0.105333
     43 H5'3       -2.3100   -7.7100   -5.1810 hc        1 DAC      0.105333
@<TRIPOS>BOND
     1    1    2 1   
     2    1   12 1   
     3    3    4 1   
     4    3   19 1   
     5    4   20 1   
     6    5    6 1   
     7    5   21 1   
     8    5   22 1   
     9    6    7 1   
    10    6   23 1   
    11    6   24 1   
    12    7    8 1   
    13    7   25 1   
    14    7   26 1   
    15    8    9 1   
    16    8   27 1   
    17    8   28 1   
    18    9   10 1   
    19    9   29 1   
    20    9   30 1   
    21   10   11 1   
    22   10   31 1   
    23   10   32 1   
    24   11   33 1   
    25   11   34 1   
    26   11   35 1   
    27   12   13 1   
    28   13   14 1   
    29   13   36 1   
    30   13   37 1   
    31   14   15 1   
    32   14   38 1   
    33   14   39 1   
    34   15   16 1   
    35   15   40 1   
    36   16   17 1   
    37   16   18 1   
    38   18   41 1   
    39   18   42 1   
    40   18   43 1   
@<TRIPOS>SUBSTRUCTURE
     1 DAC         1 TEMP              0 ****  ****    0 ROOT
