@<TRIPOS>MOLECULE
DAC
   44    43     1     0     0
SMALL
bcc


@<TRIPOS>ATOM
      1 C1         -0.6670    0.9780   -1.0030 c         1 DAC      0.591900
      2 O1          0.5110    1.2060   -1.3450 o         1 DAC     -0.644100
      3 C2         -1.1650    0.9630    0.3590 ce        1 DAC     -0.312200
      4 C3         -0.4300    1.2560    1.4480 c2        1 DAC      0.010800
      5 C4          0.9980    1.6320    1.4340 c3        1 DAC     -0.081200
      6 C5          1.5420    1.9010    2.8220 c3        1 DAC     -0.083400
      7 C6          3.0050    2.2840    2.7660 c3        1 DAC     -0.077400
      8 C7          3.5530    2.5520    4.1520 c3        1 DAC     -0.080400
      9 C8          5.0160    2.9340    4.0980 c3        1 DAC     -0.078400
     10 C9          5.5650    3.2020    5.4840 c3        1 DAC     -0.080400
     11 C10         7.0220    3.5820    5.4360 c3        1 DAC     -0.094100
     12 S          -1.9560    0.5880   -2.0850 ss        1 DAC     -0.142700
     13 C1'        -1.3480    0.8160   -3.7200 c3        1 DAC     -0.088300
     14 C2'        -0.1780   -0.0670   -4.1170 c3        1 DAC      0.122800
     15 N3'         1.1390    0.6380   -4.0730 ny        1 DAC     -0.697800
     16 C4'         2.2960   -0.3450   -4.0800 c         1 DAC      0.558100
     17 O4'         2.8590   -0.4720   -5.1550 o         1 DAC     -0.406100
     18 C5'         2.5960   -1.0120   -2.7840 c3        1 DAC     -0.189100
     19 H2         -2.2340    0.6990    0.4690 ha        1 DAC      0.166000
     20 H3         -0.9150    1.2230    2.4440 ha        1 DAC      0.153000
     21 H41         1.5910    0.8120    0.9410 hc        1 DAC      0.072700
     22 H42         1.1330    2.5430    0.7850 hc        1 DAC      0.072700
     23 H51         1.4160    0.9880    3.4620 hc        1 DAC      0.052200
     24 H52         0.9560    2.7280    3.3040 hc        1 DAC      0.052200
     25 H61         3.1320    3.1980    2.1280 hc        1 DAC      0.039200
     26 H62         3.5930    1.4580    2.2830 hc        1 DAC      0.039200
     27 H71         3.4250    1.6380    4.7900 hc        1 DAC      0.045700
     28 H72         2.9660    3.3770    4.6350 hc        1 DAC      0.045700
     29 H81         5.6040    2.1090    3.6150 hc        1 DAC      0.038700
     30 H82         5.1440    3.8480    3.4610 hc        1 DAC      0.038700
     31 H91         5.4350    2.2870    6.1210 hc        1 DAC      0.042200
     32 H92         4.9760    4.0260    5.9650 hc        1 DAC      0.042200
     33 H101        7.4060    3.7750    6.4670 hc        1 DAC      0.035700
     34 H102        7.1700    4.5060    4.8260 hc        1 DAC      0.035700
     35 H103        7.6300    2.7620    4.9820 hc        1 DAC      0.035700
     36 H1'1       -1.1400    1.8990   -3.9160 h1        1 DAC      0.120200
     37 H1'2       -2.2310    0.5380   -4.3620 h1        1 DAC      0.120200
     38 H2'1       -0.3200   -0.4480   -5.1710 hx        1 DAC      0.113200
     39 H2'2       -0.1170   -0.9550   -3.4210 hx        1 DAC      0.113200
     40 HN'         1.2140    1.2640   -4.8850 hn        1 DAC      0.472800
     41 H5'1        2.2290   -0.4350   -1.8960 hc        1 DAC      0.118700
     42 H5'2        2.1230   -2.0300   -2.7830 hc        1 DAC      0.118700
     43 H5'3        3.7090   -1.1410   -2.7020 hc        1 DAC      0.118700
     44 H3'2        1.1930    1.2100   -3.2100 hn        1 DAC      0.472800
@<TRIPOS>BOND
     1    1    2 2   
     2    1    3 1   
     3    1   12 1   
     4    3    4 2   
     5    3   19 1   
     6    4    5 1   
     7    4   20 1   
     8    5    6 1   
     9    5   21 1   
    10    5   22 1   
    11    6    7 1   
    12    6   23 1   
    13    6   24 1   
    14    7    8 1   
    15    7   25 1   
    16    7   26 1   
    17    8    9 1   
    18    8   27 1   
    19    8   28 1   
    20    9   10 1   
    21    9   29 1   
    22    9   30 1   
    23   10   11 1   
    24   10   31 1   
    25   10   32 1   
    26   11   33 1   
    27   11   34 1   
    28   11   35 1   
    29   12   13 1   
    30   13   14 1   
    31   13   36 1   
    32   13   37 1   
    33   14   15 1   
    34   14   38 1   
    35   14   39 1   
    36   15   16 1   
    37   15   40 1   
    38   15   44 1   
    39   16   17 2   
    40   16   18 1   
    41   18   41 1   
    42   18   42 1   
    43   18   43 1   
@<TRIPOS>SUBSTRUCTURE
     1 DAC         1 TEMP              0 ****  ****    0 ROOT
