@<TRIPOS>MOLECULE
DAC
   44    43     1     0     0
SMALL
bcc


@<TRIPOS>ATOM
      1 C1         -0.1250   -0.4150   -0.4730 c         1 DAC      0.593900
      2 O1          1.0030   -0.0430   -0.8310 o         1 DAC     -0.584100
      3 C2         -0.7890   -0.1150    0.7810 ce        1 DAC     -0.310200
      4 C3         -0.2330    0.5790    1.7910 c2        1 DAC      0.002800
      5 C4          1.1300    1.1500    1.7780 c3        1 DAC     -0.082200
      6 C5          1.4930    1.8130    3.0900 c3        1 DAC     -0.082400
      7 C6          2.8940    2.3850    3.0380 c3        1 DAC     -0.077400
      8 C7          3.2610    3.0490    4.3480 c3        1 DAC     -0.080400
      9 C8          4.6620    3.6210    4.2990 c3        1 DAC     -0.078400
     10 C9          5.0300    4.2850    5.6090 c3        1 DAC     -0.080400
     11 C10         6.4240    4.8560    5.5650 c3        1 DAC     -0.094100
     12 S          -1.1750   -1.3870   -1.4710 ss        1 DAC     -0.168700
     13 C1'        -0.1460   -1.8100   -2.8330 c3        1 DAC     -0.079300
     14 C2'         0.1090   -0.5890   -3.6990 c3        1 DAC      0.109800
     15 N3'         1.2280   -0.7890   -4.6730 n4        1 DAC     -0.688800
     16 C4'         1.5520    0.5070   -5.4010 c         1 DAC      0.555100
     17 O4'         1.0130    0.6370   -6.4860 o         1 DAC     -0.395100
     18 C5'         2.4940    1.4240   -4.7030 c3        1 DAC     -0.189100
     19 H2         -1.8170   -0.5120    0.8790 ha        1 DAC      0.161000
     20 H3         -0.8230    0.7460    2.7130 ha        1 DAC      0.150000
     21 H41         1.2080    1.8940    0.9360 hc        1 DAC      0.075200
     22 H42         1.8720    0.3360    1.5390 hc        1 DAC      0.075200
     23 H51         1.4230    1.0660    3.9240 hc        1 DAC      0.049700
     24 H52         0.7610    2.6330    3.3150 hc        1 DAC      0.049700
     25 H61         2.9660    3.1320    2.2050 hc        1 DAC      0.040200
     26 H62         3.6270    1.5660    2.8130 hc        1 DAC      0.040200
     27 H71         2.5280    3.8680    4.5740 hc        1 DAC      0.044200
     28 H72         3.1890    2.3020    5.1820 hc        1 DAC      0.044200
     29 H81         5.3950    2.8020    4.0740 hc        1 DAC      0.039200
     30 H82         4.7340    4.3690    3.4660 hc        1 DAC      0.039200
     31 H91         4.2950    5.1020    5.8330 hc        1 DAC      0.041200
     32 H92         4.9560    3.5360    6.4410 hc        1 DAC      0.041200
     33 H101        6.6750    5.3400    6.5390 hc        1 DAC      0.035367
     34 H102        7.1740    4.0530    5.3670 hc        1 DAC      0.035367
     35 H103        6.5110    5.6230    4.7580 hc        1 DAC      0.035367
     36 H1'1        0.8160   -2.2410   -2.4530 h1        1 DAC      0.106700
     37 H1'2       -0.6900   -2.6070   -3.4010 h1        1 DAC      0.106700
     38 H2'1        0.3940    0.2860   -3.0390 hx        1 DAC      0.121700
     39 H2'2       -0.8160   -0.3220   -4.2880 hx        1 DAC      0.121700
     40 HN'         0.9550   -1.5080   -5.3540 hn        1 DAC      0.458800
     41 H5'1        2.2520    1.5310   -3.6150 hc        1 DAC      0.119033
     42 H5'2        2.4350    2.4340   -5.1910 hc        1 DAC      0.119033
     43 H5'3        3.5430    1.0400   -4.8080 hc        1 DAC      0.119033
     44 H3'2        2.0590   -1.1130   -4.1680 hn        1 DAC      0.458800
@<TRIPOS>BOND
     1    1    2 2   
     2    1    3 1   
     3    1   12 1   
     4    3    4 2   
     5    3   19 1   
     6    4    5 1   
     7    4   20 1   
     8    5    6 1   
     9    5   21 1   
    10    5   22 1   
    11    6    7 1   
    12    6   23 1   
    13    6   24 1   
    14    7    8 1   
    15    7   25 1   
    16    7   26 1   
    17    8    9 1   
    18    8   27 1   
    19    8   28 1   
    20    9   10 1   
    21    9   29 1   
    22    9   30 1   
    23   10   11 1   
    24   10   31 1   
    25   10   32 1   
    26   11   33 1   
    27   11   34 1   
    28   11   35 1   
    29   12   13 1   
    30   13   14 1   
    31   13   36 1   
    32   13   37 1   
    33   14   15 1   
    34   14   38 1   
    35   14   39 1   
    36   15   16 1   
    37   15   40 1   
    38   15   44 1   
    39   16   17 2   
    40   16   18 1   
    41   18   41 1   
    42   18   42 1   
    43   18   43 1   
@<TRIPOS>SUBSTRUCTURE
     1 DAC         1 TEMP              0 ****  ****    0 ROOT
