@<TRIPOS>MOLECULE
DAF
   39    39     1     0     0
SMALL
bcc


@<TRIPOS>ATOM
      1 C1         -2.9570    1.9340   -1.6130 c3        1 DAF      0.138000
      2 O1         -3.6890    1.5220   -2.5610 oh        1 DAF     -0.343000
      3 C2         -1.4670    2.0240   -2.0670 c3        1 DAF     -0.025000
      4 O2         -1.1200    0.8150   -2.6980 oh        1 DAF     -0.321000
      5 C3         -0.4870    2.2750   -0.9440 c3        1 DAF     -0.007000
      6 O3         -0.7470    3.6120   -0.3880 oh        1 DAF     -0.318000
      7 C4         -0.5640    1.2980    0.1440 c3        1 DAF      0.009000
      8 N4          0.0660   -0.0690   -0.2880 n3        1 DAF     -0.288000
      9 C5         -1.9280    1.1530    0.6030 c2        1 DAF      0.035000
     10 O5         -2.9210    0.8840   -0.4380 os        1 DAF     -0.266000
     11 C6         -2.2680    1.2600    1.9300 c1        1 DAF     -0.217000
     12 C1H         1.3650   -0.2630    0.4150 c3        1 DAF     -0.013000
     13 C2H         2.2060   -1.3200   -0.2890 c3        1 DAF      0.043000
     14 O2H         2.2680   -0.9630   -1.7290 oh        1 DAF     -0.320000
     15 C3H         1.7570   -2.7390   -0.1920 c3        1 DAF     -0.050000
     16 O3H         2.6950   -3.6260   -0.9250 oh        1 DAF     -0.334000
     17 C4H         1.5540   -3.2080    1.2690 c2        1 DAF      0.252000
     18 O4H         1.9070   -4.3110    1.5990 o         1 DAF     -0.294000
     19 C5H         1.2400   -2.1040    2.3830 c2        1 DAF     -0.267000
     20 C6H         1.1340   -0.5770    1.9150 c2        1 DAF      0.000000
     21 C7H         1.4480   -2.4360    3.8630 c2        1 DAF      0.224000
     22 O7H         1.8540   -3.5410    4.1890 o         1 DAF     -0.291000
     23 H1         -3.2740    2.8120   -1.2860 h2        1 DAF      0.107000
     24 HO1        -4.4950    1.8590   -2.4770 ho        1 DAF      0.242000
     25 H2         -1.3840    2.7540   -2.7220 h1        1 DAF      0.091000
     26 HO2        -1.0510    0.9460   -3.5650 ho        1 DAF      0.230000
     27 H3          0.4300    2.2610   -1.3160 h1        1 DAF      0.100000
     28 HO3        -0.1180    4.1720   -0.6630 ho        1 DAF      0.207000
     29 H4          0.0220    1.5480    0.8870 h1        1 DAF      0.122000
     30 HN4         0.2050   -0.0670   -1.1820 hn        1 DAF      0.211000
     31 H6         -3.2020    1.1570    2.2070 DU        1 DAF      0.132000
     32 H6A        -1.5700    1.4430    2.6050 ha        1 DAF      0.132000
     33 H1H         1.7550    0.5970    0.3110 h1        1 DAF      0.095000
     34 H2H         3.1210   -1.2690    0.0760 h1        1 DAF      0.096000
     35 HO2H        3.1100   -1.0200   -2.0120 ho        1 DAF      0.232000
     36 H3H         0.9200   -2.8810   -0.7120 h1        1 DAF      0.134000
     37 HO3H        2.2290   -4.2500   -1.3720 ho        1 DAF      0.233000
     38 H6H         0.7030    0.0850    2.4950 ha        1 DAF      0.158000
     39 H7H         1.2540   -1.7660    4.5460 h4        1 DAF      0.127000
@<TRIPOS>BOND
     1    1    2 1   
     2    1    3 1   
     3    1   10 1   
     4    1   23 1   
     5    2   24 1   
     6    3    4 1   
     7    3    5 1   
     8    3   25 1   
     9    4   26 1   
    10    5    6 1   
    11    5    7 1   
    12    5   27 1   
    13    6   28 1   
    14    7    8 1   
    15    7    9 1   
    16    7   29 1   
    17    8   12 1   
    18    8   30 1   
    19    9   10 1   
    20    9   11 1   
    21   11   32 1   
    22   12   13 1   
    23   12   20 1   
    24   12   33 1   
    25   13   14 1   
    26   13   15 1   
    27   13   34 1   
    28   14   35 1   
    29   15   16 1   
    30   15   17 1   
    31   15   36 1   
    32   16   37 1   
    33   17   18 1   
    34   17   19 1   
    35   19   20 1   
    36   19   21 1   
    37   20   38 1   
    38   21   22 1   
    39   21   39 1   
@<TRIPOS>SUBSTRUCTURE
     1 DAF         1 TEMP              0 ****  ****    0 ROOT
