@<TRIPOS>MOLECULE
DAF
   39    40     1     0     0
SMALL
bcc


@<TRIPOS>ATOM
      1 C1          3.5050   -1.0540    0.3320 c3        1 DAF      0.320900
      2 O1          3.6470   -1.7820    1.5260 oh        1 DAF     -0.612800
      3 C2          3.6010    0.4450    0.6670 c3        1 DAF      0.090100
      4 O2          2.8930    0.7830    1.8450 oh        1 DAF     -0.595800
      5 C3          3.0170    1.3080   -0.4660 c3        1 DAF      0.140100
      6 O3          3.8710    1.2630   -1.5970 oh        1 DAF     -0.592800
      7 C4          1.6330    0.7850   -0.9460 c3        1 DAF      0.217700
      8 N4          0.6050    1.2140   -0.0160 n3        1 DAF     -0.819200
      9 C5          1.7340   -0.7050   -1.1890 c2        1 DAF      0.017900
     10 O5          2.2110   -1.4610   -0.1200 os        1 DAF     -0.396900
     11 C6          1.3690   -1.3330   -2.3120 c2        1 DAF     -0.217000
     12 C1H        -0.7470    0.7850   -0.3110 c3        1 DAF      0.204700
     13 C2H        -1.7750    1.7070    0.4100 c3        1 DAF      0.157100
     14 O2H        -1.5330    1.6150    1.8050 oh        1 DAF     -0.594800
     15 C3H        -3.2330    1.2890    0.1260 c3        1 DAF      0.012100
     16 O3H        -3.7790    2.2950   -0.7120 oh        1 DAF     -0.598800
     17 C4H        -3.3910   -0.0940   -0.4880 c         1 DAF      0.560300
     18 O4H        -4.3210   -0.3280   -1.2630 o         1 DAF     -0.506100
     19 C5H        -2.3610   -1.0710   -0.0910 ce        1 DAF     -0.301400
     20 C6H        -1.0850   -0.6490    0.0010 c2        1 DAF     -0.062200
     21 C7H        -2.7450   -2.4590    0.2110 c         1 DAF      0.584100
     22 O7H        -3.8870   -2.8080    0.5080 o         1 DAF     -0.505100
     23 H1          4.2810   -1.3500   -0.4270 h2        1 DAF      0.066700
     24 HO1         3.1650   -2.6160    1.4310 ho        1 DAF      0.440000
     25 H2          4.6910    0.6950    0.8100 h1        1 DAF      0.053700
     26 HO2         3.0620    0.0840    2.4940 ho        1 DAF      0.432000
     27 H3          2.9170    2.3670   -0.0940 h1        1 DAF      0.079700
     28 HO3         4.6400    1.8080   -1.3860 ho        1 DAF      0.410000
     29 H4          1.4140    1.2780   -1.9410 h1        1 DAF      0.087700
     30 HN4         0.8520    1.0150    0.9390 hn        1 DAF      0.408800
     31 H6          0.9100   -0.7900   -3.1480 ha        1 DAF      0.133000
     32 H6A         1.4960   -2.4140   -2.4460 ha        1 DAF      0.133000
     33 H1H        -0.9200    0.9370   -1.4230 h1        1 DAF      0.084700
     34 H2H        -1.6280    2.7640    0.0480 h1        1 DAF      0.083700
     35 HO2H       -1.8740    2.4260    2.2010 ho        1 DAF      0.413000
     36 H3H        -3.8040    1.2780    1.1030 h1        1 DAF      0.077700
     37 HO3H       -4.5720    1.9290   -1.1300 ho        1 DAF      0.429000
     38 H6H        -0.2610   -1.3230    0.2910 ha        1 DAF      0.160000
     39 H7H        -1.9050   -3.1900    0.1660 h4        1 DAF      0.000200
@<TRIPOS>BOND
     1    1    2 1   
     2    1    3 1   
     3    1   10 1   
     4    1   23 1   
     5    2   24 1   
     6    3    4 1   
     7    3    5 1   
     8    3   25 1   
     9    4   26 1   
    10    5    6 1   
    11    5    7 1   
    12    5   27 1   
    13    6   28 1   
    14    7    8 1   
    15    7    9 1   
    16    7   29 1   
    17    8   12 1   
    18    8   30 1   
    19    9   10 1   
    20    9   11 2   
    21   11   31 1   
    22   11   32 1   
    23   12   13 1   
    24   12   20 1   
    25   12   33 1   
    26   13   14 1   
    27   13   15 1   
    28   13   34 1   
    29   14   35 1   
    30   15   16 1   
    31   15   17 1   
    32   15   36 1   
    33   16   37 1   
    34   17   18 2   
    35   17   19 1   
    36   19   20 2   
    37   19   21 1   
    38   20   38 1   
    39   21   22 2   
    40   21   39 1   
@<TRIPOS>SUBSTRUCTURE
     1 DAF         1 TEMP              0 ****  ****    0 ROOT
