@<TRIPOS>MOLECULE
DAG
   24    24     1     0     0
SMALL
bcc


@<TRIPOS>ATOM
      1 C1          1.0290    0.4050   -1.1440 c3        1 DAG      0.311900
      2 C2         -0.4270   -0.0970   -1.2070 c3        1 DAG      0.053100
      3 C3         -1.1700    0.3270    0.0660 c3        1 DAG      0.104100
      4 C4         -0.4000   -0.1870    1.3130 c3        1 DAG      0.140500
      5 C5          1.0430    0.3750    1.2440 c3        1 DAG      0.157100
      6 C6          1.9140   -0.1530    2.3660 c3        1 DAG     -0.084100
      7 O1          1.8050   -0.1500   -2.1720 oh        1 DAG     -0.599800
      8 O2         -1.1120    0.4930   -2.2980 oh        1 DAG     -0.604800
      9 O3         -2.4640   -0.2470    0.1090 oh        1 DAG     -0.603800
     10 N4         -1.0420    0.1150    2.5720 n3        1 DAG     -0.889800
     11 O5          1.6740   -0.0530    0.0320 os        1 DAG     -0.450600
     12 H1          1.0850    1.5230   -1.2530 h2        1 DAG      0.081700
     13 H2         -0.4440   -1.2180   -1.3110 h1        1 DAG      0.062700
     14 H3         -1.2600    1.4500    0.0860 h1        1 DAG      0.046700
     15 H4         -0.3390   -1.3130    1.2310 h1        1 DAG      0.083700
     16 H5          1.0170    1.5010    1.2570 h1        1 DAG      0.040700
     17 H61         2.9770    0.1390    2.1890 hc        1 DAG      0.052700
     18 H62         1.5710    0.2730    3.3380 hc        1 DAG      0.052700
     19 H63         1.8530   -1.2660    2.4150 hc        1 DAG      0.052700
     20 HO1         2.1280   -1.0130   -1.8770 ho        1 DAG      0.429000
     21 HO2        -0.5720    0.3300   -3.0830 ho        1 DAG      0.423000
     22 HO3        -2.8930   -0.0250   -0.7290 ho        1 DAG      0.425000
     23 HN41       -1.1530    1.1040    2.6850 hn        1 DAG      0.357300
     24 HN42       -1.9460   -0.3180    2.5970 hn        1 DAG      0.357300
@<TRIPOS>BOND
     1    1    2 1   
     2    1    7 1   
     3    1   11 1   
     4    1   12 1   
     5    2    3 1   
     6    2    8 1   
     7    2   13 1   
     8    3    4 1   
     9    3    9 1   
    10    3   14 1   
    11    4    5 1   
    12    4   10 1   
    13    4   15 1   
    14    5    6 1   
    15    5   11 1   
    16    5   16 1   
    17    6   17 1   
    18    6   18 1   
    19    6   19 1   
    20    7   20 1   
    21    8   21 1   
    22    9   22 1   
    23   10   23 1   
    24   10   24 1   
@<TRIPOS>SUBSTRUCTURE
     1 DAG         1 TEMP              0 ****  ****    0 ROOT
