@<TRIPOS>MOLECULE
DAG
   24    24     1     0     0
SMALL
bcc


@<TRIPOS>ATOM
      1 C1         -1.0000   -0.6110   -1.4160 c3        1 DAG      0.311900
      2 C2          0.5140   -0.6110   -1.4160 c3        1 DAG      0.053100
      3 C3          1.0770   -0.6110   -0.0440 c3        1 DAG      0.104100
      4 C4          0.5010    0.4730    0.8020 c3        1 DAG      0.140500
      5 C5         -1.0180    0.4700    0.7910 c3        1 DAG      0.157100
      6 C6         -1.5090    1.6870    1.5080 c3        1 DAG     -0.084100
      7 O1         -1.4470   -0.4400   -2.7120 oh        1 DAG     -0.599800
      8 O2          0.9790   -1.7840   -2.1110 oh        1 DAG     -0.604800
      9 O3          2.5150   -0.4280   -0.1270 oh        1 DAG     -0.603800
     10 N4          0.9600    0.2970    2.1660 n3        1 DAG     -0.889800
     11 O5         -1.5690    0.4660   -0.5650 os        1 DAG     -0.450600
     12 H1         -1.3150   -1.4740   -1.0850 h2        1 DAG      0.081700
     13 H2          0.8300    0.1830   -1.8880 h1        1 DAG      0.062700
     14 H3          0.8910   -1.4730    0.3750 h1        1 DAG      0.046700
     15 H4          0.8180    1.3350    0.4710 h1        1 DAG      0.083700
     16 H5         -1.3350   -0.3230    1.2620 h1        1 DAG      0.040700
     17 H61        -1.0750    2.4790    1.1390 hc        1 DAG      0.052700
     18 H62        -2.4760    1.7630    1.3940 hc        1 DAG      0.052700
     19 H63        -1.2980    1.6120    2.4580 hc        1 DAG      0.052700
     20 HO1        -2.2720   -0.7580   -2.7840 ho        1 DAG      0.429000
     21 HO2         1.3840   -1.5420   -2.8630 ho        1 DAG      0.423000
     22 HO3         2.9210   -1.2040    0.0170 ho        1 DAG      0.425000
     23 HN41        1.4140   -0.4910    2.2350 hn        1 DAG      0.357300
     24 HN42        1.5110    0.9870    2.3930 hn        1 DAG      0.357300
@<TRIPOS>BOND
     1    1    2 1   
     2    1    7 1   
     3    1   11 1   
     4    1   12 1   
     5    2    3 1   
     6    2    8 1   
     7    2   13 1   
     8    3    4 1   
     9    3    9 1   
    10    3   14 1   
    11    4    5 1   
    12    4   10 1   
    13    4   15 1   
    14    5    6 1   
    15    5   11 1   
    16    5   16 1   
    17    6   17 1   
    18    6   18 1   
    19    6   19 1   
    20    7   20 1   
    21    8   21 1   
    22    9   22 1   
    23   10   23 1   
    24   10   24 1   
@<TRIPOS>SUBSTRUCTURE
     1 DAG         1 TEMP              0 ****  ****    0 ROOT
