@<TRIPOS>MOLECULE
DAH
   24    24     1     0     0
SMALL
bcc


@<TRIPOS>ATOM
      1 N           2.0010    1.4120    1.1410 n3        1 DAH     -0.885800
      2 CA          1.9130    0.1410    0.4340 c3        1 DAH      0.022500
      3 C           3.2960   -0.5080    0.0870 c         1 DAH      0.886600
      4 O           4.3430    0.0840    0.4730 o         1 DAH     -0.840800
      5 CB          1.0880    0.2240   -0.8560 c3        1 DAH     -0.036100
      6 CG         -0.3760    0.3020   -0.6040 ca        1 DAH     -0.024300
      7 CD1        -1.1020    1.4660   -0.8860 ca        1 DAH     -0.132000
      8 CD2        -1.0470   -0.8150   -0.0910 ca        1 DAH     -0.169000
      9 CE1        -2.4750    1.5310   -0.6670 ca        1 DAH     -0.137000
     10 CE2        -2.4240   -0.7580    0.1330 ca        1 DAH      0.034100
     11 CZ         -3.1480    0.4150   -0.1550 ca        1 DAH      0.075100
     12 OE2        -3.1510   -1.8260    0.6310 oh        1 DAH     -0.535100
     13 OZ         -4.5110    0.5180    0.0350 oh        1 DAH     -0.513100
     14 OXT         3.2790   -1.6030   -0.5400 o         1 DAH     -0.840800
     15 H           2.6960    1.3020    1.8610 hn        1 DAH      0.331300
     16 H2          2.3630    2.1040    0.5080 hn        1 DAH      0.331300
     17 HA          1.3970   -0.5800    1.1350 h1        1 DAH      0.041700
     18 HB2         1.4210    1.1000   -1.4730 hc        1 DAH      0.061700
     19 HB3         1.3130   -0.7110   -1.4440 hc        1 DAH      0.061700
     20 HD1        -0.5750    2.3490   -1.2760 ha        1 DAH      0.133000
     21 HD2        -0.4810   -1.7300    0.1400 ha        1 DAH      0.150000
     22 HE1        -3.0430    2.4460   -0.8840 ha        1 DAH      0.134000
     23 HE2        -2.5160   -2.5060    0.8940 ho        1 DAH      0.425000
     24 HZ         -4.8050   -0.3020    0.4590 ho        1 DAH      0.424000
@<TRIPOS>BOND
     1    1    2 1   
     2    1   15 1   
     3    1   16 1   
     4    2    3 1   
     5    2    5 1   
     6    2   17 1   
     7    3    4 1   
     8    3   14 1   
     9    5    6 1   
    10    5   18 1   
    11    5   19 1   
    12    6    7 ar  
    13    6    8 ar  
    14    7    9 ar  
    15    7   20 1   
    16    8   10 ar  
    17    8   21 1   
    18    9   11 ar  
    19    9   22 1   
    20   10   11 ar  
    21   10   12 1   
    22   11   13 1   
    23   12   23 1   
    24   13   24 1   
@<TRIPOS>SUBSTRUCTURE
     1 DAH         1 TEMP              0 ****  ****    0 ROOT
