@<TRIPOS>MOLECULE
DAI
   53    57     1     0     0
SMALL
bcc


@<TRIPOS>ATOM
      1 O23        -0.0720    0.0390    0.0190 o         1 DAI     -0.584500
      2 C24         1.1610   -0.0120   -0.0020 c         1 DAI      0.709500
      3 C28         2.0860   -0.1300    1.2090 c3        1 DAI     -0.134700
      4 C13         1.8420   -1.4150    2.0200 c3        1 DAI      0.046900
      5 C15         2.1430   -2.5890    1.1280 ca        1 DAI     -0.089300
      6 C16         3.4650   -2.5990    0.6210 ca        1 DAI     -0.074800
      7 C17         3.8890   -3.6430   -0.1890 ca        1 DAI     -0.096000
      8 C18         2.9930   -4.6710   -0.5060 ca        1 DAI     -0.129000
      9 C19         1.6920   -4.6540   -0.0140 ca        1 DAI     -0.126000
     10 C14         1.2590   -3.6100    0.8130 ca        1 DAI     -0.110500
     11 C12         2.9000   -1.4080    3.0920 ca        1 DAI     -0.089300
     12 C11         4.2210   -1.4060    2.5830 ca        1 DAI     -0.074800
     13 C9          5.3000   -1.4150    3.4560 ca        1 DAI     -0.096000
     14 C8          5.0620   -1.4120    4.8370 ca        1 DAI     -0.129000
     15 C7          3.7620   -1.4050    5.3330 ca        1 DAI     -0.126000
     16 C6          2.6680   -1.4050    4.4590 ca        1 DAI     -0.110500
     17 C27         3.5230   -0.1340    0.6230 c3        1 DAI     -0.136700
     18 C10         4.2880   -1.4130    1.0690 c3        1 DAI      0.069600
     19 C5          5.7040   -1.3600    0.5020 c3        1 DAI      0.131400
     20 O4          6.4440   -2.4880    0.9420 oh        1 DAI     -0.595800
     21 C26         3.3190   -0.0210   -0.8910 c         1 DAI      0.710500
     22 O22         4.2060    0.0320   -1.7510 o         1 DAI     -0.597500
     23 N25         1.9410    0.0540   -1.1770 n         1 DAI     -0.505400
     24 C21         1.3970    0.1780   -2.5030 c3        1 DAI      0.099000
     25 C20         1.2320    1.6180   -2.9930 c3        1 DAI     -0.100400
     26 C3          0.6530    1.6170   -4.3910 c3        1 DAI     -0.077400
     27 C2          0.4750    3.0300   -4.9080 c3        1 DAI     -0.079400
     28 C1         -0.1000    3.0390   -6.3010 c3        1 DAI     -0.093100
     29 H28         1.9230    0.7620    1.8670 hc        1 DAI      0.098700
     30 H13         0.8020   -1.4400    2.4260 hc        1 DAI      0.089700
     31 H17         4.9250   -3.6700   -0.5620 ha        1 DAI      0.147000
     32 H18         3.3280   -5.5000   -1.1480 ha        1 DAI      0.133000
     33 H19         0.9960   -5.4670   -0.2690 ha        1 DAI      0.133000
     34 H14         0.2320   -3.6020    1.2060 ha        1 DAI      0.137500
     35 H9          6.3300   -1.4490    3.0690 ha        1 DAI      0.147000
     36 H8          5.9150   -1.4220    5.5310 ha        1 DAI      0.133000
     37 H7          3.5870   -1.4050    6.4190 ha        1 DAI      0.133000
     38 H6          1.6420   -1.4100    4.8530 ha        1 DAI      0.137500
     39 H27         4.0970    0.7660    0.9650 hc        1 DAI      0.096700
     40 H51         5.6540   -1.3370   -0.6220 h1        1 DAI      0.046200
     41 H52         6.2140   -0.4260    0.8680 h1        1 DAI      0.046200
     42 HO4         7.2140   -2.5460    0.3640 ho        1 DAI      0.403000
     43 H211        2.0850   -0.3700   -3.2090 h1        1 DAI      0.068700
     44 H212        0.3880   -0.3270   -2.5070 h1        1 DAI      0.068700
     45 H201        0.5520    2.1830   -2.3020 hc        1 DAI      0.051700
     46 H202        2.2250    2.1390   -2.9940 hc        1 DAI      0.051700
     47 H31         1.3300    1.0480   -5.0810 hc        1 DAI      0.042700
     48 H32        -0.3390    1.0920   -4.3900 hc        1 DAI      0.042700
     49 H21        -0.2010    3.5980   -4.2160 hc        1 DAI      0.040200
     50 H22         1.4670    3.5550   -4.9060 hc        1 DAI      0.040200
     51 H11        -1.1000    2.5400   -6.3180 hc        1 DAI      0.033367
     52 H12         0.5730    2.4980   -7.0090 hc        1 DAI      0.033367
     53 H13A       -0.2230    4.0880   -6.6620 hc        1 DAI      0.033367
@<TRIPOS>BOND
     1    1    2 2   
     2    2    3 1   
     3    2   23 1   
     4    3    4 1   
     5    3   17 1   
     6    3   29 1   
     7    4    5 1   
     8    4   11 1   
     9    4   30 1   
    10    5    6 ar  
    11    5   10 ar  
    12    6    7 ar  
    13    6   18 1   
    14    7    8 ar  
    15    7   31 1   
    16    8    9 ar  
    17    8   32 1   
    18    9   10 ar  
    19    9   33 1   
    20   10   34 1   
    21   11   12 ar  
    22   11   16 ar  
    23   12   13 ar  
    24   12   18 1   
    25   13   14 ar  
    26   13   35 1   
    27   14   15 ar  
    28   14   36 1   
    29   15   16 ar  
    30   15   37 1   
    31   16   38 1   
    32   17   18 1   
    33   17   21 1   
    34   17   39 1   
    35   18   19 1   
    36   19   20 1   
    37   19   40 1   
    38   19   41 1   
    39   20   42 1   
    40   21   22 2   
    41   21   23 1   
    42   23   24 1   
    43   24   25 1   
    44   24   43 1   
    45   24   44 1   
    46   25   26 1   
    47   25   45 1   
    48   25   46 1   
    49   26   27 1   
    50   26   47 1   
    51   26   48 1   
    52   27   28 1   
    53   27   49 1   
    54   27   50 1   
    55   28   51 1   
    56   28   52 1   
    57   28   53 1   
@<TRIPOS>SUBSTRUCTURE
     1 DAI         1 TEMP              0 ****  ****    0 ROOT
