@<TRIPOS>MOLECULE
DAI
   53    57     1     0     0
SMALL
bcc


@<TRIPOS>ATOM
      1 O23        -0.0640   -0.0080    0.0090 o         1 DAI     -0.584500
      2 C24         1.1710   -0.0340   -0.0130 c         1 DAI      0.708500
      3 C28         2.0950   -0.1340    1.2000 c3        1 DAI     -0.135700
      4 C13         1.8730   -1.4240    2.0130 c3        1 DAI      0.045900
      5 C15         2.1940   -2.5930    1.1230 ca        1 DAI     -0.085800
      6 C16         3.5100   -2.5710    0.6020 ca        1 DAI     -0.087300
      7 C17         3.9300   -3.5830   -0.2520 ca        1 DAI     -0.111500
      8 C18         3.0500   -4.6250   -0.5670 ca        1 DAI     -0.126000
      9 C19         1.7620   -4.6510   -0.0400 ca        1 DAI     -0.124000
     10 C14         1.3250   -3.6280    0.8090 ca        1 DAI     -0.108500
     11 C12         2.9290   -1.3990    3.0850 ca        1 DAI     -0.085800
     12 C11         4.2490   -1.3690    2.5750 ca        1 DAI     -0.087300
     13 C9          5.3260   -1.3340    3.4500 ca        1 DAI     -0.111500
     14 C8          5.0870   -1.3310    4.8310 ca        1 DAI     -0.126000
     15 C7          3.7870   -1.3630    5.3270 ca        1 DAI     -0.124000
     16 C6          2.6950   -1.3980    4.4520 ca        1 DAI     -0.108500
     17 C27         3.5330   -0.1120    0.6170 c3        1 DAI     -0.130700
     18 C10         4.3170   -1.3760    1.0600 c3        1 DAI      0.029600
     19 C5          5.7370   -1.3270    0.5000 c3        1 DAI      0.133400
     20 O4          6.6000   -2.3180    1.0170 oh        1 DAI     -0.599800
     21 C26         3.3300   -0.0050   -0.8980 c         1 DAI      0.708500
     22 O22         4.2170    0.0570   -1.7560 o         1 DAI     -0.589500
     23 N25         1.9500    0.0470   -1.1850 n         1 DAI     -0.506400
     24 C21         1.4060    0.1700   -2.5120 c3        1 DAI      0.099000
     25 C20         1.2250    1.6090   -2.9960 c3        1 DAI     -0.100400
     26 C3          0.6480    1.6070   -4.3960 c3        1 DAI     -0.077400
     27 C2          0.4560    3.0190   -4.9080 c3        1 DAI     -0.079400
     28 C1         -0.1180    3.0270   -6.3010 c3        1 DAI     -0.093100
     29 H28         1.9140    0.7540    1.8590 hc        1 DAI      0.099700
     30 H13         0.8320   -1.4660    2.4190 hc        1 DAI      0.090700
     31 H17         4.9380   -3.5700   -0.6950 ha        1 DAI      0.150000
     32 H18         3.3850   -5.4290   -1.2400 ha        1 DAI      0.136000
     33 H19         1.0800   -5.4760   -0.2930 ha        1 DAI      0.135000
     34 H14         0.3030   -3.6430    1.2170 ha        1 DAI      0.139500
     35 H9          6.3600   -1.3220    3.0670 ha        1 DAI      0.150000
     36 H8          5.9400   -1.3070    5.5250 ha        1 DAI      0.136000
     37 H7          3.6120   -1.3640    6.4130 ha        1 DAI      0.135000
     38 H6          1.6690   -1.4250    4.8440 ha        1 DAI      0.139500
     39 H27         4.0910    0.7980    0.9590 hc        1 DAI      0.099700
     40 H51         5.6950   -1.4080   -0.6220 h1        1 DAI      0.066200
     41 H52         6.2280   -0.3540    0.7800 h1        1 DAI      0.066200
     42 HO4         6.1240   -3.1570    1.0150 ho        1 DAI      0.407000
     43 H211        2.1020   -0.3680   -3.2190 h1        1 DAI      0.068200
     44 H212        0.4030   -0.3480   -2.5190 h1        1 DAI      0.068200
     45 H201        0.5380    2.1640   -2.3050 hc        1 DAI      0.052200
     46 H202        2.2120    2.1410   -2.9950 hc        1 DAI      0.052200
     47 H31         1.3330    1.0480   -5.0860 hc        1 DAI      0.042700
     48 H32        -0.3380    1.0700   -4.3980 hc        1 DAI      0.042700
     49 H21         1.4420    3.5550   -4.9020 hc        1 DAI      0.040700
     50 H22        -0.2280    3.5780   -4.2150 hc        1 DAI      0.040700
     51 H11        -1.1120    2.5180   -6.3210 hc        1 DAI      0.033367
     52 H12         0.5620    2.4960   -7.0110 hc        1 DAI      0.033367
     53 H13A       -0.2520    4.0760   -6.6590 hc        1 DAI      0.033367
@<TRIPOS>BOND
     1    1    2 2   
     2    2    3 1   
     3    2   23 1   
     4    3    4 1   
     5    3   17 1   
     6    3   29 1   
     7    4    5 1   
     8    4   11 1   
     9    4   30 1   
    10    5    6 ar  
    11    5   10 ar  
    12    6    7 ar  
    13    6   18 1   
    14    7    8 ar  
    15    7   31 1   
    16    8    9 ar  
    17    8   32 1   
    18    9   10 ar  
    19    9   33 1   
    20   10   34 1   
    21   11   12 ar  
    22   11   16 ar  
    23   12   13 ar  
    24   12   18 1   
    25   13   14 ar  
    26   13   35 1   
    27   14   15 ar  
    28   14   36 1   
    29   15   16 ar  
    30   15   37 1   
    31   16   38 1   
    32   17   18 1   
    33   17   21 1   
    34   17   39 1   
    35   18   19 1   
    36   19   20 1   
    37   19   40 1   
    38   19   41 1   
    39   20   42 1   
    40   21   22 2   
    41   21   23 1   
    42   23   24 1   
    43   24   25 1   
    44   24   43 1   
    45   24   44 1   
    46   25   26 1   
    47   25   45 1   
    48   25   46 1   
    49   26   27 1   
    50   26   47 1   
    51   26   48 1   
    52   27   28 1   
    53   27   49 1   
    54   27   50 1   
    55   28   51 1   
    56   28   52 1   
    57   28   53 1   
@<TRIPOS>SUBSTRUCTURE
     1 DAI         1 TEMP              0 ****  ****    0 ROOT
