@<TRIPOS>MOLECULE
DAI
   53    57     1     0     0
SMALL
bcc


@<TRIPOS>ATOM
      1 O23         1.8120   -1.7430    1.6080 o         1 DAI     -0.584500
      2 C24         1.2330   -0.7680    1.1210 c         1 DAI      0.709500
      3 C28         1.4440   -0.1930   -0.2800 c3        1 DAI     -0.134700
      4 C13         1.1150   -1.2050   -1.3930 c3        1 DAI      0.046900
      5 C15        -0.3430   -1.5560   -1.2840 ca        1 DAI     -0.089300
      6 C16        -1.2100   -0.4420   -1.3920 ca        1 DAI     -0.074800
      7 C17        -2.5850   -0.6260   -1.3420 ca        1 DAI     -0.096000
      8 C18        -3.0970   -1.9170   -1.1700 ca        1 DAI     -0.129000
      9 C19        -2.2430   -3.0100   -1.0540 ca        1 DAI     -0.126000
     10 C14        -0.8550   -2.8340   -1.1150 ca        1 DAI     -0.110500
     11 C12         1.2770   -0.4370   -2.6790 ca        1 DAI     -0.089300
     12 C11         0.4170    0.6830   -2.7800 ca        1 DAI     -0.074800
     13 C9          0.4450    1.4760   -3.9190 ca        1 DAI     -0.096000
     14 C8          1.3390    1.1600   -4.9500 ca        1 DAI     -0.129000
     15 C7          2.1890    0.0640   -4.8430 ca        1 DAI     -0.126000
     16 C6          2.1600   -0.7470   -3.7010 ca        1 DAI     -0.110500
     17 C27         0.4860    1.0240   -0.3670 c3        1 DAI     -0.136700
     18 C10        -0.4820    0.8690   -1.5750 c3        1 DAI      0.069600
     19 C5         -1.3800    2.1020   -1.6450 c3        1 DAI      0.131400
     20 O4         -2.2350    2.0130   -2.7740 oh        1 DAI     -0.595800
     21 C26        -0.2130    1.0590    0.9960 c         1 DAI      0.710500
     22 O22        -1.0490    1.8880    1.3720 o         1 DAI     -0.597500
     23 N25         0.2710    0.0090    1.8010 n         1 DAI     -0.505400
     24 C21        -0.1650   -0.2430    3.1490 c3        1 DAI      0.099000
     25 C20         0.6250    0.5050    4.2250 c3        1 DAI     -0.100400
     26 C3          0.0760    0.1600    5.5930 c3        1 DAI     -0.077400
     27 C2          0.8370    0.8830    6.6840 c3        1 DAI     -0.079400
     28 C1          0.2970    0.5460    8.0490 c3        1 DAI     -0.093100
     29 H28         2.5130    0.1280   -0.3730 hc        1 DAI      0.098700
     30 H13         1.7800   -2.1010   -1.3280 hc        1 DAI      0.089700
     31 H17        -3.2640    0.2330   -1.4560 ha        1 DAI      0.147000
     32 H18        -4.1870   -2.0660   -1.1310 ha        1 DAI      0.133000
     33 H19        -2.6560   -4.0200   -0.9200 ha        1 DAI      0.133000
     34 H14        -0.1810   -3.7000   -1.0290 ha        1 DAI      0.137500
     35 H9         -0.2450    2.3280   -4.0210 ha        1 DAI      0.147000
     36 H8          1.3610    1.7860   -5.8550 ha        1 DAI      0.133000
     37 H7          2.8850   -0.1760   -5.6600 ha        1 DAI      0.133000
     38 H6          2.8250   -1.6190   -3.6220 ha        1 DAI      0.137500
     39 H27         1.0620    1.9780   -0.4870 hc        1 DAI      0.096700
     40 H51        -1.9840    2.1750   -0.6990 h1        1 DAI      0.046200
     41 H52        -0.7390    3.0210   -1.7460 h1        1 DAI      0.046200
     42 HO4        -2.9380    2.6570   -2.6290 ho        1 DAI      0.403000
     43 H211       -0.0780   -1.3520    3.3350 h1        1 DAI      0.068700
     44 H212       -1.2500    0.0570    3.2200 h1        1 DAI      0.068700
     45 H201        0.5520    1.6110    4.0550 hc        1 DAI      0.051700
     46 H202        1.7090    0.2230    4.1700 hc        1 DAI      0.051700
     47 H31         0.1450   -0.9480    5.7590 hc        1 DAI      0.042700
     48 H32        -1.0100    0.4370    5.6450 hc        1 DAI      0.042700
     49 H21         0.7690    1.9910    6.5140 hc        1 DAI      0.040200
     50 H22         1.9230    0.6070    6.6280 hc        1 DAI      0.040200
     51 H11         0.8710    1.0890    8.8380 hc        1 DAI      0.033367
     52 H12        -0.7780    0.8370    8.1310 hc        1 DAI      0.033367
     53 H13A        0.3780   -0.5510    8.2460 hc        1 DAI      0.033367
@<TRIPOS>BOND
     1    1    2 2   
     2    2    3 1   
     3    2   23 1   
     4    3    4 1   
     5    3   17 1   
     6    3   29 1   
     7    4    5 1   
     8    4   11 1   
     9    4   30 1   
    10    5    6 ar  
    11    5   10 ar  
    12    6    7 ar  
    13    6   18 1   
    14    7    8 ar  
    15    7   31 1   
    16    8    9 ar  
    17    8   32 1   
    18    9   10 ar  
    19    9   33 1   
    20   10   34 1   
    21   11   12 ar  
    22   11   16 ar  
    23   12   13 ar  
    24   12   18 1   
    25   13   14 ar  
    26   13   35 1   
    27   14   15 ar  
    28   14   36 1   
    29   15   16 ar  
    30   15   37 1   
    31   16   38 1   
    32   17   18 1   
    33   17   21 1   
    34   17   39 1   
    35   18   19 1   
    36   19   20 1   
    37   19   40 1   
    38   19   41 1   
    39   20   42 1   
    40   21   22 2   
    41   21   23 1   
    42   23   24 1   
    43   24   25 1   
    44   24   43 1   
    45   24   44 1   
    46   25   26 1   
    47   25   45 1   
    48   25   46 1   
    49   26   27 1   
    50   26   47 1   
    51   26   48 1   
    52   27   28 1   
    53   27   49 1   
    54   27   50 1   
    55   28   51 1   
    56   28   52 1   
    57   28   53 1   
@<TRIPOS>SUBSTRUCTURE
     1 DAI         1 TEMP              0 ****  ****    0 ROOT
