@<TRIPOS>MOLECULE
DAI
   53    57     1     0     0
SMALL
bcc


@<TRIPOS>ATOM
      1 O23        -0.0760    0.0410    0.0220 o         1 DAI     -0.584500
      2 C24         1.1570   -0.0090   -0.0010 c         1 DAI      0.709500
      3 C28         2.0840   -0.1210    1.2090 c3        1 DAI     -0.134700
      4 C13         1.8420   -1.4050    2.0250 c3        1 DAI      0.046900
      5 C15         2.1430   -2.5810    1.1370 ca        1 DAI     -0.089300
      6 C16         3.4640   -2.5910    0.6280 ca        1 DAI     -0.074800
      7 C17         3.8880   -3.6380   -0.1790 ca        1 DAI     -0.096000
      8 C18         2.9930   -4.6680   -0.4910 ca        1 DAI     -0.129000
      9 C19         1.6920   -4.6510    0.0030 ca        1 DAI     -0.126000
     10 C14         1.2590   -3.6040    0.8270 ca        1 DAI     -0.110500
     11 C12         2.9010   -1.3920    3.0960 ca        1 DAI     -0.089300
     12 C11         4.2220   -1.3910    2.5850 ca        1 DAI     -0.074800
     13 C9          5.3010   -1.3960    3.4570 ca        1 DAI     -0.096000
     14 C8          5.0650   -1.3880    4.8380 ca        1 DAI     -0.129000
     15 C7          3.7660   -1.3800    5.3360 ca        1 DAI     -0.126000
     16 C6          2.6710   -1.3850    4.4630 ca        1 DAI     -0.110500
     17 C27         3.5200   -0.1270    0.6220 c3        1 DAI     -0.136700
     18 C10         4.2870   -1.4040    1.0710 c3        1 DAI      0.069600
     19 C5          5.7020   -1.3510    0.5020 c3        1 DAI      0.131400
     20 O4          6.4430   -2.4770    0.9450 oh        1 DAI     -0.595800
     21 C26         3.3140   -0.0190   -0.8930 c         1 DAI      0.710500
     22 O22         4.2000    0.0320   -1.7540 o         1 DAI     -0.597500
     23 N25         1.9360    0.0540   -1.1770 n         1 DAI     -0.505400
     24 C21         1.3890    0.1730   -2.5030 c3        1 DAI      0.099000
     25 C20         1.2320    1.6110   -3.0010 c3        1 DAI     -0.100400
     26 C3          0.6510    1.6060   -4.3980 c3        1 DAI     -0.077400
     27 C2          0.4820    3.0170   -4.9230 c3        1 DAI     -0.079400
     28 C1         -0.0960    3.0210   -6.3140 c3        1 DAI     -0.093100
     29 H28         1.9200    0.7730    1.8650 hc        1 DAI      0.098700
     30 H13         0.8020   -1.4290    2.4330 hc        1 DAI      0.089700
     31 H17         4.9230   -3.6660   -0.5530 ha        1 DAI      0.147000
     32 H18         3.3270   -5.4990   -1.1300 ha        1 DAI      0.133000
     33 H19         0.9960   -5.4650   -0.2480 ha        1 DAI      0.133000
     34 H14         0.2330   -3.5950    1.2210 ha        1 DAI      0.137500
     35 H9          6.3310   -1.4310    3.0680 ha        1 DAI      0.147000
     36 H8          5.9200   -1.3950    5.5310 ha        1 DAI      0.133000
     37 H7          3.5930   -1.3770    6.4220 ha        1 DAI      0.133000
     38 H6          1.6450   -1.3890    4.8580 ha        1 DAI      0.137500
     39 H27         4.0940    0.7750    0.9590 hc        1 DAI      0.096700
     40 H51         5.6500   -1.3320   -0.6220 h1        1 DAI      0.046200
     41 H52         6.2120   -0.4160    0.8640 h1        1 DAI      0.046200
     42 HO4         7.2130   -2.5370    0.3660 ho        1 DAI      0.403000
     43 H211        2.0720   -0.3830   -3.2070 h1        1 DAI      0.068700
     44 H212        0.3770   -0.3260   -2.5020 h1        1 DAI      0.068700
     45 H201        2.2290    2.1260   -3.0070 hc        1 DAI      0.051700
     46 H202        0.5580    2.1850   -2.3120 hc        1 DAI      0.051700
     47 H31         1.3230    1.0290   -5.0860 hc        1 DAI      0.042700
     48 H32        -0.3440    1.0870   -4.3920 hc        1 DAI      0.042700
     49 H21         1.4770    3.5350   -4.9260 hc        1 DAI      0.040200
     50 H22        -0.1890    3.5940   -4.2340 hc        1 DAI      0.040200
     51 H11         0.5710    2.4710   -7.0210 hc        1 DAI      0.033367
     52 H12        -1.0990    2.5300   -6.3270 hc        1 DAI      0.033367
     53 H13A       -0.2130    4.0690   -6.6820 hc        1 DAI      0.033367
@<TRIPOS>BOND
     1    1    2 2   
     2    2    3 1   
     3    2   23 1   
     4    3    4 1   
     5    3   17 1   
     6    3   29 1   
     7    4    5 1   
     8    4   11 1   
     9    4   30 1   
    10    5    6 ar  
    11    5   10 ar  
    12    6    7 ar  
    13    6   18 1   
    14    7    8 ar  
    15    7   31 1   
    16    8    9 ar  
    17    8   32 1   
    18    9   10 ar  
    19    9   33 1   
    20   10   34 1   
    21   11   12 ar  
    22   11   16 ar  
    23   12   13 ar  
    24   12   18 1   
    25   13   14 ar  
    26   13   35 1   
    27   14   15 ar  
    28   14   36 1   
    29   15   16 ar  
    30   15   37 1   
    31   16   38 1   
    32   17   18 1   
    33   17   21 1   
    34   17   39 1   
    35   18   19 1   
    36   19   20 1   
    37   19   40 1   
    38   19   41 1   
    39   20   42 1   
    40   21   22 2   
    41   21   23 1   
    42   23   24 1   
    43   24   25 1   
    44   24   43 1   
    45   24   44 1   
    46   25   26 1   
    47   25   45 1   
    48   25   46 1   
    49   26   27 1   
    50   26   47 1   
    51   26   48 1   
    52   27   28 1   
    53   27   49 1   
    54   27   50 1   
    55   28   51 1   
    56   28   52 1   
    57   28   53 1   
@<TRIPOS>SUBSTRUCTURE
     1 DAI         1 TEMP              0 ****  ****    0 ROOT
