@<TRIPOS>MOLECULE
DAI
   53    52     1     0     0
SMALL
bcc


@<TRIPOS>ATOM
      1 O23        -2.6630    0.3660    0.1210 o         1 DAI     -0.309000
      2 C24        -1.4440    0.3660    0.1210 c1        1 DAI      0.317000
      3 C28        -0.4570    0.3660    1.4810 c2        1 DAI     -0.124000
      4 C13        -0.6710   -0.8420    2.1880 c3        1 DAI     -0.007000
      5 C15        -0.0230   -1.9870    1.6820 c2        1 DAI     -0.084000
      6 C16         1.1120   -1.8220    1.3030 c1        1 DAI     -0.069000
      7 C17         1.8710   -2.9390    0.7780 c1        1 DAI     -0.119750
      8 C18         1.2580   -4.1300    0.5570 c1        1 DAI     -0.119750
      9 C19        -0.0070   -4.2880    0.8970 c1        1 DAI     -0.126000
     10 C14        -0.6850   -3.2610    1.4660 c2        1 DAI     -0.107000
     11 C12         0.0460   -0.5780    3.7360 c2        1 DAI     -0.080000
     12 C11         1.9000   -0.2960    3.1260 c2        1 DAI     -0.066000
     13 C9          2.7140    0.3070    3.8770 c1        1 DAI     -0.097000
     14 C8          2.2380    0.8910    5.2080 c1        1 DAI     -0.119750
     15 C7          0.6760    0.6540    5.7210 c1        1 DAI     -0.119750
     16 C6         -0.3060   -0.1520    4.8700 c1        1 DAI     -0.114000
     17 C27         0.7460    0.5370    1.0840 c3        1 DAI     -0.126000
     18 C10         1.6180   -0.5000    1.4280 c3        1 DAI      0.055000
     19 C5          2.9460   -0.3610    0.6490 c3        1 DAI     -0.019000
     20 O4          3.9950   -0.9700    1.3880 oh        1 DAI     -0.323000
     21 C26         0.7110    0.6670   -0.5930 c2        1 DAI      0.318000
     22 O22         1.6430    0.9940   -1.3040 o         1 DAI     -0.322000
     23 N25        -0.6130    0.4150   -1.0230 n         1 DAI     -0.334000
     24 C21        -1.0530    0.2820   -2.4080 c3        1 DAI     -0.017000
     25 C20        -1.5680    1.6490   -2.9200 c3        1 DAI     -0.179000
     26 C3         -2.0600    1.5030   -4.3800 c3        1 DAI     -0.156000
     27 C2         -2.5670    2.8660   -4.8920 c3        1 DAI     -0.158000
     28 C1         -3.0590    2.7200   -6.3390 c3        1 DAI     -0.211000
     29 H28        -0.7100    1.1150    2.0540 ha        1 DAI      0.138000
     30 H13        -1.6270   -1.0110    2.2850 hc        1 DAI      0.129000
     31 H17         2.8070   -2.8190    0.5270 ha        1 DAI      0.135500
     32 H18         1.7510   -4.8660    0.1470 ha        1 DAI      0.135500
     33 H19        -0.4530   -5.1420    0.7400 ha        1 DAI      0.133000
     34 H14        -1.6210   -3.3740    1.7190 ha        1 DAI      0.139000
     35 H9          3.6340    0.4510    3.5820 ha        1 DAI      0.151000
     36 H8          2.8560    1.4070    5.7600 ha        1 DAI      0.135500
     37 H7          0.3830    1.0310    6.5720 ha        1 DAI      0.135500
     38 H6         -1.2220   -0.2860    5.1790 ha        1 DAI      0.136000
     39 H27         1.0860    1.3720    1.4590 hc        1 DAI      0.136000
     40 H51         3.1480    0.5850    0.5170 h1        1 DAI      0.085500
     41 H52         2.8620   -0.7990   -0.2190 h1        1 DAI      0.085500
     42 HO4         4.7730   -0.7860    1.0030 ho        1 DAI      0.202000
     43 H211       -1.7720   -0.3760   -2.4600 h1        1 DAI      0.108000
     44 H212       -0.3040   -0.0110   -2.9610 h1        1 DAI      0.108000
     45 H201       -2.3060    1.9510   -2.3570 hc        1 DAI      0.091000
     46 H202       -0.8440    2.3030   -2.8850 hc        1 DAI      0.091000
     47 H31        -1.3230    1.1980   -4.9430 hc        1 DAI      0.082000
     48 H32        -2.7860    0.8520   -4.4150 hc        1 DAI      0.082000
     49 H21        -1.8390    3.5160   -4.8600 hc        1 DAI      0.079500
     50 H22        -3.3020    3.1720   -4.3280 hc        1 DAI      0.079500
     51 H11        -3.3790    3.5830   -6.6630 hc        1 DAI      0.072667
     52 H12        -2.3240    2.4130   -6.9030 hc        1 DAI      0.072667
     53 H13A       -3.7870    2.0700   -6.3710 hc        1 DAI      0.072667
@<TRIPOS>BOND
     1    1    2 1   
     2    2   23 1   
     3    3    4 1   
     4    3   17 1   
     5    3   29 1   
     6    4    5 1   
     7    4   11 1   
     8    4   30 1   
     9    5    6 1   
    10    5   10 1   
    11    6   18 1   
    12    7    8 1   
    13    7   31 1   
    14    8   32 1   
    15    9   10 1   
    16    9   33 1   
    17   10   34 1   
    18   11   12 1   
    19   11   16 1   
    20   12   13 1   
    21   12   18 1   
    22   13   35 1   
    23   14   15 1   
    24   14   36 1   
    25   15   37 1   
    26   16   38 1   
    27   17   18 1   
    28   17   21 1   
    29   17   39 1   
    30   18   19 1   
    31   19   20 1   
    32   19   40 1   
    33   19   41 1   
    34   20   42 1   
    35   21   22 1   
    36   21   23 1   
    37   23   24 1   
    38   24   25 1   
    39   24   43 1   
    40   24   44 1   
    41   25   26 1   
    42   25   45 1   
    43   25   46 1   
    44   26   27 1   
    45   26   47 1   
    46   26   48 1   
    47   27   28 1   
    48   27   49 1   
    49   27   50 1   
    50   28   51 1   
    51   28   52 1   
    52   28   53 1   
@<TRIPOS>SUBSTRUCTURE
     1 DAI         1 TEMP              0 ****  ****    0 ROOT
