@<TRIPOS>MOLECULE
DAJ
   34    36     1     0     0
SMALL
bcc


@<TRIPOS>ATOM
      1 C1         -3.3250   -0.9180   -0.4480 c3        1 DAJ     -0.010100
      2 C2         -3.7270    0.5920   -0.3650 c3        1 DAJ      0.092500
      3 N1         -4.3220    0.9180    0.9720 n4        1 DAJ     -0.840600
      4 C3         -2.3910    1.3960   -0.5860 c3        1 DAJ      0.031300
      5 N2         -1.3650    0.4360   -0.2970 na        1 DAJ     -0.065100
      6 C4         -1.8530   -0.8970   -0.2560 cc        1 DAJ     -0.216600
      7 C12         0.0020    0.4230   -0.1520 cc        1 DAJ     -0.065900
      8 C11         0.4020   -0.9260    0.0010 cd        1 DAJ     -0.222600
      9 C5          0.9260    1.5770   -0.1030 c         1 DAJ      0.625900
     10 C6          2.3260    1.2140    0.0250 cc        1 DAJ     -0.324400
     11 C13         3.2950    2.3390    0.0090 c3        1 DAJ     -0.042900
     12 C7          2.7610   -0.0930    0.1530 cd        1 DAJ      0.165800
     13 N3          4.0800   -0.4130    0.2550 nh        1 DAJ     -0.831600
     14 C8          1.7960   -1.2690    0.1950 c         1 DAJ      0.596900
     15 C9         -0.7720   -1.7660   -0.0670 cd        1 DAJ      0.018700
     16 C10        -0.8090   -3.2250    0.0330 c3        1 DAJ     -0.057800
     17 H11        -3.5950   -1.3040   -1.4670 hc        1 DAJ      0.095700
     18 H12        -3.8380   -1.5590    0.3110 hc        1 DAJ      0.095700
     19 H2         -4.4850    0.8610   -1.1510 hx        1 DAJ      0.127700
     20 HN1        -3.6560    0.6720    1.7140 hn        1 DAJ      0.464467
     21 HN2        -4.5300    1.9200    1.0300 hn        1 DAJ      0.464467
     22 HN3        -5.1850    0.3820    1.1100 hn        1 DAJ      0.464467
     23 H31        -2.3460    1.7220   -1.6650 h1        1 DAJ      0.108700
     24 H32        -2.2810    2.3100    0.0610 h1        1 DAJ      0.108700
     25 H131        4.0000    2.2420   -0.8550 hc        1 DAJ      0.051367
     26 H132        2.7640    3.3200   -0.0860 hc        1 DAJ      0.051367
     27 H133        3.8930    2.3610    0.9550 hc        1 DAJ      0.051367
     28 HN4         4.7730    0.2940    0.2370 hn        1 DAJ      0.455800
     29 HN5         4.3500   -1.3620    0.3640 hn        1 DAJ      0.455800
     30 H101       -1.6850   -3.5640    0.6390 hc        1 DAJ      0.069367
     31 H102       -0.8920   -3.6790   -0.9890 hc        1 DAJ      0.069367
     32 H103        0.1320   -3.6100    0.5070 hc        1 DAJ      0.069367
     33 O1          0.4770    2.7320   -0.1600 o         1 DAJ     -0.557100
     34 O2          2.2000   -2.4220    0.3840 o         1 DAJ     -0.502100
@<TRIPOS>BOND
     1    1    2 1   
     2    1    6 1   
     3    1   17 1   
     4    1   18 1   
     5    2    3 1   
     6    2    4 1   
     7    2   19 1   
     8    3   20 1   
     9    3   21 1   
    10    3   22 1   
    11    4    5 1   
    12    4   23 1   
    13    4   24 1   
    14    5    6 1   
    15    5    7 1   
    16    6   15 2   
    17    7    8 2   
    18    7    9 1   
    19    8   14 1   
    20    8   15 1   
    21    9   10 1   
    22    9   33 2   
    23   10   11 1   
    24   10   12 2   
    25   11   25 1   
    26   11   26 1   
    27   11   27 1   
    28   12   13 1   
    29   12   14 1   
    30   13   28 1   
    31   13   29 1   
    32   14   34 2   
    33   15   16 1   
    34   16   30 1   
    35   16   31 1   
    36   16   32 1   
@<TRIPOS>SUBSTRUCTURE
     1 DAJ         1 TEMP              0 ****  ****    0 ROOT
