@<TRIPOS>MOLECULE
DAJ
   35    37     1     0     0
SMALL
bcc


@<TRIPOS>ATOM
      1 C1         -0.1820    0.0060    0.0760 c3        1 DAJ     -0.087400
      2 C2          1.3490    0.3210   -0.0030 c3        1 DAJ      0.228500
      3 N1          1.6210    1.7050    0.0390 n3        1 DAJ     -0.953800
      4 C3          2.0200   -0.5520    1.1500 c3        1 DAJ     -0.079700
      5 N2          0.9280   -1.2350    1.8120 nh        1 DAJ     -0.061100
      6 C4         -0.2970   -1.2510    0.9420 c3        1 DAJ     -0.041800
      7 C12         0.5790   -1.4260    3.0820 cc        1 DAJ      0.313600
      8 C11        -0.8680   -1.6090    3.1880 cc        1 DAJ     -0.381800
      9 C5          1.4560   -1.4400    4.2870 c         1 DAJ      0.464000
     10 C6          0.7870   -1.8430    5.5590 cc        1 DAJ     -0.005400
     11 C13         1.6790   -2.0010    6.7290 c3        1 DAJ     -0.135900
     12 C7         -0.5570   -2.0390    5.6210 cd        1 DAJ     -0.128200
     13 N3         -1.1950   -2.4160    6.8850 n4        1 DAJ     -0.712400
     14 C8         -1.5000   -1.8940    4.4580 c         1 DAJ      0.619500
     15 C9         -1.4400   -1.4330    1.9310 c2        1 DAJ      0.166600
     16 C10        -2.8340   -1.4740    1.5290 c3        1 DAJ     -0.129900
     17 H11        -0.7640    0.8540    0.5180 hc        1 DAJ      0.111200
     18 H12        -0.2550   -2.1770    0.2820 h1        1 DAJ      0.171700
     19 H2         -0.5790   -0.1880   -0.9520 hc        1 DAJ      0.111200
     20 HN1         1.4160    2.1740    0.8890 hn        1 DAJ      0.414300
     21 HN2         1.7440   -0.0920   -0.9800 h1        1 DAJ      0.110700
     22 HN3         2.4730    1.9890   -0.3920 hn        1 DAJ      0.414300
     23 H31         2.6020    0.0640    1.8900 h1        1 DAJ      0.123700
     24 H32         2.7110   -1.3190    0.6960 h1        1 DAJ      0.123700
     25 H131        2.7510   -1.7870    6.4660 hc        1 DAJ      0.111033
     26 H132        1.3920   -1.2920    7.5500 hc        1 DAJ      0.111033
     27 H133        1.6360   -3.0500    7.1250 hc        1 DAJ      0.111033
     28 HN4        -0.9740   -1.7230    7.6150 hn        1 DAJ      0.487133
     29 HN5        -0.8580   -3.3410    7.1890 hn        1 DAJ      0.487133
     30 H101       -3.0380   -2.3920    0.9070 hc        1 DAJ      0.125700
     31 H102       -3.5230   -1.4990    2.4160 hc        1 DAJ      0.125700
     32 H103       -3.0870   -0.5820    0.8920 hc        1 DAJ      0.125700
     33 O1          2.6400   -1.1270    4.2230 o         1 DAJ     -0.360100
     34 O2         -2.7160   -2.0220    4.6250 o         1 DAJ     -0.466100
     35 H33        -2.2230   -2.4550    6.7540 hn        1 DAJ      0.487133
@<TRIPOS>BOND
     1    1    2 1   
     2    1    6 1   
     3    1   17 1   
     4    1   19 1   
     5    2    3 1   
     6    2    4 1   
     7    2   21 1   
     8    3   20 1   
     9    3   22 1   
    10    4    5 1   
    11    4   23 1   
    12    4   24 1   
    13    5    6 1   
    14    5    7 2   
    15    6   15 1   
    16    6   18 1   
    17    7    8 1   
    18    7    9 1   
    19    8   14 1   
    20    8   15 2   
    21    9   10 1   
    22    9   33 2   
    23   10   11 1   
    24   10   12 2   
    25   11   25 1   
    26   11   26 1   
    27   11   27 1   
    28   12   13 1   
    29   12   14 1   
    30   13   28 1   
    31   13   29 1   
    32   13   35 1   
    33   14   34 2   
    34   15   16 1   
    35   16   30 1   
    36   16   31 1   
    37   16   32 1   
@<TRIPOS>SUBSTRUCTURE
     1 DAJ         1 TEMP              0 ****  ****    0 ROOT
