@<TRIPOS>MOLECULE
DAJ
   35    36     1     0     0
SMALL
bcc


@<TRIPOS>ATOM
      1 C1         -1.3840    0.1840   -0.0570 c3        1 DAJ     -0.065800
      2 C2          2.3130   -0.1880    0.5740 c2        1 DAJ      0.394200
      3 N1          3.4690    0.3190    0.2600 nh        1 DAJ     -0.298100
      4 C3          1.2870    0.5430    1.4230 c3        1 DAJ     -0.071000
      5 N2          0.2100   -0.2830    1.8700 na        1 DAJ     -0.036100
      6 C4         -1.0340   -0.4320    1.2340 cc        1 DAJ     -0.053600
      7 C12         0.1680   -0.9650    3.0920 cc        1 DAJ     -0.201900
      8 C11        -1.1100   -1.5590    3.2210 cd        1 DAJ     -0.145600
      9 C5          1.2170   -1.0720    4.0900 c         1 DAJ      0.604900
     10 C6          0.8210   -1.7960    5.3420 cc        1 DAJ     -0.012400
     11 C13         1.8360   -1.8490    6.4150 c3        1 DAJ     -0.128900
     12 C7         -0.4090   -2.3640    5.4610 cd        1 DAJ     -0.141200
     13 N3         -0.7920   -3.0710    6.6850 n4        1 DAJ     -0.712400
     14 C8         -1.4760   -2.3270    4.3910 c         1 DAJ      0.621900
     15 C9         -1.8710   -1.2350    2.0550 cd        1 DAJ     -0.022300
     16 C10        -3.2450   -1.6340    1.7470 c3        1 DAJ     -0.068800
     17 H11        -1.4200    1.3010    0.0280 hc        1 DAJ      0.081033
     18 H12        -2.4020   -0.1730   -0.3670 hc        1 DAJ      0.081033
     19 H2         -0.6560   -0.0950   -0.8590 hc        1 DAJ      0.081033
     20 HN1         3.7710    1.2290    0.5750 hn        1 DAJ      0.348200
     21 HN2         2.0540   -1.2090    0.1930 h4        1 DAJ      0.093800
     22 HN3         4.1290   -0.1810   -0.3210 hn        1 DAJ      0.348200
     23 H31         0.8630    1.3910    0.7930 h1        1 DAJ      0.147200
     24 H32         1.8060    0.9930    2.3300 h1        1 DAJ      0.147200
     25 H131        2.7830   -1.3270    6.1080 hc        1 DAJ      0.099700
     26 H132        2.1040   -2.9090    6.6630 hc        1 DAJ      0.099700
     27 H133        1.4620   -1.3440    7.3440 hc        1 DAJ      0.099700
     28 HN4        -0.8090   -2.4170    7.4790 hn        1 DAJ      0.480800
     29 HN5        -0.1240   -3.8260    6.8840 hn        1 DAJ      0.480800
     30 H101       -3.2820   -2.2060    0.7840 hc        1 DAJ      0.083367
     31 H102       -3.6650   -2.2820    2.5590 hc        1 DAJ      0.083367
     32 H103       -3.9010   -0.7310    1.6400 hc        1 DAJ      0.083367
     33 O1          2.3560   -0.6140    3.9360 o         1 DAJ     -0.510100
     34 O2         -2.5430   -2.9180    4.5730 o         1 DAJ     -0.473100
     35 H33        -1.7390   -3.4760    6.5590 hn        1 DAJ      0.480800
@<TRIPOS>BOND
     1    1    6 1   
     2    1   17 1   
     3    1   18 1   
     4    1   19 1   
     5    2    3 2   
     6    2    4 1   
     7    2   21 1   
     8    3   20 1   
     9    3   22 1   
    10    4    5 1   
    11    4   23 1   
    12    4   24 1   
    13    5    6 1   
    14    5    7 1   
    15    6   15 2   
    16    7    8 2   
    17    7    9 1   
    18    8   14 1   
    19    8   15 1   
    20    9   10 1   
    21    9   33 2   
    22   10   11 1   
    23   10   12 2   
    24   11   25 1   
    25   11   26 1   
    26   11   27 1   
    27   12   13 1   
    28   12   14 1   
    29   13   28 1   
    30   13   29 1   
    31   13   35 1   
    32   14   34 2   
    33   15   16 1   
    34   16   30 1   
    35   16   31 1   
    36   16   32 1   
@<TRIPOS>SUBSTRUCTURE
     1 DAJ         1 TEMP              0 ****  ****    0 ROOT
