@<TRIPOS>MOLECULE
DAJ
   35    35     1     0     0
SMALL
bcc


@<TRIPOS>ATOM
      1 C1        -42.8590  -17.9560   22.4020 c3        1 DAJ     -0.187000
      2 C2        205.2580   84.9030 -108.5900 c2        1 DAJ      0.119000
      3 N1        205.8320   85.0910 -109.7320 n8        1 DAJ     -0.136000
      4 C3        -40.2400  -17.8220   24.0500 c1        1 DAJ      0.021000
      5 N2        -41.4330  -18.2230   24.5000 na        1 DAJ     -0.064000
      6 C4        -42.6940  -18.3200   23.8190 c2        1 DAJ     -0.049000
      7 C12       -41.6650  -18.6540   25.8310 ca        1 DAJ     -0.047000
      8 C11       -43.0130  -19.0050   25.9730 ca        1 DAJ     -0.140000
      9 C5        -40.6790  -18.7320   26.9070 ca        1 DAJ      0.299000
     10 C6        -41.2430  -19.2350   28.2140 ca        1 DAJ      0.013000
     11 C13       -40.2870  -19.3350   29.3380 c3        1 DAJ     -0.251000
     12 C7        -42.5530  -19.5710   28.3350 ca        1 DAJ     -0.237000
     13 N3        -43.0870  -20.0570   29.6100 nz        1 DAJ     -0.012000
     14 C8        -43.5630  -19.4860   27.2190 ca        1 DAJ      0.352000
     15 C9        -43.6720  -18.7950   24.6990 c2        1 DAJ     -0.052000
     16 C10       -45.0840  -19.0330   24.3960 c3        1 DAJ     -0.182000
     17 H11       -42.5970  -16.8800   22.2310 hc        1 DAJ      0.116667
     18 H12       -43.9260  -18.1140   22.1000 hc        1 DAJ      0.116667
     19 H2        -42.2060  -18.5870   21.7470 hc        1 DAJ      0.116667
     20 HN1       206.6700   85.6470 -109.8330 hn        1 DAJ      0.293000
     21 HN2       204.3330   84.2850 -108.5050 h4        1 DAJ      0.215000
     22 HN3       205.4760   84.6940 -110.5900 hn        1 DAJ      0.293000
     23 H31       205.6720   85.3530 -107.6560 h4        1 DAJ      0.215000
     24 H32       -40.2340  -17.5160   22.9800 ha        1 DAJ      0.069000
     25 H131      -40.2090  -20.3920   29.7010 hc        1 DAJ      0.133667
     26 H132      -40.6030  -18.6790   30.1900 hc        1 DAJ      0.133667
     27 H133      -39.2570  -19.0090   29.0240 hc        1 DAJ      0.133667
     28 HN4       -42.9610  -19.3460   30.3380 hn        1 DAJ      0.267000
     29 HN5       -42.6010  -20.9170   29.8900 hn        1 DAJ      0.267000
     30 H101      -45.5750  -18.0850   24.0570 hc        1 DAJ      0.109667
     31 H102      -45.1840  -19.7890   23.5740 hc        1 DAJ      0.109667
     32 H103      -45.6310  -19.4130   25.2960 hc        1 DAJ      0.109667
     33 O1        -39.4910  -18.4340   26.8280 o         1 DAJ     -0.145000
     34 O2        -44.7340  -19.8170   27.4340 o         1 DAJ     -0.267000
     35 H33       -44.0970  -20.2560   29.4940 hn        1 DAJ      0.267000
@<TRIPOS>BOND
     1    1    6 1   
     2    1   17 1   
     3    1   18 1   
     4    1   19 1   
     5    2    3 1   
     6    2   21 1   
     7    2   23 1   
     8    3   20 1   
     9    3   22 1   
    10    4    5 1   
    11    4   24 1   
    12    5    6 1   
    13    5    7 1   
    14    6   15 1   
    15    7    8 1   
    16    7    9 1   
    17    8   14 1   
    18    8   15 1   
    19    9   10 1   
    20    9   33 1   
    21   10   11 1   
    22   10   12 1   
    23   11   25 1   
    24   11   26 1   
    25   11   27 1   
    26   12   13 1   
    27   12   14 1   
    28   13   28 1   
    29   13   29 1   
    30   13   35 1   
    31   14   34 1   
    32   15   16 1   
    33   16   30 1   
    34   16   31 1   
    35   16   32 1   
@<TRIPOS>SUBSTRUCTURE
     1 DAJ         1 TEMP              0 ****  ****    0 ROOT
