@<TRIPOS>MOLECULE
DAJ
   34    32     1     0     0
SMALL
bcc


@<TRIPOS>ATOM
      1 C1          0.0580   -0.1680   -3.1210 c3        1 DAJ     -0.096000
      2 C2          1.5030   -0.1680   -3.1210 c3        1 DAJ     -0.105000
      3 N1          2.0000    1.0300   -3.8150 n4        1 DAJ     -0.068000
      4 C3          1.9580   -0.1680   -1.7090 c3        1 DAJ     -0.028000
      5 N2          0.7480   -0.1680   -0.8320 n3        1 DAJ     -0.133000
      6 C4         -0.4100   -0.1680   -1.6720 c2        1 DAJ     -0.185000
      7 C12         0.3240   -0.1680    0.4780 c1        1 DAJ     -0.021000
      8 C11        -1.1060   -0.1680    0.4780 c1        1 DAJ     -0.202000
      9 O1          2.3090   -0.1710    1.8210 o         1 DAJ     -0.318000
     10 C5          1.0930   -0.1680    1.8180 c1        1 DAJ      0.347000
     11 C6          0.3450   -0.1680    3.1180 c2        1 DAJ     -0.301000
     12 C13         1.1060   -0.0820    4.4340 c3        1 DAJ     -0.165000
     13 C7         -1.1400   -0.1680    3.1160 c1        1 DAJ      0.103000
     14 N3         -1.8550   -0.3140    4.3410 n2        1 DAJ     -0.340000
     15 O2         -3.0980   -0.2530    1.8100 o         1 DAJ     -0.263000
     16 C8         -1.8850   -0.1680    1.8140 c1        1 DAJ      0.318000
     17 C9         -1.5380   -0.1680   -0.8540 c1        1 DAJ      0.026000
     18 C10        -2.9270    0.0910   -1.4190 c2        1 DAJ     -0.183000
     19 H11        -0.2720    0.6300   -3.5750 hc        1 DAJ      0.135000
     20 H12        -0.2720   -0.9670   -3.5750 hc        1 DAJ      0.135000
     21 H2          1.8310   -0.9690   -3.5720 hx        1 DAJ      0.167000
     22 HN1         1.6910    1.7760   -3.3920 hn        1 DAJ      0.259667
     23 HN2         2.9110    1.0300   -3.8060 hn        1 DAJ      0.259667
     24 HN3         1.7040    1.0250   -4.6780 hn        1 DAJ      0.259667
     25 H31         2.4910    0.6300   -1.5350 h1        1 DAJ      0.148000
     26 H32         2.4910   -0.9670   -1.5350 h1        1 DAJ      0.148000
     27 H131        0.9990   -0.9170    4.9280 hc        1 DAJ      0.090667
     28 H132        0.7550    0.6580    4.9660 hc        1 DAJ      0.090667
     29 H133        2.0530    0.0690    4.2530 hc        1 DAJ      0.090667
     30 HN4        -2.1510    0.4240    4.7870 hn        1 DAJ      0.251000
     31 HN5        -2.0420   -1.1470    4.6630 hn        1 DAJ      0.251000
     32 H101       -2.9380   -0.1260   -2.3700 ha        1 DAJ      0.108667
     33 H102       -3.1580    1.0320   -1.2970 ha        1 DAJ      0.108667
     34 H103       -3.5780   -0.4660   -0.9510 ha        1 DAJ      0.108667
@<TRIPOS>BOND
     1    1    2 1   
     2    1    6 1   
     3    1   19 1   
     4    1   20 1   
     5    2    3 1   
     6    2    4 1   
     7    2   21 1   
     8    3   22 1   
     9    3   23 1   
    10    3   24 1   
    11    4    5 1   
    12    4   25 1   
    13    4   26 1   
    14    5    6 1   
    15    5    7 1   
    16    6   17 1   
    17    7    8 1   
    18    8   17 1   
    19    9   10 1   
    20   10   11 1   
    21   11   12 1   
    22   11   13 1   
    23   12   27 1   
    24   12   28 1   
    25   12   29 1   
    26   13   16 1   
    27   14   30 1   
    28   14   31 1   
    29   15   16 1   
    30   18   32 1   
    31   18   33 1   
    32   18   34 1   
@<TRIPOS>SUBSTRUCTURE
     1 DAJ         1 TEMP              0 ****  ****    0 ROOT
