@<TRIPOS>MOLECULE
DAL
   12    11     1     0     0
SMALL
bcc


@<TRIPOS>ATOM
      1 N          -1.3990   -0.2710   -0.2420 n3        1 DAL     -0.891800
      2 CA          0.0230   -0.2710   -0.2420 c3        1 DAL      0.015500
      3 CB          0.5270   -0.2710    1.1830 c3        1 DAL     -0.068100
      4 C           0.5270    0.9630   -0.9550 c         1 DAL      0.887600
      5 O           1.4600    0.8680   -1.7950 o         1 DAL     -0.847800
      6 OXT         0.0140    2.0860   -0.7080 o         1 DAL     -0.847800
      7 H          -1.7030   -1.0650    0.0870 hn        1 DAL      0.328300
      8 H2         -1.7030   -0.1580   -1.0950 hn        1 DAL      0.328300
      9 HA          0.3490   -1.0680   -0.7020 h1        1 DAL      0.037700
     10 HB1         0.3470   -1.1390    1.5920 hc        1 DAL      0.019700
     11 HB2         0.0710    0.4280    1.6890 hc        1 DAL      0.019700
     12 HB3         1.4880   -0.1020    1.1880 hc        1 DAL      0.019700
@<TRIPOS>BOND
     1    1    2 1   
     2    1    7 1   
     3    1    8 1   
     4    2    3 1   
     5    2    4 1   
     6    2    9 1   
     7    3   10 1   
     8    3   11 1   
     9    3   12 1   
    10    4    5 1   
    11    4    6 1   
@<TRIPOS>SUBSTRUCTURE
     1 DAL         1 TEMP              0 ****  ****    0 ROOT
