@<TRIPOS>MOLECULE
DAL
   12    11     1     0     0
SMALL
bcc


@<TRIPOS>ATOM
      1 N          -1.7880   -0.8560    0.4090 n3        1 DAL     -0.891800
      2 CA         -0.8550    0.2640    0.4720 c3        1 DAL      0.015500
      3 CB         -1.1800    1.3650   -0.5280 c3        1 DAL     -0.068100
      4 C           0.6470   -0.1340    0.3000 c         1 DAL      0.887600
      5 O           0.9230   -1.3500    0.0860 o         1 DAL     -0.847800
      6 OXT         1.5080    0.7830    0.4030 o         1 DAL     -0.847800
      7 H          -1.8500   -1.1620   -0.5470 hn        1 DAL      0.328300
      8 H2         -1.3700   -1.6190    0.9170 hn        1 DAL      0.328300
      9 HA         -0.9500    0.6950    1.5110 h1        1 DAL      0.037700
     10 HB1        -1.1520    0.9770   -1.5750 hc        1 DAL      0.019700
     11 HB2        -2.1900    1.8010   -0.3400 hc        1 DAL      0.019700
     12 HB3        -0.4080    2.1660   -0.4280 hc        1 DAL      0.019700
@<TRIPOS>BOND
     1    1    2 1   
     2    1    7 1   
     3    1    8 1   
     4    2    3 1   
     5    2    4 1   
     6    2    9 1   
     7    3   10 1   
     8    3   11 1   
     9    3   12 1   
    10    4    5 1   
    11    4    6 1   
@<TRIPOS>SUBSTRUCTURE
     1 DAL         1 TEMP              0 ****  ****    0 ROOT
