@<TRIPOS>MOLECULE
DAM
   13    12     1     0     0
SMALL
bcc


@<TRIPOS>ATOM
      1 N          -1.3310   -0.5920   -0.4050 nh        1 DAM     -0.725000
      2 CM         -2.6660   -0.2980    0.0250 c3        1 DAM      0.180100
      3 CA         -0.3270    0.3600   -0.1350 ce        1 DAM      0.010800
      4 CB         -0.5220    1.6920   -0.0990 c2        1 DAM     -0.334000
      5 C           1.0890   -0.2110    0.1060 c         1 DAM      0.907800
      6 O           1.1690   -1.3920    0.5540 o         1 DAM     -0.832300
      7 OXT         2.0760    0.5330   -0.1310 o         1 DAM     -0.832300
      8 H          -1.0250   -1.5050   -0.1130 hn        1 DAM      0.403800
      9 HM1        -2.7520   -0.0720    1.1250 h1        1 DAM      0.008700
     10 HM2        -3.0490    0.5950   -0.5370 h1        1 DAM      0.008700
     11 HM3        -3.3260   -1.1760   -0.2050 h1        1 DAM      0.008700
     12 HB1         0.3400    2.3570    0.0290 ha        1 DAM      0.097000
     13 HB2        -1.4970    2.1780   -0.2100 ha        1 DAM      0.097000
@<TRIPOS>BOND
     1    1    2 1   
     2    1    3 1   
     3    1    8 1   
     4    2    9 1   
     5    2   10 1   
     6    2   11 1   
     7    3    4 2   
     8    3    5 1   
     9    4   12 1   
    10    4   13 1   
    11    5    6 1   
    12    5    7 1   
@<TRIPOS>SUBSTRUCTURE
     1 DAM         1 TEMP              0 ****  ****    0 ROOT
