@<TRIPOS>MOLECULE
DAN
   36    36     1     0     0
SMALL
bcc


@<TRIPOS>ATOM
      1 C1         -2.8650   -0.4610    1.4260 c         1 DAN      0.930800
      2 C2         -2.0260    0.1600    0.3050 ce        1 DAN      0.046900
      3 C3         -2.2290    0.0530   -1.0200 c2        1 DAN     -0.335200
      4 C4         -1.2200    0.6160   -1.9550 c3        1 DAN      0.176300
      5 C5          0.2010    0.3130   -1.3890 c3        1 DAN      0.029700
      6 C6          0.3000    0.7220    0.1020 c3        1 DAN      0.105100
      7 C7          1.1450   -0.3120    0.8800 c3        1 DAN      0.118100
      8 C8          1.5000    0.2610    2.2650 c3        1 DAN      0.062100
      9 C9          2.0040   -0.8370    3.2090 c3        1 DAN      0.095400
     10 C11         2.8830    1.0730   -4.0060 c3        1 DAN     -0.177100
     11 N5          1.2480    0.9430   -2.1650 n         1 DAN     -0.542900
     12 O1A        -4.1010   -0.2500    1.4320 o         1 DAN     -0.805300
     13 O1B        -2.2240   -1.1750    2.2480 o         1 DAN     -0.805300
     14 O4         -1.3430    0.1070   -3.2730 oh        1 DAN     -0.611800
     15 O6         -0.9430    0.8730    0.7900 os        1 DAN     -0.334900
     16 O7          0.4910   -1.5520    1.0030 oh        1 DAN     -0.620800
     17 O8          2.4720    1.2900    2.1530 oh        1 DAN     -0.608800
     18 O9          3.1710   -0.4180    3.8940 oh        1 DAN     -0.619800
     19 O10         2.0460   -0.9980   -3.1240 o         1 DAN     -0.611100
     20 H3         -3.1170   -0.4320   -1.4380 ha        1 DAN      0.155000
     21 H4         -1.3660    1.7280   -2.0780 h1        1 DAN      0.063700
     22 H5          0.3500   -0.8110   -1.4480 h1        1 DAN      0.111700
     23 H6          0.7840    1.7350    0.2220 h1        1 DAN      0.071700
     24 H7          2.0860   -0.5320    0.3030 h1        1 DAN      0.063700
     25 H8          0.5940    0.7750    2.6980 h1        1 DAN      0.110700
     26 H91         1.2010   -1.1120    3.9410 h1        1 DAN      0.065700
     27 H92         2.3140   -1.7530    2.6390 h1        1 DAN      0.065700
     28 H111        3.5130    0.3830   -4.6180 hc        1 DAN      0.058033
     29 H112        2.2440    1.6830   -4.6890 hc        1 DAN      0.058033
     30 H113        3.5490    1.7540   -3.4240 hc        1 DAN      0.058033
     31 HN5         1.1410    1.9200   -2.3070 hn        1 DAN      0.294500
     32 HO4        -1.3500   -0.8550   -3.2070 ho        1 DAN      0.406000
     33 HO7        -0.3670   -1.4020    1.4500 ho        1 DAN      0.467000
     34 HO8         3.2930    0.8720    1.8650 ho        1 DAN      0.399000
     35 HO9         2.9840    0.4530    4.2670 ho        1 DAN      0.403000
     36 C10         2.0150    0.2480   -3.0820 c         1 DAN      0.655100
@<TRIPOS>BOND
     1    1    2 1   
     2    1   12 1   
     3    1   13 1   
     4    2    3 2   
     5    2   15 1   
     6    3    4 1   
     7    3   20 1   
     8    4    5 1   
     9    4   14 1   
    10    4   21 1   
    11    5    6 1   
    12    5   11 1   
    13    5   22 1   
    14    6    7 1   
    15    6   15 1   
    16    6   23 1   
    17    7    8 1   
    18    7   16 1   
    19    7   24 1   
    20    8    9 1   
    21    8   17 1   
    22    8   25 1   
    23    9   18 1   
    24    9   26 1   
    25    9   27 1   
    26   10   28 1   
    27   10   29 1   
    28   10   30 1   
    29   10   36 1   
    30   11   31 1   
    31   11   36 1   
    32   14   32 1   
    33   16   33 1   
    34   17   34 1   
    35   18   35 1   
    36   19   36 2   
@<TRIPOS>SUBSTRUCTURE
     1 DAN         1 TEMP              0 ****  ****    0 ROOT
