@<TRIPOS>MOLECULE
DAN
   36    31     1     0     0
SMALL
bcc


@<TRIPOS>ATOM
      1 C1          1.7620   -1.8310   -0.7310 c2        1 DAN      0.385000
      2 C2          2.1470   -0.5500    0.0170 c2        1 DAN     -0.032000
      3 C3          2.2700   -0.4250    1.3430 c2        1 DAN     -0.247000
      4 C4          2.6580    0.8050    2.0740 c3        1 DAN      0.013000
      5 C5          5.7460    1.3170    0.6680 c1        1 DAN     -0.216000
      6 C6          3.3070    1.3260   -0.7950 c1        1 DAN     -0.112000
      7 C7          2.7910   -0.2110   -4.8300 c2        1 DAN     -0.127000
      8 C8          2.7450   -1.5530   -4.9190 c2        1 DAN     -0.127000
      9 C9          1.4050   -1.7370   -8.4130 c1        1 DAN     -0.071000
     10 C11         9.1720   -0.0820    3.0140 c3        1 DAN     -0.283000
     11 N5          6.7830    1.3990    1.1900 n1        1 DAN     -0.184000
     12 O1A         1.3610   -2.7890   -0.0280 o         1 DAN     -0.540000
     13 O1B         1.8800   -1.8310   -1.9870 o         1 DAN     -0.540000
     14 O4          2.0400    0.8970    3.3490 oh        1 DAN     -0.339000
     15 O6          2.2680    0.5440   -0.8740 os        1 DAN     -0.093000
     16 O7          2.5360    0.4860   -3.6790 oh        1 DAN     -0.301000
     17 O8          3.0020   -2.2490   -6.0820 oh        1 DAN     -0.301000
     18 O9          0.7220   -2.5900   -7.6970 oh        1 DAN     -0.232000
     19 O10        10.9350    1.4930    3.4300 o         1 DAN     -0.328000
     20 H3          2.4100    1.7290    1.4770 h1        1 DAN      0.086000
     21 H4          2.0680   -1.3200    1.9590 ha        1 DAN      0.171000
     22 H5          3.7630    0.8070    2.2940 h1        1 DAN      0.086000
     23 H6          4.7470    1.2420    0.1560 ha        1 DAN      0.324000
     24 H7          3.2180    2.0940   -1.6050 ha        1 DAN      0.062000
     25 H8          3.0350    0.4760   -5.6530 h4        1 DAN      0.178000
     26 H91         2.5110   -2.2410   -4.0850 h4        1 DAN      0.178000
     27 H92         0.8910   -1.6270   -9.4050 ha        1 DAN      0.013000
     28 H111        9.0010   -0.4860    1.9850 hc        1 DAN      0.105333
     29 H112        9.7800   -0.8110    3.6000 hc        1 DAN      0.105333
     30 H113        8.1740    0.0430    3.5030 hc        1 DAN      0.105333
     31 HN5         9.2820    2.0170    2.3390 h4        1 DAN      0.108000
     32 HO4         1.1120    0.6640    3.2340 ho        1 DAN      0.197000
     33 HO7         2.2510   -0.1450   -2.9840 ho        1 DAN      0.243000
     34 HO8         3.1460   -1.6150   -6.8040 ho        1 DAN      0.243000
     35 HO9         1.1500   -2.7060   -6.8180 ho        1 DAN      0.283000
     36 C10         9.8400    1.2440    2.9160 c2        1 DAN      0.187000
@<TRIPOS>BOND
     1    1    2 1   
     2    1   12 1   
     3    1   13 1   
     4    2    3 1   
     5    2   15 1   
     6    3    4 1   
     7    3   21 1   
     8    4   14 1   
     9    4   20 1   
    10    4   22 1   
    11    5   11 1   
    12    5   23 1   
    13    6   15 1   
    14    6   24 1   
    15    7    8 1   
    16    7   16 1   
    17    7   25 1   
    18    8   17 1   
    19    8   26 1   
    20    9   18 1   
    21    9   27 1   
    22   10   28 1   
    23   10   29 1   
    24   10   30 1   
    25   10   36 1   
    26   14   32 1   
    27   16   33 1   
    28   17   34 1   
    29   18   35 1   
    30   19   36 1   
    31   31   36 1   
@<TRIPOS>SUBSTRUCTURE
     1 DAN         1 TEMP              0 ****  ****    0 ROOT
