@<TRIPOS>MOLECULE
DAN
   37    46     1     0     0
SMALL
bcc


@<TRIPOS>ATOM
      1 C1          0.0000    0.0000    0.0000 c2        1 DAN      0.387000
      2 C2          1.4730    0.0000    0.0000 c2        1 DAN      0.108000
      3 C3          2.0660    0.0000    1.1770 c3        1 DAN      0.108000
      4 C4          3.5670   -0.0190    1.3230 DU        1 DAN      0.298000
      5 C5          4.1830    0.2670   -0.0530 DU        1 DAN     -0.407000
      6 C6          3.3900   -0.5380   -1.0900 DU        1 DAN     -0.128000
      7 C7          4.0910   -0.4600   -2.4480 DU        1 DAN      0.010000
      8 C8          3.2940   -1.2600   -3.4800 DU        1 DAN     -0.179000
      9 C9          3.9950   -1.1830   -4.8370 c3        1 DAN      0.059000
     10 C11         7.9990    0.2980    0.2580 c3        1 DAN     -0.317000
     11 N5          5.5880   -0.1490   -0.0670 ny        1 DAN     -0.057000
     12 O1A        -0.6740    0.0010   -1.1680 o         1 DAN     -0.477000
     13 O1B        -0.6080   -0.0010    1.0510 o         1 DAN     -0.477000
     14 O4          3.9750    0.9860    2.2530 oh        1 DAN     -0.243000
     15 O6          2.0790    0.0010   -1.2000 os        1 DAN     -0.022000
     16 O7          4.1710    0.9050   -2.8630 oh        1 DAN     -0.233000
     17 O8          3.2140   -2.6250   -3.0630 oh        1 DAN     -0.394000
     18 O9          3.2510   -1.9300   -5.8010 oh        1 DAN     -0.179000
     19 O10         6.2620    1.8600    0.5910 o         1 DAN     -0.302000
     20 H3          3.1110    0.1980    0.9720 DU        1 DAN      0.021500
     21 H4          2.5460   -0.0050    1.6860 DU        1 DAN      0.021500
     22 H5          4.0350   -0.3690    0.8110 DU        1 DAN      0.137000
     23 H6          3.7490    0.3990   -0.6820 DU        1 DAN      0.156000
     24 H7          3.7070   -1.0210   -1.6040 DU        1 DAN      0.112000
     25 H8          4.2000   -1.0650   -2.9180 DU        1 DAN      0.113000
     26 H91         3.1370   -1.0130   -4.1970 DU        1 DAN      0.100000
     27 H92         4.9930   -1.5950   -4.7520 h1        1 DAN      0.121000
     28 H111        7.3630    0.2270   -0.6160 DU        1 DAN      0.068000
     29 H112        8.1040   -0.5200    0.9610 hc        1 DAN      0.105000
     30 H113        8.2240   -0.0530   -0.7420 hc        1 DAN      0.105000
     31 HN5         6.5020    0.2180    0.1080 hn        1 DAN     -0.110000
     32 HO4         4.4080    0.6470    1.4880 ho        1 DAN      0.252000
     33 HO7         4.1120    0.8720   -1.9230 ho        1 DAN      0.234000
     34 HO8         3.6190   -1.7770   -3.1330 DU        1 DAN      0.307000
     35 HO9         2.9850   -2.3310   -4.9900 ho        1 DAN      0.229000
     36 C10         6.5540    0.7260    0.2730 c3        1 DAN      0.580000
     37 H52         5.6890   -0.9200    0.5640 hn        1 DAN     -0.110000
@<TRIPOS>BOND
     1    1    2 1   
     2    1   12 1   
     3    1   13 1   
     4    2    3 1   
     5    2   15 1   
     6    3    4 1   
     7    3   20 1   
     8    3   21 1   
     9    4    5 1   
    10    4   14 1   
    11    4   20 1   
    12    4   21 1   
    13    4   22 1   
    14    5    6 1   
    15    5   11 1   
    16    5   22 1   
    17    5   23 1   
    18    6    7 1   
    19    6   15 1   
    20    6   23 1   
    21    6   24 1   
    22    7    8 1   
    23    7   16 1   
    24    7   24 1   
    25    7   25 1   
    26    8    9 1   
    27    8   17 1   
    28    8   25 1   
    29    8   26 1   
    30    8   34 1   
    31    9   18 1   
    32    9   26 1   
    33    9   27 1   
    34   10   28 1   
    35   10   29 1   
    36   10   30 1   
    37   10   36 1   
    38   11   31 1   
    39   11   36 1   
    40   11   37 1   
    41   14   32 1   
    42   16   33 1   
    43   17   34 1   
    44   18   35 1   
    45   19   36 1   
    46   28   36 1   
@<TRIPOS>SUBSTRUCTURE
     1 DAN         1 TEMP              0 ****  ****    0 ROOT
