@<TRIPOS>MOLECULE
DAO
   37    36     1     0     0
SMALL
bcc


@<TRIPOS>ATOM
      1 O1          1.3740    0.0000   -5.7460 o         1 DAO     -0.854800
      2 O2         -0.5470   -0.0000   -6.8800 o         1 DAO     -0.854800
      3 C1          0.1100    0.0000   -5.7980 c         1 DAO      0.907600
      4 C2         -0.6980    0.0000   -4.4890 c3        1 DAO     -0.193400
      5 C3          0.1880   -0.0000   -3.2680 c3        1 DAO     -0.062400
      6 C4         -0.6180    0.0000   -1.9860 c3        1 DAO     -0.079400
      7 C5          0.2790   -0.0000   -0.7670 c3        1 DAO     -0.078400
      8 C6         -0.5250   -0.0000    0.5160 c3        1 DAO     -0.078400
      9 C7          0.3750   -0.0000    1.7330 c3        1 DAO     -0.079400
     10 C8         -0.4290    0.0000    3.0150 c3        1 DAO     -0.078400
     11 C9          0.4720   -0.0000    4.2310 c3        1 DAO     -0.079400
     12 C10        -0.3320    0.0000    5.5130 c3        1 DAO     -0.079400
     13 C11         0.5680   -0.0000    6.7300 c3        1 DAO     -0.080400
     14 C12        -0.2290   -0.0000    8.0090 c3        1 DAO     -0.091100
     15 H21        -1.3600   -0.9030   -4.4870 hc        1 DAO      0.018700
     16 H22        -1.3590    0.9030   -4.4870 hc        1 DAO      0.018700
     17 H31         0.8580    0.8990   -3.3010 hc        1 DAO      0.044700
     18 H32         0.8580   -0.8990   -3.3010 hc        1 DAO      0.044700
     19 H41        -1.2850   -0.9020   -1.9600 hc        1 DAO      0.024700
     20 H42        -1.2850    0.9020   -1.9600 hc        1 DAO      0.024700
     21 H51         0.9460    0.9020   -0.7930 hc        1 DAO      0.036700
     22 H52         0.9460   -0.9020   -0.7930 hc        1 DAO      0.036700
     23 H61        -1.1910   -0.9020    0.5410 hc        1 DAO      0.033700
     24 H62        -1.1910    0.9020    0.5410 hc        1 DAO      0.033700
     25 H71         1.0420    0.9020    1.7060 hc        1 DAO      0.037700
     26 H72         1.0420   -0.9020    1.7060 hc        1 DAO      0.037700
     27 H81        -1.0950   -0.9020    3.0400 hc        1 DAO      0.036700
     28 H82        -1.0950    0.9020    3.0400 hc        1 DAO      0.036700
     29 H91         1.1380    0.9020    4.2050 hc        1 DAO      0.038700
     30 H92         1.1380   -0.9020    4.2050 hc        1 DAO      0.038700
     31 H101       -0.9990   -0.9020    5.5390 hc        1 DAO      0.037700
     32 H102       -0.9990    0.9020    5.5390 hc        1 DAO      0.037700
     33 H111        1.2340    0.9020    6.7010 hc        1 DAO      0.037700
     34 H112        1.2340   -0.9020    6.7010 hc        1 DAO      0.037700
     35 H121        0.4540   -0.0000    8.8930 hc        1 DAO      0.029367
     36 H122       -0.8810    0.9050    8.0670 hc        1 DAO      0.029367
     37 H123       -0.8810   -0.9050    8.0670 hc        1 DAO      0.029367
@<TRIPOS>BOND
     1    1    3 1   
     2    2    3 1   
     3    3    4 1   
     4    4    5 1   
     5    4   15 1   
     6    4   16 1   
     7    5    6 1   
     8    5   17 1   
     9    5   18 1   
    10    6    7 1   
    11    6   19 1   
    12    6   20 1   
    13    7    8 1   
    14    7   21 1   
    15    7   22 1   
    16    8    9 1   
    17    8   23 1   
    18    8   24 1   
    19    9   10 1   
    20    9   25 1   
    21    9   26 1   
    22   10   11 1   
    23   10   27 1   
    24   10   28 1   
    25   11   12 1   
    26   11   29 1   
    27   11   30 1   
    28   12   13 1   
    29   12   31 1   
    30   12   32 1   
    31   13   14 1   
    32   13   33 1   
    33   13   34 1   
    34   14   35 1   
    35   14   36 1   
    36   14   37 1   
@<TRIPOS>SUBSTRUCTURE
     1 DAO         1 TEMP              0 ****  ****    0 ROOT
