@<TRIPOS>MOLECULE
DAO
   37    36     1     0     0
SMALL
bcc


@<TRIPOS>ATOM
      1 O1         -0.0660    0.0000   -0.0740 o         1 DAO     -0.854800
      2 O2          1.9130   -0.0000   -1.1030 o         1 DAO     -0.854800
      3 C1          1.1990    0.0000   -0.0580 c         1 DAO      0.907600
      4 C2          1.9350   -0.0000    1.2930 c3        1 DAO     -0.193400
      5 C3          0.9850   -0.0000    2.4640 c3        1 DAO     -0.062400
      6 C4          1.7210   -0.0000    3.7880 c3        1 DAO     -0.079400
      7 C5          0.7590   -0.0000    4.9570 c3        1 DAO     -0.078400
      8 C6          1.4930   -0.0000    6.2810 c3        1 DAO     -0.078400
      9 C7          0.5290   -0.0000    7.4480 c3        1 DAO     -0.079400
     10 C8          1.2630    0.0000    8.7710 c3        1 DAO     -0.078400
     11 C9          0.2980    0.0000    9.9380 c3        1 DAO     -0.079400
     12 C10         1.0320    0.0000   11.2610 c3        1 DAO     -0.079400
     13 C11         0.0680    0.0000   12.4280 c3        1 DAO     -0.080400
     14 C12         0.7950    0.0000   13.7480 c3        1 DAO     -0.091100
     15 H21         2.5960    0.9030    1.3300 hc        1 DAO      0.018700
     16 H22         2.5960   -0.9030    1.3300 hc        1 DAO      0.018700
     17 H31         0.3180   -0.8990    2.3960 hc        1 DAO      0.044700
     18 H32         0.3180    0.8990    2.3960 hc        1 DAO      0.044700
     19 H41         2.3850    0.9020    3.8500 hc        1 DAO      0.024700
     20 H42         2.3850   -0.9020    3.8500 hc        1 DAO      0.024700
     21 H51         0.0950   -0.9020    4.8950 hc        1 DAO      0.036700
     22 H52         0.0950    0.9020    4.8950 hc        1 DAO      0.036700
     23 H61         2.1570   -0.9020    6.3420 hc        1 DAO      0.033700
     24 H62         2.1570    0.9020    6.3420 hc        1 DAO      0.033700
     25 H71        -0.1350    0.9020    7.3860 hc        1 DAO      0.037700
     26 H72        -0.1350   -0.9020    7.3860 hc        1 DAO      0.037700
     27 H81         1.9270   -0.9020    8.8330 hc        1 DAO      0.036700
     28 H82         1.9270    0.9020    8.8330 hc        1 DAO      0.036700
     29 H91        -0.3660   -0.9020    9.8760 hc        1 DAO      0.038700
     30 H92        -0.3660    0.9020    9.8760 hc        1 DAO      0.038700
     31 H101        1.6960    0.9020   11.3230 hc        1 DAO      0.037700
     32 H102        1.6960   -0.9020   11.3230 hc        1 DAO      0.037700
     33 H111       -0.5960    0.9020   12.3630 hc        1 DAO      0.037700
     34 H112       -0.5960   -0.9020   12.3630 hc        1 DAO      0.037700
     35 H121        1.4430    0.9050   13.8410 hc        1 DAO      0.029367
     36 H122        0.0660    0.0000   14.5940 hc        1 DAO      0.029367
     37 H123        1.4430   -0.9050   13.8410 hc        1 DAO      0.029367
@<TRIPOS>BOND
     1    1    3 1   
     2    2    3 1   
     3    3    4 1   
     4    4    5 1   
     5    4   15 1   
     6    4   16 1   
     7    5    6 1   
     8    5   17 1   
     9    5   18 1   
    10    6    7 1   
    11    6   19 1   
    12    6   20 1   
    13    7    8 1   
    14    7   21 1   
    15    7   22 1   
    16    8    9 1   
    17    8   23 1   
    18    8   24 1   
    19    9   10 1   
    20    9   25 1   
    21    9   26 1   
    22   10   11 1   
    23   10   27 1   
    24   10   28 1   
    25   11   12 1   
    26   11   29 1   
    27   11   30 1   
    28   12   13 1   
    29   12   31 1   
    30   12   32 1   
    31   13   14 1   
    32   13   33 1   
    33   13   34 1   
    34   14   35 1   
    35   14   36 1   
    36   14   37 1   
@<TRIPOS>SUBSTRUCTURE
     1 DAO         1 TEMP              0 ****  ****    0 ROOT
