@<TRIPOS>MOLECULE
DAO
   37    36     1     0     0
SMALL
bcc


@<TRIPOS>ATOM
      1 O1         -4.4300   -3.6630   -5.0270 o         1 DAO     -0.853800
      2 O2         -2.5410   -3.6660   -6.1170 o         1 DAO     -0.853800
      3 C1         -3.1710   -3.6630   -5.0270 c         1 DAO      0.907600
      4 C2         -2.4140   -3.6630   -3.7170 c3        1 DAO     -0.193400
      5 C3         -2.1690   -2.2370   -3.2760 c3        1 DAO     -0.065400
      6 C4         -1.3700   -2.2360   -1.9910 c3        1 DAO     -0.078400
      7 C5         -1.1130   -0.8100   -1.5580 c3        1 DAO     -0.078400
      8 C6         -0.3030   -0.8090   -0.2800 c3        1 DAO     -0.078400
      9 C7         -0.0240    0.6170    0.1390 c3        1 DAO     -0.079400
     10 C8          0.8350    0.6180    1.3850 c3        1 DAO     -0.078400
     11 C9          1.1420    2.0440    1.7850 c3        1 DAO     -0.079400
     12 C10         2.0040    2.0450    3.0280 c3        1 DAO     -0.079400
     13 C11         2.3400    3.4700    3.4080 c3        1 DAO     -0.080400
     14 C12         3.2190    3.4700    4.6400 c3        1 DAO     -0.091100
     15 H21        -2.9400   -4.1280   -3.0380 hc        1 DAO      0.018700
     16 H22        -1.5590   -4.1190   -3.8350 hc        1 DAO      0.018700
     17 H31        -1.6700   -1.7640   -3.9690 hc        1 DAO      0.043700
     18 H32        -3.0240   -1.7900   -3.1280 hc        1 DAO      0.043700
     19 H41        -0.5190   -2.6910   -2.1370 hc        1 DAO      0.025700
     20 H42        -1.8730   -2.7020   -1.2960 hc        1 DAO      0.025700
     21 H51        -1.9650   -0.3580   -1.4040 hc        1 DAO      0.036700
     22 H52        -0.6180   -0.3420   -2.2570 hc        1 DAO      0.036700
     23 H61         0.5410   -1.2760   -0.4300 hc        1 DAO      0.034200
     24 H62        -0.8050   -1.2630    0.4240 hc        1 DAO      0.034200
     25 H71        -0.8670    1.0730    0.3240 hc        1 DAO      0.037200
     26 H72         0.4460    1.0810   -0.5800 hc        1 DAO      0.037200
     27 H81         1.6690    0.1430    1.2060 hc        1 DAO      0.036700
     28 H82         0.3560    0.1720    2.1100 hc        1 DAO      0.036700
     29 H91         1.6180    2.4900    1.0590 hc        1 DAO      0.038200
     30 H92         0.3080    2.5180    1.9670 hc        1 DAO      0.038200
     31 H101        1.5190    1.6180    3.7600 hc        1 DAO      0.037700
     32 H102        2.8280    1.5520    2.8530 hc        1 DAO      0.037700
     33 H111        2.8130    3.9010    2.6710 hc        1 DAO      0.037700
     34 H112        1.5160    3.9590    3.5970 hc        1 DAO      0.037700
     35 H121        4.0440    2.9850    4.4500 hc        1 DAO      0.029367
     36 H122        2.7480    3.0350    5.3760 hc        1 DAO      0.029367
     37 H123        3.4310    4.3890    4.8880 hc        1 DAO      0.029367
@<TRIPOS>BOND
     1    1    3 1   
     2    2    3 1   
     3    3    4 1   
     4    4    5 1   
     5    4   15 1   
     6    4   16 1   
     7    5    6 1   
     8    5   17 1   
     9    5   18 1   
    10    6    7 1   
    11    6   19 1   
    12    6   20 1   
    13    7    8 1   
    14    7   21 1   
    15    7   22 1   
    16    8    9 1   
    17    8   23 1   
    18    8   24 1   
    19    9   10 1   
    20    9   25 1   
    21    9   26 1   
    22   10   11 1   
    23   10   27 1   
    24   10   28 1   
    25   11   12 1   
    26   11   29 1   
    27   11   30 1   
    28   12   13 1   
    29   12   31 1   
    30   12   32 1   
    31   13   14 1   
    32   13   33 1   
    33   13   34 1   
    34   14   35 1   
    35   14   36 1   
    36   14   37 1   
@<TRIPOS>SUBSTRUCTURE
     1 DAO         1 TEMP              0 ****  ****    0 ROOT
