@<TRIPOS>MOLECULE
DAP
   38    40     1     0     0
SMALL
bcc


@<TRIPOS>ATOM
      1 N1         -0.0310    0.0360    0.0180 na        1 DAP     -0.168400
      2 C2          1.3760    0.0340   -0.0080 cc        1 DAP     -0.008300
      3 C3          1.8730    0.0560    1.3030 cd        1 DAP     -0.136200
      4 C4          0.6010    0.1470    3.5780 ca        1 DAP     -0.047000
      5 C5         -0.6710    0.2030    4.1240 ca        1 DAP     -0.146000
      6 C6         -1.8160    0.2100    3.2970 ca        1 DAP     -0.233900
      7 C7         -1.7270    0.1570    1.9080 ca        1 DAP     -0.089000
      8 C8         -0.4420    0.1010    1.3470 ca        1 DAP     -0.037200
      9 C9          0.7400    0.0970    2.1890 ca        1 DAP     -0.064800
     10 C10        -3.1510    0.3340    3.9200 ce        1 DAP      0.586800
     11 N2         -4.0400    1.2460    3.8460 n2        1 DAP     -0.703100
     12 N3         -3.4780   -0.8510    4.7940 n4        1 DAP     -0.823600
     13 C1'         2.1540    0.0110   -1.2370 ca        1 DAP      0.011200
     14 C2'         3.4170    0.6270   -1.2540 ca        1 DAP     -0.106500
     15 C3'         4.1880    0.6240   -2.4130 ca        1 DAP     -0.083500
     16 C4'         3.7010    0.0010   -3.5690 ca        1 DAP     -0.257900
     17 C5'         2.4490   -0.6230   -3.5600 ca        1 DAP     -0.083500
     18 C6'         1.6790   -0.6160   -2.3990 ca        1 DAP     -0.106500
     19 C11         4.4920    0.0630   -4.8170 ce        1 DAP      0.582800
     20 N4          4.6900    1.0110   -5.6470 n2        1 DAP     -0.692100
     21 N5          5.1710   -1.2480   -5.1210 n4        1 DAP     -0.823600
     22 HN1        -0.6170    0.1300   -0.7720 hn        1 DAP      0.315700
     23 H3          2.9180    0.0350    1.6040 ha        1 DAP      0.180000
     24 H4          1.4930    0.1500    4.2250 ha        1 DAP      0.171000
     25 H5         -0.7820    0.2820    5.2170 ha        1 DAP      0.141000
     26 H7         -2.6240    0.1660    1.2720 ha        1 DAP      0.154000
     27 HN2        -3.8560    2.0560    3.2890 hn        1 DAP      0.491400
     28 HN31       -3.5660   -1.6790    4.1970 hn        1 DAP      0.472800
     29 HN32       -4.3540   -0.7140    5.3180 hn        1 DAP      0.472800
     30 H2'         3.7970    1.1250   -0.3460 ha        1 DAP      0.165500
     31 H3'         5.1710    1.1230   -2.4140 ha        1 DAP      0.156000
     32 H5'         2.0540   -1.1040   -4.4690 ha        1 DAP      0.156000
     33 H6'         0.6980   -1.1190   -2.4050 ha        1 DAP      0.165500
     34 HN4         4.2580    1.8980   -5.4890 hn        1 DAP      0.495400
     35 HN51        5.8450   -1.4450   -4.3740 hn        1 DAP      0.473467
     36 HN52        4.4570   -1.9840   -5.1360 hn        1 DAP      0.473467
     37 H33        -2.7020   -0.9880    5.4500 hn        1 DAP      0.472800
     38 H53         5.6620   -1.2280   -6.0250 hn        1 DAP      0.473467
@<TRIPOS>BOND
     1    1    2 1   
     2    1    8 1   
     3    1   22 1   
     4    2    3 2   
     5    2   13 1   
     6    3    9 1   
     7    3   23 1   
     8    4    5 ar  
     9    4    9 ar  
    10    4   24 1   
    11    5    6 ar  
    12    5   25 1   
    13    6    7 ar  
    14    6   10 1   
    15    7    8 ar  
    16    7   26 1   
    17    8    9 ar  
    18   10   11 2   
    19   10   12 1   
    20   11   27 1   
    21   12   28 1   
    22   12   29 1   
    23   12   37 1   
    24   13   14 ar  
    25   13   18 ar  
    26   14   15 ar  
    27   14   30 1   
    28   15   16 ar  
    29   15   31 1   
    30   16   17 ar  
    31   16   19 1   
    32   17   18 ar  
    33   17   32 1   
    34   18   33 1   
    35   19   20 2   
    36   19   21 1   
    37   20   34 1   
    38   21   35 1   
    39   21   36 1   
    40   21   38 1   
@<TRIPOS>SUBSTRUCTURE
     1 DAP         1 TEMP              0 ****  ****    0 ROOT
