@<TRIPOS>MOLECULE
DAP
   36    38     1     0     0
SMALL
bcc


@<TRIPOS>ATOM
      1 N1          0.7430    0.2050   -0.6750 na        1 DAP     -0.179400
      2 C2         -0.3000   -0.0250    0.2420 cc        1 DAP     -0.011300
      3 C3         -1.4860   -0.2900   -0.4540 cd        1 DAP     -0.164200
      4 C4         -1.9440   -0.3510   -3.0260 ca        1 DAP     -0.082000
      5 C5         -1.3270   -0.1840   -4.2550 ca        1 DAP     -0.152000
      6 C6          0.0450    0.1360   -4.3460 ca        1 DAP     -0.117900
      7 C7          0.8330    0.3030   -3.2150 ca        1 DAP     -0.094000
      8 C8          0.2150    0.1320   -1.9650 ca        1 DAP     -0.044200
      9 C9         -1.1890   -0.1980   -1.8610 ca        1 DAP     -0.090800
     10 C10         0.6640    0.3090   -5.7010 ce        1 DAP      0.652800
     11 N2          1.3230    1.4020   -5.9450 n2        1 DAP     -0.830100
     12 N3          0.5170   -0.8080   -6.5500 nh        1 DAP     -0.958800
     13 C1'        -0.1080    0.0040    1.6820 ca        1 DAP     -0.022800
     14 C2'        -1.1880    0.3530    2.5090 ca        1 DAP     -0.123500
     15 C3'        -1.0340    0.3790    3.8920 ca        1 DAP     -0.102500
     16 C4'         0.2000    0.0560    4.4670 ca        1 DAP     -0.194900
     17 C5'         1.2780   -0.2940    3.6500 ca        1 DAP     -0.102500
     18 C6'         1.1260   -0.3180    2.2650 ca        1 DAP     -0.123500
     19 C11         0.3530    0.1120    5.9560 ce        1 DAP      0.637800
     20 N4          0.0070    1.1310    6.6870 n2        1 DAP     -0.832100
     21 N5          0.9790   -1.0220    6.5180 nh        1 DAP     -0.892800
     22 HN1         1.6400    0.5390   -0.4410 hn        1 DAP      0.301700
     23 H3         -2.4500   -0.5330   -0.0190 ha        1 DAP      0.158000
     24 H4         -3.0140   -0.5970   -2.9610 ha        1 DAP      0.137000
     25 H5         -1.9210   -0.2840   -5.1760 ha        1 DAP      0.127000
     26 H7          1.8970    0.5670   -3.2960 ha        1 DAP      0.153000
     27 HN2         1.7200    1.4870   -6.8570 hn        1 DAP      0.381400
     28 HN31        0.5870   -0.6440   -7.5270 hn        1 DAP      0.399300
     29 HN32       -0.1850   -1.4600   -6.2900 hn        1 DAP      0.399300
     30 H2'        -2.1590    0.6090    2.0580 ha        1 DAP      0.140500
     31 H3'        -1.8870    0.6550    4.5310 ha        1 DAP      0.147000
     32 H5'         2.2510   -0.5470    4.0980 ha        1 DAP      0.147000
     33 H6'         1.9810   -0.6080    1.6370 ha        1 DAP      0.140500
     34 HN4        -0.3290    1.9120    6.1660 hn        1 DAP      0.395400
     35 HN51        0.9490   -1.0760    7.5140 hn        1 DAP      0.398800
     36 HN52        0.7220   -1.8730    6.0690 hn        1 DAP      0.398800
@<TRIPOS>BOND
     1    1    2 1   
     2    1    8 1   
     3    1   22 1   
     4    2    3 2   
     5    2   13 1   
     6    3    9 1   
     7    3   23 1   
     8    4    5 ar  
     9    4    9 ar  
    10    4   24 1   
    11    5    6 ar  
    12    5   25 1   
    13    6    7 ar  
    14    6   10 1   
    15    7    8 ar  
    16    7   26 1   
    17    8    9 ar  
    18   10   11 2   
    19   10   12 1   
    20   11   27 1   
    21   12   28 1   
    22   12   29 1   
    23   13   14 ar  
    24   13   18 ar  
    25   14   15 ar  
    26   14   30 1   
    27   15   16 ar  
    28   15   31 1   
    29   16   17 ar  
    30   16   19 1   
    31   17   18 ar  
    32   17   32 1   
    33   18   33 1   
    34   19   20 2   
    35   19   21 1   
    36   20   34 1   
    37   21   35 1   
    38   21   36 1   
@<TRIPOS>SUBSTRUCTURE
     1 DAP         1 TEMP              0 ****  ****    0 ROOT
