@<TRIPOS>MOLECULE
DAP
   38    40     1     0     0
SMALL
bcc


@<TRIPOS>ATOM
      1 N1         -0.0310    0.0430    0.0140 na        1 DAP     -0.168400
      2 C2          1.3770    0.0320   -0.0070 cc        1 DAP     -0.008300
      3 C3          1.8690    0.0470    1.3060 cd        1 DAP     -0.136200
      4 C4          0.5890    0.1390    3.5770 ca        1 DAP     -0.047000
      5 C5         -0.6850    0.2010    4.1190 ca        1 DAP     -0.146000
      6 C6         -1.8270    0.2170    3.2870 ca        1 DAP     -0.233900
      7 C7         -1.7330    0.1690    1.8980 ca        1 DAP     -0.089000
      8 C8         -0.4460    0.1060    1.3420 ca        1 DAP     -0.037200
      9 C9          0.7330    0.0920    2.1880 ca        1 DAP     -0.064800
     10 C10        -3.1640    0.3470    3.9060 ce        1 DAP      0.586800
     11 N2         -4.0460    1.2660    3.8320 n2        1 DAP     -0.703100
     12 N3         -3.5020   -0.8380    4.7740 n4        1 DAP     -0.823600
     13 C1'         2.1590    0.0080   -1.2320 ca        1 DAP      0.011200
     14 C2'         3.4260    0.6160   -1.2420 ca        1 DAP     -0.106500
     15 C3'         4.2020    0.6110   -2.3990 ca        1 DAP     -0.083500
     16 C4'         3.7150   -0.0040   -3.5580 ca        1 DAP     -0.257900
     17 C5'         2.4580   -0.6200   -3.5560 ca        1 DAP     -0.083500
     18 C6'         1.6840   -0.6120   -2.3990 ca        1 DAP     -0.106500
     19 C11         4.5110    0.0570   -4.8030 ce        1 DAP      0.582800
     20 N4          4.7200    1.0060   -5.6290 n2        1 DAP     -0.692100
     21 N5          5.1810   -1.2590   -5.1100 n4        1 DAP     -0.823600
     22 HN1        -0.6130    0.1430   -0.7770 hn        1 DAP      0.315700
     23 H3          2.9130    0.0180    1.6110 ha        1 DAP      0.180000
     24 H4          1.4780    0.1350    4.2280 ha        1 DAP      0.171000
     25 H5         -0.8000    0.2780    5.2110 ha        1 DAP      0.141000
     26 H7         -2.6280    0.1850    1.2590 ha        1 DAP      0.154000
     27 HN2        -3.8550    2.0760    3.2790 hn        1 DAP      0.491400
     28 HN31       -4.3780   -0.6980    5.2950 hn        1 DAP      0.472800
     29 HN32       -2.7290   -0.9830    5.4330 hn        1 DAP      0.472800
     30 H2'         3.8060    1.1090   -0.3310 ha        1 DAP      0.165500
     31 H3'         5.1880    1.1050   -2.3940 ha        1 DAP      0.156000
     32 H5'         2.0640   -1.0960   -4.4690 ha        1 DAP      0.156000
     33 H6'         0.7010   -1.1090   -2.4090 ha        1 DAP      0.165500
     34 HN4         4.2930    1.8960   -5.4690 hn        1 DAP      0.495400
     35 HN51        5.8520   -1.4630   -4.3610 hn        1 DAP      0.473467
     36 HN52        5.6760   -1.2390   -6.0130 hn        1 DAP      0.473467
     37 H33        -3.5920   -1.6640    4.1730 hn        1 DAP      0.472800
     38 H53         4.4620   -1.9890   -5.1290 hn        1 DAP      0.473467
@<TRIPOS>BOND
     1    1    2 1   
     2    1    8 1   
     3    1   22 1   
     4    2    3 2   
     5    2   13 1   
     6    3    9 1   
     7    3   23 1   
     8    4    5 ar  
     9    4    9 ar  
    10    4   24 1   
    11    5    6 ar  
    12    5   25 1   
    13    6    7 ar  
    14    6   10 1   
    15    7    8 ar  
    16    7   26 1   
    17    8    9 ar  
    18   10   11 2   
    19   10   12 1   
    20   11   27 1   
    21   12   28 1   
    22   12   29 1   
    23   12   37 1   
    24   13   14 ar  
    25   13   18 ar  
    26   14   15 ar  
    27   14   30 1   
    28   15   16 ar  
    29   15   31 1   
    30   16   17 ar  
    31   16   19 1   
    32   17   18 ar  
    33   17   32 1   
    34   18   33 1   
    35   19   20 2   
    36   19   21 1   
    37   20   34 1   
    38   21   35 1   
    39   21   36 1   
    40   21   38 1   
@<TRIPOS>SUBSTRUCTURE
     1 DAP         1 TEMP              0 ****  ****    0 ROOT
