@<TRIPOS>MOLECULE
DAP
   38    40     1     0     0
SMALL
bcc


@<TRIPOS>ATOM
      1 N1         -0.0240   -0.2300    0.0300 na        1 DAP     -0.169400
      2 C2          1.3430    0.0970   -0.0340 cc        1 DAP     -0.008300
      3 C3          1.7860    0.5190    1.2290 cd        1 DAP     -0.134200
      4 C4          0.4740    0.7760    3.4690 ca        1 DAP     -0.046000
      5 C5         -0.7820    0.6170    4.0310 ca        1 DAP     -0.147000
      6 C6         -1.8670    0.1450    3.2590 ca        1 DAP     -0.232900
      7 C7         -1.7340   -0.1800    1.9120 ca        1 DAP     -0.089000
      8 C8         -0.4650   -0.0170    1.3340 ca        1 DAP     -0.036200
      9 C9          0.6570    0.4620    2.1190 ca        1 DAP     -0.065800
     10 C10        -3.2040    0.0470    3.8850 ce        1 DAP      0.586800
     11 N2         -4.3000    0.6560    3.6440 n2        1 DAP     -0.703100
     12 N3         -3.2310   -0.9600    5.0060 nz        1 DAP     -0.823600
     13 C1'         2.1330    0.0220   -1.2520 ca        1 DAP      0.013200
     14 C2'         3.5210   -0.1800   -1.1530 ca        1 DAP     -0.107000
     15 C3'         4.3140   -0.2020   -2.2960 ca        1 DAP     -0.083500
     16 C4'         3.7260   -0.0250   -3.5550 ca        1 DAP     -0.254900
     17 C5'         2.3440    0.1640   -3.6660 ca        1 DAP     -0.083500
     18 C6'         1.5520    0.1850   -2.5190 ca        1 DAP     -0.107000
     19 C11         4.5670    0.0400   -4.7690 ce        1 DAP      0.582800
     20 N4          4.8410    1.0060   -5.5560 n2        1 DAP     -0.694100
     21 N5          5.1890   -1.2920   -5.1030 nz        1 DAP     -0.823600
     22 HN1        -0.5690   -0.5790   -0.7150 hn        1 DAP      0.315700
     23 H3          2.7880    0.8510    1.4910 ha        1 DAP      0.181000
     24 H4          1.3170    1.1540    4.0700 ha        1 DAP      0.171000
     25 H5         -0.9390    0.8990    5.0830 ha        1 DAP      0.141000
     26 H7         -2.5860   -0.5410    1.3180 ha        1 DAP      0.154000
     27 HN2        -4.3210    1.3430    2.9180 hn        1 DAP      0.491400
     28 HN31       -3.0820   -1.8930    4.6080 hn        1 DAP      0.472800
     29 HN32       -4.1240   -0.9460    5.5170 hn        1 DAP      0.472800
     30 H2'         3.9860   -0.3140   -0.1620 ha        1 DAP      0.164500
     31 H3'         5.4030   -0.3310   -2.1950 ha        1 DAP      0.154500
     32 H5'         1.8750    0.3090   -4.6530 ha        1 DAP      0.154500
     33 H6'         0.4690    0.3590   -2.6250 ha        1 DAP      0.164500
     34 HN4         4.4580    1.9110   -5.3710 hn        1 DAP      0.495400
     35 HN51        5.6810   -1.6350   -4.2710 hn        1 DAP      0.473467
     36 HN52        4.4410   -1.9480   -5.3490 hn        1 DAP      0.473467
     37 H33        -2.4620   -0.7420    5.6510 hn        1 DAP      0.472800
     38 H53         5.8510   -1.2220   -5.8890 hn        1 DAP      0.473467
@<TRIPOS>BOND
     1    1    2 1   
     2    1    8 1   
     3    1   22 1   
     4    2    3 2   
     5    2   13 1   
     6    3    9 1   
     7    3   23 1   
     8    4    5 ar  
     9    4    9 ar  
    10    4   24 1   
    11    5    6 ar  
    12    5   25 1   
    13    6    7 ar  
    14    6   10 1   
    15    7    8 ar  
    16    7   26 1   
    17    8    9 ar  
    18   10   11 2   
    19   10   12 1   
    20   11   27 1   
    21   12   28 1   
    22   12   29 1   
    23   12   37 1   
    24   13   14 ar  
    25   13   18 ar  
    26   14   15 ar  
    27   14   30 1   
    28   15   16 ar  
    29   15   31 1   
    30   16   17 ar  
    31   16   19 1   
    32   17   18 ar  
    33   17   32 1   
    34   18   33 1   
    35   19   20 2   
    36   19   21 1   
    37   20   34 1   
    38   21   35 1   
    39   21   36 1   
    40   21   38 1   
@<TRIPOS>SUBSTRUCTURE
     1 DAP         1 TEMP              0 ****  ****    0 ROOT
