@<TRIPOS>MOLECULE
DAP
   36    28     1     0     0
SMALL
bcc


@<TRIPOS>ATOM
      1 N1         -1.0390   -0.0430   -0.0340 n2        1 DAP     -0.204000
      2 C2          0.3270    0.0000   -0.0260 c2        1 DAP      0.007000
      3 C3          0.7470    0.0080    1.2890 c1        1 DAP     -0.176000
      4 C4         -0.5290   -0.0190    3.4890 c1        1 DAP     -0.082000
      5 C5         -1.8000   -0.0390    4.0440 c1        1 DAP     -0.128000
      6 C6         -2.9170   -0.0720    3.2200 c1        1 DAP     -0.103500
      7 C7         -2.7620   -0.0840    1.8420 c1        1 DAP     -0.108000
      8 C8         -1.4750   -0.0630    1.2780 c1        1 DAP     -0.001000
      9 C9         -0.3710   -0.0310    2.0920 c1        1 DAP     -0.077000
     10 C10        -4.2930   -0.1660    3.8410 c2        1 DAP      0.114000
     11 N2         -4.8090   -1.3360    4.1110 n1        1 DAP     -0.300500
     12 N3         -5.0230    1.0150    4.1310 n3        1 DAP     -0.331000
     13 C1'         1.0900    0.0050   -1.1820 c1        1 DAP     -0.013000
     14 C2'         1.5770   -1.1870   -1.6950 c1        1 DAP     -0.105000
     15 C3'         2.3840   -1.1780   -2.8210 c1        1 DAP     -0.105000
     16 C4'         2.7060    0.0230   -3.4340 c1        1 DAP     -0.103500
     17 C5'         2.2200    1.2150   -2.9210 c1        1 DAP     -0.128000
     18 C6'         1.4120    1.2060   -1.7950 c1        1 DAP     -0.129000
     19 C11         3.6180    0.0350   -4.6400 c2        1 DAP      0.114000
     20 N4          3.1120    0.1080   -5.8420 n1        1 DAP     -0.300500
     21 N5          5.0250   -0.0310   -4.4660 n3        1 DAP     -0.331000
     22 HN1        -1.5700   -0.0570   -0.7750 DU        1 DAP      0.178750
     23 H3          1.6730    0.0370    1.5950 DU        1 DAP      0.178750
     24 H4          0.2570    0.0040    4.0680 ha        1 DAP      0.139000
     25 H5         -1.9090   -0.0310    5.0140 ha        1 DAP      0.140000
     26 H7         -3.5480   -0.1060    1.2630 ha        1 DAP      0.151000
     27 HN2        -4.3390   -2.0970    3.9250 DU        1 DAP      0.178750
     28 HN31       -4.6590    1.8340    3.9470 hn        1 DAP      0.193250
     29 HN32       -5.8600    0.9580    4.4930 hn        1 DAP      0.193250
     30 H2'         1.3500   -2.0330   -1.2640 ha        1 DAP      0.150000
     31 H3'         2.7270   -2.0180   -3.1830 ha        1 DAP      0.150000
     32 H5'         2.4460    2.0600   -3.3530 ha        1 DAP      0.140000
     33 H6'         1.0690    2.0450   -1.4330 ha        1 DAP      0.135000
     34 HN4         2.2060    0.1510   -5.9550 DU        1 DAP      0.178750
     35 HN51        5.3890    0.0890   -3.6360 hn        1 DAP      0.193250
     36 HN52        5.5660   -0.2010   -5.1830 hn        1 DAP      0.193250
@<TRIPOS>BOND
     1    1    2 1   
     2    1    8 1   
     3    2    3 1   
     4    2   13 1   
     5    3    9 1   
     6    4    9 1   
     7    4   24 1   
     8    5    6 1   
     9    5   25 1   
    10    6   10 1   
    11    7    8 1   
    12    7   26 1   
    13   10   11 1   
    14   10   12 1   
    15   12   28 1   
    16   12   29 1   
    17   13   18 1   
    18   14   15 1   
    19   14   30 1   
    20   15   31 1   
    21   16   17 1   
    22   16   19 1   
    23   17   32 1   
    24   18   33 1   
    25   19   20 1   
    26   19   21 1   
    27   21   35 1   
    28   21   36 1   
@<TRIPOS>SUBSTRUCTURE
     1 DAP         1 TEMP              0 ****  ****    0 ROOT
