@<TRIPOS>MOLECULE
DAR
   26    25     1     0     0
SMALL
bcc


@<TRIPOS>ATOM
      1 N          16.9960   -6.1660   32.1320 n3        1 DAR     -0.889800
      2 CA         18.2820   -6.7450   31.7750 c3        1 DAR      0.037500
      3 CB         18.3620   -8.2540   32.0520 c3        1 DAR     -0.076400
      4 CG         18.2420   -9.0840   30.7890 c3        1 DAR     -0.109400
      5 CD         19.5930   -9.3970   30.1430 c3        1 DAR     -0.002700
      6 NE         20.5060   -8.2840   30.0110 nh        1 DAR     -0.356100
      7 CZ         20.2760   -7.2410   29.1160 cz        1 DAR      0.496300
      8 NH1        19.5300   -7.4400   27.9700 nh        1 DAR     -0.507200
      9 NH2        20.9300   -6.0450   29.3030 nh        1 DAR     -0.507200
     10 C          19.5130   -6.0220   32.4010 c         1 DAR      0.881600
     11 O          20.6770   -6.4230   32.0470 o         1 DAR     -0.831800
     12 OXT        19.3340   -5.0560   33.1740 o         1 DAR     -0.831800
     13 H          17.1050   -5.1660   32.1750 hn        1 DAR      0.349800
     14 H2         16.7340   -6.4700   33.0520 hn        1 DAR      0.349800
     15 HA         18.3780   -6.5760   30.6590 h1        1 DAR      0.008700
     16 HB2        19.3340   -8.4760   32.5690 hc        1 DAR      0.060200
     17 HB3        17.5480   -8.5700   32.7580 hc        1 DAR      0.060200
     18 HG2        17.7640  -10.0710   31.0320 hc        1 DAR      0.053200
     19 HG3        17.5750   -8.5680   30.0500 hc        1 DAR      0.053200
     20 HD2        20.1420  -10.1400   30.7970 h1        1 DAR      0.063200
     21 HD3        19.4310   -9.8920   29.1450 h1        1 DAR      0.063200
     22 HE         20.8710   -7.9660   30.9220 hn        1 DAR      0.359700
     23 HH11       19.4450   -6.7260   27.2870 hn        1 DAR      0.318700
     24 HH12       19.0650   -8.3010   27.8150 hn        1 DAR      0.318700
     25 HH21       21.2350   -5.8160   30.2490 hn        1 DAR      0.318700
     26 HH22       20.7870   -5.2960   28.6680 hn        1 DAR      0.318700
@<TRIPOS>BOND
     1    1    2 1   
     2    1   13 1   
     3    1   14 1   
     4    2    3 1   
     5    2   10 1   
     6    2   15 1   
     7    3    4 1   
     8    3   16 1   
     9    3   17 1   
    10    4    5 1   
    11    4   18 1   
    12    4   19 1   
    13    5    6 1   
    14    5   20 1   
    15    5   21 1   
    16    6    7 2   
    17    6   22 1   
    18    7    8 1   
    19    7    9 1   
    20    8   23 1   
    21    8   24 1   
    22    9   25 1   
    23    9   26 1   
    24   10   11 1   
    25   10   12 1   
@<TRIPOS>SUBSTRUCTURE
     1 DAR         1 TEMP              0 ****  ****    0 ROOT
