@<TRIPOS>MOLECULE
DAR
   26    24     1     0     0
SMALL
bcc


@<TRIPOS>ATOM
      1 N          -2.4090    1.4990   -2.5930 n3        1 DAR     -0.890800
      2 CA         -1.0120    1.2970   -2.4780 c3        1 DAR      0.073500
      3 CB         -0.6090    1.2570   -0.9690 c3        1 DAR     -0.071400
      4 CG         -0.0850   -0.1680   -0.6090 c3        1 DAR     -0.107400
      5 CD          0.2310   -0.2430    0.9400 c3        1 DAR      0.195800
      6 NE          0.7040   -1.5530    1.2730 nh        1 DAR     -0.798200
      7 CZ          1.1590   -1.8300    2.6520 c2        1 DAR      0.989100
      8 NH1         2.5800   -1.9800    2.9360 nh        1 DAR     -0.863800
      9 NH2         0.2550   -1.9450    3.6510 n2        1 DAR     -0.853100
     10 C          -0.2960    2.4090   -3.1540 c         1 DAR      0.864600
     11 O           0.5480    2.1640   -4.0290 o         1 DAR     -0.864800
     12 OXT        -0.5000    3.6010   -2.7930 o         1 DAR     -0.864800
     13 H          -2.5810    2.1170   -3.2910 hn        1 DAR      0.348800
     14 H2         -2.8060    0.7290   -2.7780 hn        1 DAR      0.348800
     15 HA         -0.7650    0.4320   -2.9090 h1        1 DAR      0.069700
     16 HB2        -1.3640    1.4620   -0.4340 hc        1 DAR      0.049700
     17 HB3         0.0790    1.8990   -0.8060 hc        1 DAR      0.049700
     18 HG2         0.7060   -0.3440   -1.1010 hc        1 DAR      0.062200
     19 HG3        -0.7600   -0.8260   -0.8350 hc        1 DAR      0.062200
     20 HD2         0.9050    0.4040    1.1600 h1        1 DAR      0.057700
     21 HD3        -0.5880   -0.0510    1.4530 h1        1 DAR      0.057700
     22 HE          0.6920   -2.2020    0.6680 hn        1 DAR      0.469800
     23 HH11        3.1820   -2.0240    2.2590 hn        1 DAR      0.451800
     24 HH12        2.8540   -2.1350    3.7930 hn        1 DAR      0.451800
     25 HH21       -0.6660   -1.8490    3.4710 DU        1 DAR      0.228000
     26 HH22        0.5460   -2.1190    4.5240 hn        1 DAR      0.483400
@<TRIPOS>BOND
     1    1    2 1   
     2    1   13 1   
     3    1   14 1   
     4    2    3 1   
     5    2   10 1   
     6    2   15 1   
     7    3    4 1   
     8    3   16 1   
     9    3   17 1   
    10    4    5 1   
    11    4   18 1   
    12    4   19 1   
    13    5    6 1   
    14    5   20 1   
    15    5   21 1   
    16    6    7 1   
    17    6   22 1   
    18    7    8 1   
    19    7    9 2   
    20    8   23 1   
    21    8   24 1   
    22    9   26 1   
    23   10   11 1   
    24   10   12 1   
@<TRIPOS>SUBSTRUCTURE
     1 DAR         1 TEMP              0 ****  ****    0 ROOT
