@<TRIPOS>MOLECULE
DAS
   14    13     1     0     0
SMALL
bcc


@<TRIPOS>ATOM
      1 N          -1.8010    0.5270   -0.0030 n3        1 DAS     -0.904800
      2 CA         -0.3800    0.4780    0.0080 c3        1 DAS      0.077500
      3 C           0.1140    0.4960    1.4370 c         1 DAS      0.909600
      4 O           1.0260    1.2940    1.7780 o         1 DAS     -0.881300
      5 CB          0.0860   -0.7900   -0.6700 c3        1 DAS     -0.154400
      6 CG          1.5980   -0.8050   -0.7280 c         1 DAS      0.896600
      7 OD1         2.2040   -0.0680   -1.5500 o         1 DAS     -0.893800
      8 OD2         2.2500   -1.5530    0.0460 o         1 DAS     -0.893800
      9 OXT        -0.3860   -0.2880    2.2860 o         1 DAS     -0.881300
     10 H          -2.0980    0.5910   -0.8670 hn        1 DAS      0.331300
     11 H2         -2.0860    1.2560    0.4730 hn        1 DAS      0.331300
     12 HA         -0.0230    1.2530   -0.4690 h1        1 DAS     -0.007300
     13 HB2        -0.2280   -1.5650   -0.1630 hc        1 DAS      0.035200
     14 HB3        -0.2750   -0.8260   -1.5780 hc        1 DAS      0.035200
@<TRIPOS>BOND
     1    1    2 1   
     2    1   10 1   
     3    1   11 1   
     4    2    3 1   
     5    2    5 1   
     6    2   12 1   
     7    3    4 1   
     8    3    9 1   
     9    5    6 1   
    10    5   13 1   
    11    5   14 1   
    12    6    7 1   
    13    6    8 1   
@<TRIPOS>SUBSTRUCTURE
     1 DAS         1 TEMP              0 ****  ****    0 ROOT
