@<TRIPOS>MOLECULE
DAS
   14    13     1     0     0
SMALL
bcc


@<TRIPOS>ATOM
      1 N           1.7280   -0.1970   -0.4330 n3        1 DAS     -0.918800
      2 CA          0.3940    0.3680   -0.5550 c3        1 DAS      0.067500
      3 C          -0.1860    0.1800   -1.9880 c         1 DAS      0.909600
      4 O          -0.0900   -0.9510   -2.5560 o         1 DAS     -0.879300
      5 CB         -0.6360   -0.1760    0.4470 c3        1 DAS     -0.195400
      6 CG         -0.2110   -0.0930    1.9110 c         1 DAS      0.899600
      7 OD1        -0.8790    0.6370    2.7090 o         1 DAS     -0.887800
      8 OD2         0.7710   -0.7890    2.3250 o         1 DAS     -0.887800
      9 OXT        -0.7420    1.1740   -2.5460 o         1 DAS     -0.879300
     10 H           1.7500   -1.0660   -0.9360 hn        1 DAS      0.340800
     11 H2          1.9080   -0.4020    0.5370 hn        1 DAS      0.340800
     12 HA          0.4990    1.4770   -0.3710 h1        1 DAS      0.034700
     13 HB2        -1.5860    0.4000    0.3100 hc        1 DAS      0.027700
     14 HB3        -0.8410   -1.2500    0.2050 hc        1 DAS      0.027700
@<TRIPOS>BOND
     1    1    2 1   
     2    1   10 1   
     3    1   11 1   
     4    2    3 1   
     5    2    5 1   
     6    2   12 1   
     7    3    4 1   
     8    3    9 1   
     9    5    6 1   
    10    5   13 1   
    11    5   14 1   
    12    6    7 1   
    13    6    8 1   
@<TRIPOS>SUBSTRUCTURE
     1 DAS         1 TEMP              0 ****  ****    0 ROOT
