@<TRIPOS>MOLECULE
DAV
   19    18     1     0     0
SMALL
bcc


@<TRIPOS>ATOM
      1 OT1        -1.5400   -1.7030   -1.5970 o         1 DAV     -0.502000
      2 OT2        -0.0390   -0.2080   -2.0560 oh        1 DAV     -0.587100
      3 CB          0.4090    0.2950    0.7940 c3        1 DAV     -0.088400
      4 CG          1.5990   -0.6360    0.6770 c3        1 DAV     -0.089400
      5 CD          2.9160    0.1330    0.5680 c3        1 DAV      0.156800
      6 NE          3.0790    0.8030   -0.7010 n3        1 DAV     -0.930800
      7 C          -0.8460   -0.7990   -1.1270 c         1 DAV      0.624100
      8 CA         -0.8700   -0.3430    0.3010 c3        1 DAV     -0.176400
      9 HCB1        0.2690    0.5840    1.8700 hc        1 DAV      0.057700
     10 HCB2        0.6000    1.2490    0.2340 hc        1 DAV      0.057700
     11 HCG1        1.4760   -1.3100   -0.2130 hc        1 DAV      0.050700
     12 HCG2        1.6520   -1.2940    1.5840 hc        1 DAV      0.050700
     13 HCD1        3.7550   -0.5960    0.7800 h1        1 DAV      0.030200
     14 HCD2        2.9470    0.9180    1.3760 h1        1 DAV      0.030200
     15 HT1         3.0570    0.1500   -1.4590 hn        1 DAV      0.355300
     16 HT2         3.9430    1.3080   -0.7230 hn        1 DAV      0.355300
     17 HT3         0.5060    0.4800   -1.6460 ho        1 DAV      0.440000
     18 HCA1       -1.1190   -1.2360    0.9360 hc        1 DAV      0.082700
     19 HCA2       -1.7180    0.3880    0.4030 hc        1 DAV      0.082700
@<TRIPOS>BOND
     1    1    7 2   
     2    2    7 1   
     3    2   17 1   
     4    3    4 1   
     5    3    8 1   
     6    3    9 1   
     7    3   10 1   
     8    4    5 1   
     9    4   11 1   
    10    4   12 1   
    11    5    6 1   
    12    5   13 1   
    13    5   14 1   
    14    6   15 1   
    15    6   16 1   
    16    7    8 1   
    17    8   18 1   
    18    8   19 1   
@<TRIPOS>SUBSTRUCTURE
     1 DAV         1 TEMP              0 ****  ****    0 ROOT
