@<TRIPOS>MOLECULE
DAV
   19    18     1     0     0
SMALL
bcc


@<TRIPOS>ATOM
      1 OT1        -2.7000   -1.5010   -2.4970 o         1 DAV     -0.569300
      2 OT2        -0.8120   -1.5010   -3.5880 o         1 DAV     -0.569300
      3 CB         -0.4310   -0.0750   -0.7510 c3        1 DAV     -0.071400
      4 CG          0.3210   -0.0750    0.5610 c3        1 DAV     -0.080400
      5 CD          0.5780    1.3510    0.9950 c3        1 DAV      0.151800
      6 NE          1.2870    1.3510    2.2350 n4        1 DAV     -1.135600
      7 C          -1.4410   -1.5010   -2.4970 c         1 DAV      0.878600
      8 CA         -0.6850   -1.5010   -1.1870 c3        1 DAV     -0.172400
      9 HCB1       -1.2830    0.3870   -0.6380 hc        1 DAV      0.053700
     10 HCB2        0.1000    0.3830   -1.4310 hc        1 DAV      0.053700
     11 HCG1       -0.2110   -0.5310    1.2410 hc        1 DAV      0.047700
     12 HCG2        1.1720   -0.5390    0.4480 hc        1 DAV      0.047700
     13 HCD1        1.1110    1.8070    0.3160 hx        1 DAV      0.030700
     14 HCD2       -0.2730    1.8160    1.1060 hx        1 DAV      0.030700
     15 HT1         1.4420    2.2110    2.4960 hn        1 DAV      0.384133
     16 HT2         2.0810    0.9160    2.1310 hn        1 DAV      0.384133
     17 HT3         0.7880    0.9260    2.8700 hn        1 DAV      0.384133
     18 HCA1        0.1670   -1.9630   -1.3030 hc        1 DAV      0.076700
     19 HCA2       -1.2130   -1.9600   -0.5060 hc        1 DAV      0.076700
@<TRIPOS>BOND
     1    1    7 1   
     2    2    7 1   
     3    3    4 1   
     4    3    8 1   
     5    3    9 1   
     6    3   10 1   
     7    4    5 1   
     8    4   11 1   
     9    4   12 1   
    10    5    6 1   
    11    5   13 1   
    12    5   14 1   
    13    6   15 1   
    14    6   16 1   
    15    6   17 1   
    16    7    8 1   
    17    8   18 1   
    18    8   19 1   
@<TRIPOS>SUBSTRUCTURE
     1 DAV         1 TEMP              0 ****  ****    0 ROOT
