@<TRIPOS>MOLECULE
DAV
   19    18     1     0     0
SMALL
bcc


@<TRIPOS>ATOM
      1 OT1         1.3060    1.2740   -0.1910 o         1 DAV     -0.499000
      2 OT2         3.4050    1.8400   -0.0660 oh        1 DAV     -0.589100
      3 CB          3.5380   -0.8970    1.3170 c3        1 DAV     -0.071400
      4 CG          4.4220   -1.2500    2.4950 c3        1 DAV     -0.080400
      5 CD          5.7750   -0.5390    2.4580 c3        1 DAV      0.151800
      6 NE          5.6840    0.9010    2.5050 n3        1 DAV     -0.930800
      7 C           2.3600    1.1120    0.4260 c         1 DAV      0.627100
      8 CA          2.5790    0.2380    1.6250 c3        1 DAV     -0.172400
      9 HCB1        2.9410   -1.8000    1.0190 hc        1 DAV      0.053700
     10 HCB2        4.1810   -0.6300    0.4360 hc        1 DAV      0.053700
     11 HCG1        3.8950   -1.0260    3.4580 hc        1 DAV      0.047700
     12 HCG2        4.6310   -2.3530    2.4790 hc        1 DAV      0.047700
     13 HCD1        6.4000   -0.9580    3.3030 h1        1 DAV      0.030700
     14 HCD2        6.2990   -0.8110    1.4960 h1        1 DAV      0.030700
     15 HT1         6.5980    1.3090    2.4770 hn        1 DAV      0.352800
     16 HT2         5.2170    1.2030    3.3370 hn        1 DAV      0.352800
     17 HT3         4.1990    1.6770    0.4660 ho        1 DAV      0.443000
     18 HCA1        2.9730    0.8830    2.4550 hc        1 DAV      0.076700
     19 HCA2        1.5890   -0.1720    1.9560 hc        1 DAV      0.076700
@<TRIPOS>BOND
     1    1    7 2   
     2    2    7 1   
     3    2   17 1   
     4    3    4 1   
     5    3    8 1   
     6    3    9 1   
     7    3   10 1   
     8    4    5 1   
     9    4   11 1   
    10    4   12 1   
    11    5    6 1   
    12    5   13 1   
    13    5   14 1   
    14    6   15 1   
    15    6   16 1   
    16    7    8 1   
    17    8   18 1   
    18    8   19 1   
@<TRIPOS>SUBSTRUCTURE
     1 DAV         1 TEMP              0 ****  ****    0 ROOT
