@<TRIPOS>MOLECULE
DAV
   19    18     1     0     0
SMALL
bcc


@<TRIPOS>ATOM
      1 OT1         1.2990    1.5220    0.0070 o         1 DAV     -0.499000
      2 OT2         3.4370    1.9350    0.0220 oh        1 DAV     -0.589100
      3 CB          3.4500   -0.8430    1.3300 c3        1 DAV     -0.071400
      4 CG          4.3730   -1.2890    2.4450 c3        1 DAV     -0.080400
      5 CD          5.7690   -0.6750    2.3450 c3        1 DAV      0.151800
      6 NE          5.7850    0.7660    2.4320 n8        1 DAV     -0.930800
      7 C           2.3720    1.2690    0.5570 c         1 DAV      0.627100
      8 CA          2.5950    0.3490    1.7200 c3        1 DAV     -0.172400
      9 HCB1        2.7730   -1.6930    1.0470 hc        1 DAV      0.053700
     10 HCB2        4.0600   -0.5970    0.4190 hc        1 DAV      0.053700
     11 HCG1        3.9180   -1.0550    3.4430 hc        1 DAV      0.047700
     12 HCG2        4.5000   -2.4030    2.3920 hc        1 DAV      0.047700
     13 HCD1        6.4090   -1.1590    3.1430 h1        1 DAV      0.030700
     14 HCD2        6.2160   -0.9560    1.3490 h1        1 DAV      0.030700
     15 HT1         6.7220    1.1090    2.3600 hn        1 DAV      0.352800
     16 HT2         5.3880    1.0780    3.2970 hn        1 DAV      0.352800
     17 HT3         4.2460    1.7010    0.5020 ho        1 DAV      0.443000
     18 HCA1        3.0800    0.9420    2.5410 hc        1 DAV      0.076700
     19 HCA2        1.5990    0.0010    2.0990 hc        1 DAV      0.076700
@<TRIPOS>BOND
     1    1    7 2   
     2    2    7 1   
     3    2   17 1   
     4    3    4 1   
     5    3    8 1   
     6    3    9 1   
     7    3   10 1   
     8    4    5 1   
     9    4   11 1   
    10    4   12 1   
    11    5    6 1   
    12    5   13 1   
    13    5   14 1   
    14    6   15 1   
    15    6   16 1   
    16    7    8 1   
    17    8   18 1   
    18    8   19 1   
@<TRIPOS>SUBSTRUCTURE
     1 DAV         1 TEMP              0 ****  ****    0 ROOT
