@<TRIPOS>MOLECULE
DAV
   19    18     1     0     0
SMALL
bcc


@<TRIPOS>ATOM
      1 OT1         3.1160    1.1200   -0.4120 o         1 DAV     -0.514000
      2 OT2         3.5400    2.4840    1.2240 oh        1 DAV     -0.584100
      3 CB          3.1200   -1.1300    1.5440 c3        1 DAV     -0.072400
      4 CG          4.4680   -1.4160    2.1710 c3        1 DAV     -0.079400
      5 CD          5.5630   -0.4590    1.6950 c3        1 DAV      0.147800
      6 NE          5.6440    0.7550    2.4750 n3        1 DAV     -0.936800
      7 C           3.0980    1.2590    0.8130 c         1 DAV      0.639100
      8 CA          2.6030    0.2670    1.8240 c3        1 DAV     -0.159400
      9 HCB1        3.1800   -1.2840    0.4320 hc        1 DAV      0.056700
     10 HCB2        2.3790   -1.8720    1.9460 hc        1 DAV      0.056700
     11 HCG1        4.7740   -2.4580    1.8870 hc        1 DAV      0.044700
     12 HCG2        4.3780   -1.3900    3.2890 hc        1 DAV      0.044700
     13 HCD1        6.5410   -1.0260    1.6940 h1        1 DAV      0.037700
     14 HCD2        5.3460   -0.1650    0.6260 h1        1 DAV      0.037700
     15 HT1         5.9660    0.5630    3.4030 hn        1 DAV      0.353800
     16 HT2         6.2620    1.4100    2.0390 hn        1 DAV      0.353800
     17 HT3         3.6510    2.4890    2.1850 ho        1 DAV      0.434000
     18 HCA1        1.4800    0.2700    1.7570 hc        1 DAV      0.070200
     19 HCA2        2.8870    0.5840    2.8610 hc        1 DAV      0.070200
@<TRIPOS>BOND
     1    1    7 2   
     2    2    7 1   
     3    2   17 1   
     4    3    4 1   
     5    3    8 1   
     6    3    9 1   
     7    3   10 1   
     8    4    5 1   
     9    4   11 1   
    10    4   12 1   
    11    5    6 1   
    12    5   13 1   
    13    5   14 1   
    14    6   15 1   
    15    6   16 1   
    16    7    8 1   
    17    8   18 1   
    18    8   19 1   
@<TRIPOS>SUBSTRUCTURE
     1 DAV         1 TEMP              0 ****  ****    0 ROOT
