@<TRIPOS>MOLECULE
DAW
   57    52     1     0     0
SMALL
bcc


@<TRIPOS>ATOM
      1 N1          0.3460   -7.0520    6.1420 n3        1 DAW     -0.954000
      2 N3          3.3480    0.8120   -0.3230 n2        1 DAW     -0.090000
      3 C4         -0.2830   -3.3850    2.2520 c1        1 DAW     -0.431500
      4 C5         -0.5490   -4.7010    1.8760 c1        1 DAW     -0.066500
      5 C6         -0.7910   -5.6670    2.8490 c1        1 DAW     -0.066500
      6 C7         -0.0020   -2.3160    1.1740 c1        1 DAW      0.348000
      7 C8         -0.0190    0.1210    0.7090 c3        1 DAW      0.133000
      8 C10        -1.5370    2.0770    1.1820 c1        1 DAW     -0.105000
      9 C13        -0.0770    2.7660    3.4420 c1        1 DAW     -0.130000
     10 C15         1.1820    0.4870   -0.1430 c2        1 DAW     -0.094000
     11 S1         -1.0760   -6.5700    5.4530 s4        1 DAW      2.079800
     12 O1         -1.7990   -7.6890    4.9130 o         1 DAW     -0.540900
     13 O2         -2.0000   -6.0930    6.4450 o         1 DAW     -0.540900
     14 C1         -0.7670   -5.3190    4.1930 c1        1 DAW     -0.431500
     15 C2         -0.5010   -4.0080    4.5660 c2        1 DAW     -0.080000
     16 C3         -0.2590   -3.0400    3.5920 c2        1 DAW     -0.080000
     17 O3         -0.0130   -2.6220   -0.0040 o         1 DAW     -0.365000
     18 N2          0.3180   -0.9650    1.5650 n3        1 DAW     -0.371000
     19 C9         -0.4310    1.3220    1.5480 c2        1 DAW     -0.094000
     20 C11        -1.9140    3.1770    1.9470 c1        1 DAW     -0.122500
     21 C12        -1.1830    3.5200    3.0760 c1        1 DAW     -0.122500
     22 C14         0.3000    1.6650    2.6770 c2        1 DAW     -0.124000
     23 C16         2.3790    0.4430    0.5300 c1        1 DAW     -0.203000
     24 N4          2.7690    1.0860   -1.5250 n2        1 DAW     -0.005000
     25 N5          1.4290    0.8820   -1.4040 n2        1 DAW     -0.153000
     26 C17         0.4530    0.9840   -2.4720 c2        1 DAW     -0.052000
     27 C20         0.4780    3.7080   -6.6190 c3        1 DAW     -0.174000
     28 C21        -0.2110    4.8710   -7.3380 c3        1 DAW     -0.251000
     29 C18         0.8490    2.1290   -3.4210 c2        1 DAW      0.286000
     30 O4          1.7410    2.8910   -3.1130 o         1 DAW     -0.370000
     31 N6          0.2170    2.2440   -4.7110 n         1 DAW     -0.365000
     32 C19        -0.1250    3.5410   -5.2300 c3        1 DAW     -0.028000
     33 S2          0.7080    5.2890   -8.8080 sh        1 DAW     -0.020000
     34 HN1         0.6560   -6.6290    6.8890 hn        1 DAW      0.244500
     35 HN1A        0.7920   -7.7850    5.8110 hn        1 DAW      0.244500
     36 H5         -0.5650   -4.9460    0.9280 ha        1 DAW      0.161000
     37 H6         -0.9770   -6.5870    2.5860 ha        1 DAW      0.161000
     38 H8         -0.7620   -0.1420    0.1300 h1        1 DAW      0.152000
     39 H10        -2.0540    1.8350    0.3840 ha        1 DAW      0.161000
     40 H13         0.4380    3.0080    4.2380 ha        1 DAW      0.135000
     41 H2         -0.4840   -3.7620    5.5160 ha        1 DAW      0.153500
     42 H3         -0.0730   -2.1170    3.8560 ha        1 DAW      0.153500
     43 HN2         0.6630   -0.8020    2.3900 hn        1 DAW      0.233000
     44 H11        -2.6930    3.7080    1.6890 ha        1 DAW      0.137500
     45 H12        -1.4480    4.2940    3.6140 ha        1 DAW      0.137500
     46 H14         1.0770    1.1350    2.9350 ha        1 DAW      0.125000
     47 H16         2.5040    0.1880    1.4670 DU        1 DAW      0.193000
     48 H17        -0.4270    1.1660   -2.0920 ha        1 DAW      0.154500
     49 H17A        0.4250    0.1400   -2.9710 ha        1 DAW      0.154500
     50 H20         1.4390    3.8960   -6.5380 hc        1 DAW      0.103500
     51 H20A        0.3490    2.8830   -7.1330 hc        1 DAW      0.103500
     52 H21        -1.1260    4.6070   -7.5880 h1        1 DAW      0.102000
     53 H21A       -0.2460    5.6450   -6.7460 h1        1 DAW      0.102000
     54 HN6         0.0910    1.5030   -5.2220 hn        1 DAW      0.239000
     55 H19        -1.0970    3.6240   -5.2850 h1        1 DAW      0.102000
     56 H19A        0.2290    4.2370   -4.6340 h1        1 DAW      0.102000
     57 HS2         0.3090    6.3160   -9.2440 hs        1 DAW      0.031000
@<TRIPOS>BOND
     1    1   11 1   
     2    1   34 1   
     3    1   35 1   
     4    2   23 1   
     5    2   24 1   
     6    3    4 1   
     7    3   16 1   
     8    4   36 1   
     9    5   14 1   
    10    5   37 1   
    11    6   17 1   
    12    6   18 1   
    13    7   10 1   
    14    7   18 1   
    15    7   19 1   
    16    7   38 1   
    17    8   19 1   
    18    8   39 1   
    19    9   22 1   
    20    9   40 1   
    21   10   23 1   
    22   10   25 1   
    23   11   12 1   
    24   11   13 1   
    25   14   15 1   
    26   15   16 1   
    27   15   41 1   
    28   16   42 1   
    29   18   43 1   
    30   19   22 1   
    31   20   21 1   
    32   20   44 1   
    33   21   45 1   
    34   22   46 1   
    35   24   25 1   
    36   26   29 1   
    37   26   48 1   
    38   26   49 1   
    39   27   28 1   
    40   27   32 1   
    41   27   50 1   
    42   27   51 1   
    43   28   33 1   
    44   28   52 1   
    45   28   53 1   
    46   29   30 1   
    47   29   31 1   
    48   31   32 1   
    49   31   54 1   
    50   32   55 1   
    51   32   56 1   
    52   33   57 1   
@<TRIPOS>SUBSTRUCTURE
     1 DAW         1 TEMP              0 ****  ****    0 ROOT
