@<TRIPOS>MOLECULE
DAW
   57    59     1     0     0
SMALL
bcc


@<TRIPOS>ATOM
      1 N1         -7.7160    0.0240   -2.5450 n3        1 DAW     -1.027700
      2 N3          1.7880   -3.5650    0.0520 nc        1 DAW     -0.352000
      3 C4         -2.9830    0.3940   -0.6270 ca        1 DAW     -0.080600
      4 C5         -3.5960    1.5460   -1.1300 ca        1 DAW     -0.120500
      5 C6         -4.9830    1.5850   -1.2630 ca        1 DAW     -0.026000
      6 C7         -1.4940    0.3720   -0.5140 c         1 DAW      0.674700
      7 C8          0.4640   -0.1600    0.8980 c3        1 DAW      0.224300
      8 C10         1.7980    0.9910    2.6710 ca        1 DAW     -0.114500
      9 C13         0.5590   -0.4680    4.7040 ca        1 DAW     -0.128000
     10 C15         1.0700   -1.4470    0.4110 cd        1 DAW     -0.188900
     11 S1         -7.4620    0.5460   -1.0550 sy        1 DAW      1.524200
     12 O1         -7.8590    1.8950   -0.9580 o         1 DAW     -0.653800
     13 O2         -8.0110   -0.3730   -0.1370 o         1 DAW     -0.653800
     14 C1         -5.7700    0.4840   -0.9100 ca        1 DAW     -0.358500
     15 C2         -5.1410   -0.6610   -0.4100 ca        1 DAW     -0.026000
     16 C3         -3.7560   -0.7130   -0.2650 ca        1 DAW     -0.120500
     17 O3         -0.7630    0.7910   -1.4350 o         1 DAW     -0.606100
     18 N2         -0.9630   -0.1140    0.6630 n         1 DAW     -0.561900
     19 C9          0.8210    0.0400    2.3530 ca        1 DAW     -0.103300
     20 C11         2.1500    1.2080    4.0030 ca        1 DAW     -0.128000
     21 C12         1.5290    0.4830    5.0200 ca        1 DAW     -0.118000
     22 C14         0.2060   -0.6920    3.3730 ca        1 DAW     -0.114500
     23 C16         1.0280   -2.7580    0.9220 cc        1 DAW      0.262200
     24 N4          2.2580   -2.8590   -0.8940 nd        1 DAW     -0.175800
     25 N5          1.8490   -1.5740   -0.7600 na        1 DAW      0.059400
     26 C17         2.2560   -0.4840   -1.6150 c3        1 DAW     -0.042700
     27 C20         6.9640    0.3660   -1.7530 c3        1 DAW     -0.095400
     28 C21         8.2120    0.9860   -1.1800 c3        1 DAW      0.009700
     29 C18         3.4760    0.2670   -1.0470 c         1 DAW      0.642100
     30 O4          3.3300    1.4020   -0.5530 o         1 DAW     -0.609100
     31 N6          4.6840   -0.3820   -1.0950 n         1 DAW     -0.556900
     32 C19         5.9110    0.2180   -0.6490 c3        1 DAW      0.088000
     33 S2          9.4030    1.0530   -2.4900 sh        1 DAW     -0.373900
     34 HN1        -7.7620    0.6190   -3.3340 hn        1 DAW      0.450800
     35 HN1A       -7.8670   -0.9260   -2.7750 hn        1 DAW      0.450800
     36 H5         -2.9780    2.4090   -1.4250 ha        1 DAW      0.154000
     37 H6         -5.4710    2.5030   -1.6360 ha        1 DAW      0.159000
     38 H8          0.9260    0.7010    0.3070 h1        1 DAW      0.111700
     39 H10         2.2940    1.5630    1.8670 ha        1 DAW      0.142500
     40 H13         0.0710   -1.0440    5.5040 ha        1 DAW      0.137000
     41 H2         -5.7560   -1.5280   -0.1080 ha        1 DAW      0.159000
     42 H3         -3.2820   -1.6290    0.1180 ha        1 DAW      0.154000
     43 HN2        -1.5650   -0.4470    1.3770 hn        1 DAW      0.322500
     44 H11         2.9180    1.9560    4.2490 ha        1 DAW      0.137000
     45 H12         1.8060    0.6590    6.0700 ha        1 DAW      0.136000
     46 H14        -0.5470   -1.4580    3.1350 ha        1 DAW      0.142500
     47 H16         0.5460   -3.1550    1.8110 h4        1 DAW      0.056100
     48 H17         2.4890   -0.8750   -2.6460 h1        1 DAW      0.115200
     49 H17A        1.4000    0.2540   -1.6970 h1        1 DAW      0.115200
     50 H20         6.5650    1.0120   -2.5800 hc        1 DAW      0.064200
     51 H20A        7.2060   -0.6370   -2.1930 hc        1 DAW      0.064200
     52 H21         7.9990    2.0110   -0.7920 h1        1 DAW      0.062700
     53 H21A        8.6040    0.3730   -0.3320 h1        1 DAW      0.062700
     54 HN6         4.7360   -1.2840   -1.5050 hn        1 DAW      0.325500
     55 H19         6.3410   -0.4260    0.1730 h1        1 DAW      0.062700
     56 H19A        5.6840    1.2340   -0.2160 h1        1 DAW      0.062700
     57 HS2        10.3900    1.6460   -1.8440 hs        1 DAW      0.202800
@<TRIPOS>BOND
     1    1   11 1   
     2    1   34 1   
     3    1   35 1   
     4    2   23 1   
     5    2   24 2   
     6    3    4 ar  
     7    3    6 1   
     8    3   16 ar  
     9    4    5 ar  
    10    4   36 1   
    11    5   14 ar  
    12    5   37 1   
    13    6   17 2   
    14    6   18 1   
    15    7   10 1   
    16    7   18 1   
    17    7   19 1   
    18    7   38 1   
    19    8   19 ar  
    20    8   20 ar  
    21    8   39 1   
    22    9   21 ar  
    23    9   22 ar  
    24    9   40 1   
    25   10   23 2   
    26   10   25 1   
    27   11   12 2   
    28   11   13 2   
    29   11   14 1   
    30   14   15 ar  
    31   15   16 ar  
    32   15   41 1   
    33   16   42 1   
    34   18   43 1   
    35   19   22 ar  
    36   20   21 ar  
    37   20   44 1   
    38   21   45 1   
    39   22   46 1   
    40   23   47 1   
    41   24   25 1   
    42   25   26 1   
    43   26   29 1   
    44   26   48 1   
    45   26   49 1   
    46   27   28 1   
    47   27   32 1   
    48   27   50 1   
    49   27   51 1   
    50   28   33 1   
    51   28   52 1   
    52   28   53 1   
    53   29   30 2   
    54   29   31 1   
    55   31   32 1   
    56   31   54 1   
    57   32   55 1   
    58   32   56 1   
    59   33   57 1   
@<TRIPOS>SUBSTRUCTURE
     1 DAW         1 TEMP              0 ****  ****    0 ROOT
