@<TRIPOS>MOLECULE
DAW
   60    62     1     0     0
SMALL
bcc


@<TRIPOS>ATOM
      1 N1          0.1440   -0.2150    0.4850 n4        1 DAW     -0.805500
      2 N3          3.1230    8.2260   -6.8350 nc        1 DAW     -0.261000
      3 C4          2.6370    3.8500   -1.6790 ca        1 DAW     -0.095600
      4 C5          3.2390    3.1750   -0.6090 ca        1 DAW     -0.095000
      5 C6          2.8460    1.8690   -0.3100 ca        1 DAW      0.014000
      6 C7          3.0460    5.2540   -1.9240 c         1 DAW      0.558700
      7 C8          4.2200    6.8460   -3.5350 c3        1 DAW      0.291100
      8 C10         6.4180    6.7430   -2.3440 ca        1 DAW     -0.110000
      9 C13         7.5900    5.3830   -4.4900 ca        1 DAW     -0.111000
     10 C15         3.8860    7.5460   -4.8120 cd        1 DAW     -0.224900
     11 S1          1.5000   -0.3760   -0.8010 sy        1 DAW      1.454200
     12 O1          2.4790   -1.0080   -0.0740 o         1 DAW     -0.526800
     13 O2          0.8060   -0.9250   -1.8530 o         1 DAW     -0.526800
     14 C1          1.8480    1.2220   -1.0570 ca        1 DAW     -0.440500
     15 C2          1.2470    1.9260   -2.1170 ca        1 DAW      0.014000
     16 C3          1.6360    3.2270   -2.4330 ca        1 DAW     -0.095000
     17 O3          3.1800    6.1250   -1.0810 o         1 DAW     -0.365100
     18 N2          3.3200    5.6220   -3.3670 n4        1 DAW     -0.682800
     19 C9          5.6570    6.4290   -3.4790 ca        1 DAW     -0.227300
     20 C11         7.7630    6.3830   -2.2920 ca        1 DAW     -0.111000
     21 C12         8.3500    5.7020   -3.3610 ca        1 DAW     -0.056000
     22 C14         6.2460    5.7450   -4.5520 ca        1 DAW     -0.110000
     23 C16         3.1050    7.1550   -5.9180 cc        1 DAW      0.274200
     24 N4          3.8260    9.1730   -6.3750 nd        1 DAW     -0.174800
     25 N5          4.3270    8.8450   -5.1560 na        1 DAW      0.052400
     26 C17         5.1630    9.7160   -4.3640 c3        1 DAW     -0.024700
     27 C20         6.1110   13.6870   -7.2150 c3        1 DAW     -0.115400
     28 C21         5.1130   14.4650   -6.4010 c3        1 DAW     -0.019300
     29 C18         6.2320   10.4660   -5.1650 c         1 DAW      0.523100
     30 O4          7.4260   10.3580   -4.9230 o         1 DAW     -0.384100
     31 N6          5.7760   11.4060   -6.2160 n4        1 DAW     -0.712800
     32 C19         6.7450   12.5270   -6.4560 c3        1 DAW      0.108800
     33 S2          3.7430   13.4810   -5.8260 sh        1 DAW     -0.365900
     34 HN1        -0.0820    0.7420    0.7450 hn        1 DAW      0.476133
     35 HN1A        0.4060   -0.7080    1.3460 hn        1 DAW      0.476133
     36 H5          4.0170    3.6680    0.0040 ha        1 DAW      0.182500
     37 H6          3.3560    1.3350    0.5190 ha        1 DAW      0.200000
     38 H8          3.9790    7.5390   -2.6630 hx        1 DAW      0.136700
     39 H10         5.9620    7.2770   -1.4940 ha        1 DAW      0.144500
     40 H13         8.0560    4.8480   -5.3350 ha        1 DAW      0.178500
     41 H2          0.4640    1.4350   -2.7330 ha        1 DAW      0.200000
     42 H3          1.1270    3.7470   -3.2610 ha        1 DAW      0.182500
     43 HN2         2.4180    5.8010   -3.8270 hn        1 DAW      0.469300
     44 H11         8.3660    6.6380   -1.4030 ha        1 DAW      0.178500
     45 H12         9.4170    5.4190   -3.3170 ha        1 DAW      0.184000
     46 H14         5.6600    5.5130   -5.4550 ha        1 DAW      0.144500
     47 H16         2.5610    6.2400   -6.1510 h4        1 DAW      0.074100
     48 H17         5.7100    9.0880   -3.5950 h1        1 DAW      0.127700
     49 H17A        4.5200   10.4820   -3.8310 h1        1 DAW      0.127700
     50 H20         5.6480   13.3320   -8.1750 hc        1 DAW      0.105200
     51 H20A        6.9560   14.3800   -7.5040 hc        1 DAW      0.105200
     52 H21         5.5800   14.8720   -5.4660 h1        1 DAW      0.124200
     53 H21A        4.7420   15.3420   -6.9920 h1        1 DAW      0.124200
     54 HN6         4.8140   11.8670   -5.9640 hn        1 DAW      0.483800
     55 H19         7.1210   12.8830   -5.4540 hx        1 DAW      0.115700
     56 H19A        7.6240   12.1200   -7.0340 hx        1 DAW      0.115700
     57 HS2         2.9450   13.5080   -6.8940 hs        1 DAW      0.262800
     58 H131       -0.7220   -0.6500    0.1500 hn        1 DAW      0.476133
     59 H22         3.7770    4.8240   -3.8300 hn        1 DAW      0.469300
     60 H62         5.6540   10.8850   -7.0930 hn        1 DAW      0.483800
@<TRIPOS>BOND
     1    1   11 1   
     2    1   34 1   
     3    1   35 1   
     4    1   58 1   
     5    2   23 1   
     6    2   24 2   
     7    3    4 ar  
     8    3    6 1   
     9    3   16 ar  
    10    4    5 ar  
    11    4   36 1   
    12    5   14 ar  
    13    5   37 1   
    14    6   17 2   
    15    6   18 1   
    16    7   10 1   
    17    7   18 1   
    18    7   19 1   
    19    7   38 1   
    20    8   19 ar  
    21    8   20 ar  
    22    8   39 1   
    23    9   21 ar  
    24    9   22 ar  
    25    9   40 1   
    26   10   23 2   
    27   10   25 1   
    28   11   12 2   
    29   11   13 2   
    30   11   14 1   
    31   14   15 ar  
    32   15   16 ar  
    33   15   41 1   
    34   16   42 1   
    35   18   43 1   
    36   18   59 1   
    37   19   22 ar  
    38   20   21 ar  
    39   20   44 1   
    40   21   45 1   
    41   22   46 1   
    42   23   47 1   
    43   24   25 1   
    44   25   26 1   
    45   26   29 1   
    46   26   48 1   
    47   26   49 1   
    48   27   28 1   
    49   27   32 1   
    50   27   50 1   
    51   27   51 1   
    52   28   33 1   
    53   28   52 1   
    54   28   53 1   
    55   29   30 2   
    56   29   31 1   
    57   31   32 1   
    58   31   54 1   
    59   31   60 1   
    60   32   55 1   
    61   32   56 1   
    62   33   57 1   
@<TRIPOS>SUBSTRUCTURE
     1 DAW         1 TEMP              0 ****  ****    0 ROOT
