@<TRIPOS>MOLECULE
DAW
   60    62     1     0     0
SMALL
bcc


@<TRIPOS>ATOM
      1 N1         -0.7300    0.2510    0.0240 nz        1 DAW     -0.805500
      2 N3          2.9130    7.9940   -6.2910 nc        1 DAW     -0.263000
      3 C4          2.6120    3.9230   -1.6620 ca        1 DAW     -0.097600
      4 C5          2.5140    3.6630   -0.2890 ca        1 DAW     -0.095500
      5 C6          1.9960    2.4410    0.1460 ca        1 DAW      0.014500
      6 C7          3.1370    5.2480   -2.0730 c         1 DAW      0.546700
      7 C8          4.8670    6.5770   -3.4310 c3        1 DAW      0.293100
      8 C10         7.2570    6.6140   -2.6970 ca        1 DAW     -0.106000
      9 C13         8.1060    5.6280   -5.1740 ca        1 DAW     -0.111000
     10 C15         4.1870    7.2910   -4.5520 cd        1 DAW     -0.211900
     11 S1          1.1030   -0.0360   -0.2550 sy        1 DAW      1.454200
     12 O1          1.5260   -0.2940    1.0260 o         1 DAW     -0.526300
     13 O2          1.0770   -0.9430   -1.2860 o         1 DAW     -0.526300
     14 C1          1.5580    1.4700   -0.7690 ca        1 DAW     -0.440500
     15 C2          1.6460    1.7630   -2.1430 ca        1 DAW      0.014500
     16 C3          2.1700    2.9740   -2.5920 ca        1 DAW     -0.095500
     17 O3          2.8180    6.3270   -1.6030 o         1 DAW     -0.363100
     18 N2          4.2000    5.2300   -3.1470 ny        1 DAW     -0.681800
     19 C9          6.3200    6.3380   -3.7040 ca        1 DAW     -0.240300
     20 C11         8.6130    6.4000   -2.9350 ca        1 DAW     -0.111000
     21 C12         9.0390    5.9050   -4.1710 ca        1 DAW     -0.050000
     22 C14         6.7490    5.8440   -4.9440 ca        1 DAW     -0.106000
     23 C16         3.1760    6.8930   -5.4480 cc        1 DAW      0.272200
     24 N4          3.6570    8.9660   -5.9720 nd        1 DAW     -0.176800
     25 N5          4.4630    8.6270   -4.9320 na        1 DAW      0.051400
     26 C17         5.4070    9.5280   -4.3150 c3        1 DAW     -0.024700
     27 C20         5.4450   13.6390   -7.1280 c3        1 DAW     -0.115400
     28 C21         4.6390   14.3330   -6.0630 c3        1 DAW     -0.019300
     29 C18         6.2150   10.3700   -5.3080 c         1 DAW      0.523100
     30 O4          7.4360   10.3300   -5.3580 o         1 DAW     -0.384100
     31 N6          5.4730   11.3130   -6.1780 ny        1 DAW     -0.712800
     32 C19         6.2990   12.4940   -6.5960 c3        1 DAW      0.108800
     33 S2          3.4960   13.2550   -5.2210 sh        1 DAW     -0.364900
     34 HN1        -1.0460    1.1960   -0.1780 hn        1 DAW      0.475800
     35 HN1A       -1.2850   -0.3850   -0.5590 hn        1 DAW      0.475800
     36 H5          2.8370    4.4160    0.4540 ha        1 DAW      0.182000
     37 H6          1.9580    2.2370    1.2370 ha        1 DAW      0.200500
     38 H8          4.7480    7.1930   -2.4800 hx        1 DAW      0.133700
     39 H10         6.9330    7.0060   -1.7190 ha        1 DAW      0.143500
     40 H13         8.4440    5.2390   -6.1490 ha        1 DAW      0.180000
     41 H2          1.3170    1.0100   -2.8900 ha        1 DAW      0.200500
     42 H3          2.2070    3.1660   -3.6770 ha        1 DAW      0.182000
     43 HN2         4.9470    4.5800   -2.8510 hn        1 DAW      0.472800
     44 H11         9.3520    6.6210   -2.1460 ha        1 DAW      0.180000
     45 H12        10.1160    5.7340   -4.3560 ha        1 DAW      0.185000
     46 H14         6.0200    5.6380   -5.7430 ha        1 DAW      0.143500
     47 H16         2.6280    5.9610   -5.5810 h4        1 DAW      0.068100
     48 H17         4.8610   10.2330   -3.6160 h1        1 DAW      0.128700
     49 H17A        6.1540    8.9160   -3.7200 h1        1 DAW      0.128700
     50 H20         6.1600   14.3870   -7.5810 hc        1 DAW      0.105200
     51 H20A        4.7800   13.2880   -7.9630 hc        1 DAW      0.105200
     52 H21         4.0960   15.2070   -6.5080 h1        1 DAW      0.124200
     53 H21A        5.3000   14.7340   -5.2500 h1        1 DAW      0.124200
     54 HN6         4.5790   11.7090   -5.6820 hn        1 DAW      0.483800
     55 H19         7.0300   12.1560   -7.3860 hx        1 DAW      0.115700
     56 H19A        6.8910   12.8390   -5.6990 hx        1 DAW      0.115700
     57 HS2         2.4650   13.2700   -6.0670 hs        1 DAW      0.261800
     58 H131       -0.9800    0.0500    0.9980 hn        1 DAW      0.475800
     59 H22         3.7890    4.8620   -4.0130 hn        1 DAW      0.472800
     60 H62         5.1680   10.8110   -7.0210 hn        1 DAW      0.483800
@<TRIPOS>BOND
     1    1   11 1   
     2    1   34 1   
     3    1   35 1   
     4    1   58 1   
     5    2   23 1   
     6    2   24 2   
     7    3    4 ar  
     8    3    6 1   
     9    3   16 ar  
    10    4    5 ar  
    11    4   36 1   
    12    5   14 ar  
    13    5   37 1   
    14    6   17 2   
    15    6   18 1   
    16    7   10 1   
    17    7   18 1   
    18    7   19 1   
    19    7   38 1   
    20    8   19 ar  
    21    8   20 ar  
    22    8   39 1   
    23    9   21 ar  
    24    9   22 ar  
    25    9   40 1   
    26   10   23 2   
    27   10   25 1   
    28   11   12 2   
    29   11   13 2   
    30   11   14 1   
    31   14   15 ar  
    32   15   16 ar  
    33   15   41 1   
    34   16   42 1   
    35   18   43 1   
    36   18   59 1   
    37   19   22 ar  
    38   20   21 ar  
    39   20   44 1   
    40   21   45 1   
    41   22   46 1   
    42   23   47 1   
    43   24   25 1   
    44   25   26 1   
    45   26   29 1   
    46   26   48 1   
    47   26   49 1   
    48   27   28 1   
    49   27   32 1   
    50   27   50 1   
    51   27   51 1   
    52   28   33 1   
    53   28   52 1   
    54   28   53 1   
    55   29   30 2   
    56   29   31 1   
    57   31   32 1   
    58   31   54 1   
    59   31   60 1   
    60   32   55 1   
    61   32   56 1   
    62   33   57 1   
@<TRIPOS>SUBSTRUCTURE
     1 DAW         1 TEMP              0 ****  ****    0 ROOT
