@<TRIPOS>MOLECULE
DAW
   60    62     1     0     0
SMALL
bcc


@<TRIPOS>ATOM
      1 N1          0.1570   -0.1970    0.5310 n4        1 DAW     -0.805500
      2 N3          3.0180    8.3220   -6.7450 nc        1 DAW     -0.261000
      3 C4          2.6560    3.8450   -1.6680 ca        1 DAW     -0.096600
      4 C5          3.2950    3.1220   -0.6530 ca        1 DAW     -0.095000
      5 C6          2.8770    1.8210   -0.3670 ca        1 DAW      0.014000
      6 C7          3.0950    5.2420   -1.9000 c         1 DAW      0.558700
      7 C8          4.2330    6.8420   -3.5300 c3        1 DAW      0.291100
      8 C10         6.4790    6.6620   -2.4450 ca        1 DAW     -0.110000
      9 C13         7.5190    5.3250   -4.6720 ca        1 DAW     -0.111000
     10 C15         3.8570    7.5780   -4.7740 cd        1 DAW     -0.224900
     11 S1          1.4300   -0.3650   -0.8360 sy        1 DAW      1.454200
     12 O1          2.4280   -1.0490   -0.1840 o         1 DAW     -0.526800
     13 O2          0.6590   -0.8630   -1.8590 o         1 DAW     -0.526800
     14 C1          1.8170    1.2270   -1.0700 ca        1 DAW     -0.440500
     15 C2          1.1790    1.9790   -2.0750 ca        1 DAW      0.014000
     16 C3          1.5930    3.2750   -2.3790 ca        1 DAW     -0.095000
     17 O3          3.2960    6.0880   -1.0460 o         1 DAW     -0.365100
     18 N2          3.3120    5.6360   -3.3470 n4        1 DAW     -0.682800
     19 C9          5.6600    6.3910   -3.5500 ca        1 DAW     -0.227300
     20 C11         7.8160    6.2690   -2.4620 ca        1 DAW     -0.111000
     21 C12         8.3370    5.6000   -3.5730 ca        1 DAW     -0.056000
     22 C14         6.1830    5.7200   -4.6640 ca        1 DAW     -0.110000
     23 C16         3.0150    7.2310   -5.8510 cc        1 DAW      0.274200
     24 N4          3.7640    9.2410   -6.2980 nd        1 DAW     -0.174800
     25 N5          4.3130    8.8750   -5.1110 na        1 DAW      0.052400
     26 C17         5.2060    9.7080   -4.3410 c3        1 DAW     -0.024700
     27 C20         6.1170   13.7180   -7.1480 c3        1 DAW     -0.115400
     28 C21         5.1780   14.5010   -6.2710 c3        1 DAW     -0.019300
     29 C18         6.2550   10.4500   -5.1750 c         1 DAW      0.523100
     30 O4          7.4560   10.3090   -4.9920 o         1 DAW     -0.384100
     31 N6          5.7740   11.4240   -6.1830 n4        1 DAW     -0.712800
     32 C19         6.7570   12.5270   -6.4450 c3        1 DAW      0.108800
     33 S2          3.8120   13.5370   -5.6530 sh        1 DAW     -0.364900
     34 HN1        -0.0220    0.7600    0.8280 hn        1 DAW      0.476133
     35 HN1A        0.4510   -0.7210    1.3620 hn        1 DAW      0.476133
     36 H5          4.1230    3.5720   -0.0740 ha        1 DAW      0.182500
     37 H6          3.4150    1.2480    0.4180 ha        1 DAW      0.200000
     38 H8          4.0490    7.5210   -2.6340 hx        1 DAW      0.136700
     39 H10         6.0750    7.1850   -1.5630 ha        1 DAW      0.144500
     40 H13         7.9330    4.8000   -5.5500 ha        1 DAW      0.178500
     41 H2          0.3470    1.5300   -2.6570 ha        1 DAW      0.200000
     42 H3          1.0550    3.8350   -3.1620 ha        1 DAW      0.182500
     43 HN2         3.7290    4.8380   -3.8470 hn        1 DAW      0.469300
     44 H11         8.4660    6.4900   -1.5970 ha        1 DAW      0.178500
     45 H12         9.3980    5.2920   -3.5840 ha        1 DAW      0.184000
     46 H14         5.5500    5.5220   -5.5440 ha        1 DAW      0.144500
     47 H16         2.4390    6.3350   -6.0780 h4        1 DAW      0.074100
     48 H17         4.6070   10.4760   -3.7630 h1        1 DAW      0.127700
     49 H17A        5.7730    9.0500   -3.6120 h1        1 DAW      0.127700
     50 H20         6.9640   14.3970   -7.4620 hc        1 DAW      0.105200
     51 H20A        5.6010   13.3960   -8.0930 hc        1 DAW      0.105200
     52 H21         5.6990   14.8750   -5.3510 h1        1 DAW      0.124200
     53 H21A        4.8020   15.4000   -6.8250 h1        1 DAW      0.124200
     54 HN6         4.8350   11.9020   -5.8760 hn        1 DAW      0.484300
     55 H19         7.5980   12.1130   -7.0730 hx        1 DAW      0.115700
     56 H19A        7.1890   12.8510   -5.4540 hx        1 DAW      0.115700
     57 HS2         2.9660   13.6070   -6.6810 hs        1 DAW      0.262800
     58 H131       -0.7420   -0.5940    0.2360 hn        1 DAW      0.476133
     59 H22         2.3940    5.8450   -3.7610 hn        1 DAW      0.469300
     60 H62         5.5980   10.9250   -7.0640 hn        1 DAW      0.484300
@<TRIPOS>BOND
     1    1   11 1   
     2    1   34 1   
     3    1   35 1   
     4    1   58 1   
     5    2   23 1   
     6    2   24 2   
     7    3    4 ar  
     8    3    6 1   
     9    3   16 ar  
    10    4    5 ar  
    11    4   36 1   
    12    5   14 ar  
    13    5   37 1   
    14    6   17 2   
    15    6   18 1   
    16    7   10 1   
    17    7   18 1   
    18    7   19 1   
    19    7   38 1   
    20    8   19 ar  
    21    8   20 ar  
    22    8   39 1   
    23    9   21 ar  
    24    9   22 ar  
    25    9   40 1   
    26   10   23 2   
    27   10   25 1   
    28   11   12 2   
    29   11   13 2   
    30   11   14 1   
    31   14   15 ar  
    32   15   16 ar  
    33   15   41 1   
    34   16   42 1   
    35   18   43 1   
    36   18   59 1   
    37   19   22 ar  
    38   20   21 ar  
    39   20   44 1   
    40   21   45 1   
    41   22   46 1   
    42   23   47 1   
    43   24   25 1   
    44   25   26 1   
    45   26   29 1   
    46   26   48 1   
    47   26   49 1   
    48   27   28 1   
    49   27   32 1   
    50   27   50 1   
    51   27   51 1   
    52   28   33 1   
    53   28   52 1   
    54   28   53 1   
    55   29   30 2   
    56   29   31 1   
    57   31   32 1   
    58   31   54 1   
    59   31   60 1   
    60   32   55 1   
    61   32   56 1   
    62   33   57 1   
@<TRIPOS>SUBSTRUCTURE
     1 DAW         1 TEMP              0 ****  ****    0 ROOT
