@<TRIPOS>MOLECULE
DAX
   47    49     1     0     0
SMALL
bcc


@<TRIPOS>ATOM
      1 C1         -0.0900    0.0030   -0.0940 ca        1 DAX     -0.028000
      2 C2          1.2830    0.0170   -0.1280 ca        1 DAX     -0.091000
      3 C3          2.0250   -0.0080    1.0700 ca        1 DAX      0.028000
      4 C4          1.4110   -0.0330    2.3170 ca        1 DAX     -0.216600
      5 C5         -2.7490   -0.0110    4.9310 ca        1 DAX     -0.111900
      6 C6         -4.1300    0.0200    5.0010 ca        1 DAX      0.079000
      7 C7         -4.9220    0.0490    3.8150 ca        1 DAX     -0.027000
      8 C8         -4.3330    0.0300    2.5800 ca        1 DAX     -0.131000
      9 C9         -2.2270   -0.0660    1.2100 ca        1 DAX      0.130600
     10 N9         -3.0010   -0.1450   -0.0350 n4        1 DAX     -0.737000
     11 N10        -0.7340   -0.0420    3.5630 na        1 DAX     -0.110100
     12 C11        -0.7960   -0.0380    1.1430 ca        1 DAX     -0.090000
     13 C12        -0.0450   -0.0380    2.3740 ca        1 DAX      0.136700
     14 C13        -2.9090   -0.0190    2.4350 ca        1 DAX     -0.029000
     15 C14        -2.1050   -0.0210    3.6510 ca        1 DAX      0.136700
     16 CD1         2.2110   -0.0490    3.5530 c         1 DAX      0.586700
     17 OD1         1.8100   -0.0520    4.7100 o         1 DAX     -0.421100
     18 ND1         3.7380   -0.0650    3.4270 n4        1 DAX     -0.672800
     19 BR         -1.7470   -0.0340    6.5090 br        1 DAX      0.071900
     20 CD2         4.4380   -0.0860    4.7530 c3        1 DAX      0.083800
     21 CD3         5.9770   -0.1170    4.6020 c3        1 DAX      0.076800
     22 ND2         6.7060   -0.1980    5.9050 n4        1 DAX     -0.674400
     23 CD7         8.1180   -0.6490    5.6720 c3        1 DAX      0.074100
     24 CD8         6.7040    1.1050    6.6330 c3        1 DAX      0.074100
     25 H1         -0.6200    0.0430   -1.0640 ha        1 DAX      0.186000
     26 H2          1.8230    0.0510   -1.1000 ha        1 DAX      0.232000
     27 H3          3.1240   -0.0010    0.9460 ha        1 DAX      0.169000
     28 H6         -4.6520    0.0280    5.9880 ha        1 DAX      0.242000
     29 H7         -6.0300    0.0900    3.9180 ha        1 DAX      0.236000
     30 H8         -4.9960    0.0770    1.6970 ha        1 DAX      0.179000
     31 H91        -3.1420    0.8030   -0.4270 hn        1 DAX      0.504133
     32 H92        -3.9300   -0.5710    0.1390 hn        1 DAX      0.504133
     33 H10        -0.2300   -0.0550    4.4520 hn        1 DAX      0.368700
     34 HD1         4.0110   -0.8980    2.8860 hn        1 DAX      0.478800
     35 HD21        4.1130    0.8340    5.3270 hx        1 DAX      0.141700
     36 HD22        4.0740   -0.9970    5.3170 hx        1 DAX      0.141700
     37 HD31        6.2810   -1.0180    3.9880 hx        1 DAX      0.128700
     38 HD32        6.3380    0.8140    4.0710 hx        1 DAX      0.128700
     39 HD2         6.2470   -0.9030    6.5030 hn        1 DAX      0.463800
     40 HD71        8.1190   -1.6730    5.2100 hx        1 DAX      0.128700
     41 HD72        8.6460    0.0820    5.0010 hx        1 DAX      0.128700
     42 HD73        8.6500   -0.6900    6.6670 hx        1 DAX      0.128700
     43 HD81        7.2300    0.9690    7.6240 hx        1 DAX      0.128700
     44 HD82        5.6500    1.4370    6.8190 hx        1 DAX      0.128700
     45 HD83        7.2600    1.8800    6.0370 hx        1 DAX      0.128700
     46 H93        -2.5150   -0.7320   -0.7330 hn        1 DAX      0.504133
     47 HD13        4.0300    0.7740    2.9050 hn        1 DAX      0.478800
@<TRIPOS>BOND
     1    1    2 ar  
     2    1   12 ar  
     3    1   25 1   
     4    2    3 ar  
     5    2   26 1   
     6    3    4 ar  
     7    3   27 1   
     8    4   13 ar  
     9    4   16 1   
    10    5    6 ar  
    11    5   15 ar  
    12    5   19 1   
    13    6    7 ar  
    14    6   28 1   
    15    7    8 ar  
    16    7   29 1   
    17    8   14 ar  
    18    8   30 1   
    19    9   10 1   
    20    9   12 ar  
    21    9   14 ar  
    22   10   31 1   
    23   10   32 1   
    24   10   46 1   
    25   11   13 1   
    26   11   15 2   
    27   11   33 1   
    28   12   13 ar  
    29   14   15 ar  
    30   16   17 2   
    31   16   18 1   
    32   18   20 1   
    33   18   34 1   
    34   18   47 1   
    35   20   21 1   
    36   20   35 1   
    37   20   36 1   
    38   21   22 1   
    39   21   37 1   
    40   21   38 1   
    41   22   23 1   
    42   22   24 1   
    43   22   39 1   
    44   23   40 1   
    45   23   41 1   
    46   23   42 1   
    47   24   43 1   
    48   24   44 1   
    49   24   45 1   
@<TRIPOS>SUBSTRUCTURE
     1 DAX         1 TEMP              0 ****  ****    0 ROOT
