@<TRIPOS>MOLECULE
DAX
   45    39     1     0     0
SMALL
bcc


@<TRIPOS>ATOM
      1 C1         -1.7340    0.1640   -3.4330 c1        1 DAX     -0.074500
      2 C2         -0.3330    0.1160   -3.4580 c1        1 DAX     -0.074500
      3 C3          0.3910    0.0700   -2.2500 c1        1 DAX     -0.001000
      4 C4         -0.2860    0.0720   -1.0300 c1        1 DAX     -0.186000
      5 C5         -4.5030    0.0660    1.4720 c1        1 DAX     -0.234000
      6 C6         -5.8840    0.0570    1.4840 c1        1 DAX     -0.074500
      7 C7         -6.5990    0.1040    0.2770 c1        1 DAX     -0.074500
      8 C8         -5.9240    0.1580   -0.9280 c1        1 DAX     -0.053000
      9 C9         -3.8070    0.1890   -2.1750 c1        1 DAX      0.287000
     10 N9         -4.4650    0.4410   -3.4250 n2        1 DAX     -0.274000
     11 N10        -2.3780    0.0970    0.2030 n2        1 DAX     -0.199000
     12 C11        -2.4190    0.1660   -2.1980 c1        1 DAX     -0.187000
     13 C12        -1.7040    0.1200   -1.0060 c1        1 DAX      0.192000
     14 C13        -4.4920    0.1660   -0.9480 c1        1 DAX     -0.174000
     15 C14        -3.7960    0.1210    0.2230 c1        1 DAX      0.156000
     16 CD1         0.5440    0.1780    0.2640 c2        1 DAX      0.357000
     17 OD1        -0.0010    0.1820    1.3240 o         1 DAX     -0.379000
     18 ND1         2.0000    0.2500    0.1970 n         1 DAX     -0.374000
     19 BR         -3.9350    0.0860    3.3350 br        1 DAX      0.121000
     20 CD2         2.7780    0.0590    1.3950 c3        1 DAX     -0.025000
     21 CD3         4.2810    0.1970    1.0670 c3        1 DAX     -0.168000
     22 ND2         5.0800   -0.5310    2.0900 n4        1 DAX      0.005000
     23 CD7         5.8350   -1.5690    1.4620 c3        1 DAX     -0.195500
     24 CD8         6.0210    0.4230    2.7690 c3        1 DAX     -0.195500
     25 H1         -2.2260    0.1930   -4.2500 ha        1 DAX      0.178250
     26 H2          0.1500    0.1140   -4.3310 ha        1 DAX      0.178250
     27 H3          1.3470    0.0360   -2.2660 ha        1 DAX      0.160000
     28 H6         -6.3690    0.0180    2.3430 ha        1 DAX      0.178250
     29 H7         -7.5850    0.0970    0.2890 ha        1 DAX      0.178250
     30 H8         -6.4380    0.1920   -1.7890 ha        1 DAX      0.154000
     31 H91        -4.3650   -0.1320   -4.1070 hn        1 DAX      0.270000
     32 H92        -4.9810    1.1700   -3.5220 hn        1 DAX      0.270000
     33 H10        -1.8910   -0.0060    1.0180 hn        1 DAX      0.302000
     34 HD1         2.4010    0.5130   -0.5570 hn        1 DAX      0.257000
     35 HD21        2.6000   -0.8460    1.7620 h1        1 DAX      0.118500
     36 HD22        2.5250    0.7420    2.0630 h1        1 DAX      0.118500
     37 HD31        4.4600   -0.1830    0.1810 hx        1 DAX      0.156000
     38 HD32        4.5380    1.1840    1.0750 hx        1 DAX      0.156000
     39 HD2         4.5250   -0.8940    2.7040 hn        1 DAX      0.250000
     40 HD71        5.1950   -2.2610    1.0530 hx        1 DAX      0.150000
     41 HD72        6.4000   -2.0000    2.1230 hx        1 DAX      0.150000
     42 HD73        6.3830   -1.1940    0.7700 hx        1 DAX      0.150000
     43 HD81        6.5730   -0.0540    3.3660 hx        1 DAX      0.150000
     44 HD82        5.5230    1.0710    3.2480 hx        1 DAX      0.150000
     45 HD83        6.5610    0.8550    2.1170 hx        1 DAX      0.150000
@<TRIPOS>BOND
     1    1    2 1   
     2    1   25 1   
     3    2   26 1   
     4    3    4 1   
     5    3   27 1   
     6    4   16 1   
     7    5   15 1   
     8    5   19 1   
     9    6    7 1   
    10    6   28 1   
    11    7   29 1   
    12    8   14 1   
    13    8   30 1   
    14    9   12 1   
    15    9   14 1   
    16   10   31 1   
    17   10   32 1   
    18   11   15 1   
    19   11   33 1   
    20   12   13 1   
    21   16   17 1   
    22   16   18 1   
    23   18   20 1   
    24   18   34 1   
    25   20   21 1   
    26   20   35 1   
    27   20   36 1   
    28   21   22 1   
    29   21   37 1   
    30   21   38 1   
    31   22   23 1   
    32   22   24 1   
    33   22   39 1   
    34   23   40 1   
    35   23   41 1   
    36   23   42 1   
    37   24   43 1   
    38   24   44 1   
    39   24   45 1   
@<TRIPOS>SUBSTRUCTURE
     1 DAX         1 TEMP              0 ****  ****    0 ROOT
