@<TRIPOS>MOLECULE
DAX
   46    48     1     0     0
SMALL
bcc


@<TRIPOS>ATOM
      1 C1         -0.1040    0.0740   -0.0620 ca        1 DAX      0.055000
      2 C2          1.2880    0.1730   -0.1020 ca        1 DAX     -0.158000
      3 C3          2.0200    0.1120    1.0690 ca        1 DAX     -0.001000
      4 C4          1.4010   -0.0090    2.3310 ca        1 DAX     -0.281600
      5 C5         -2.7530    0.1370    4.9150 ca        1 DAX     -0.078900
      6 C6         -4.1400    0.2560    4.9790 ca        1 DAX      0.022000
      7 C7         -4.9130    0.2570    3.8080 ca        1 DAX     -0.106000
      8 C8         -4.3100    0.1130    2.5720 ca        1 DAX     -0.043000
      9 C9         -2.2400   -0.2370    1.1930 cc        1 DAX      0.517500
     10 N9         -2.9230   -0.5940    0.1060 nh        1 DAX     -0.389100
     11 N10        -0.7240   -0.0780    3.5740 na        1 DAX     -0.567000
     12 C11        -0.7830   -0.0750    1.1520 ca        1 DAX     -0.283900
     13 C12        -0.0450   -0.0570    2.3920 ca        1 DAX      0.322600
     14 C13        -2.9070   -0.0330    2.4650 ca        1 DAX     -0.249900
     15 C14        -2.1200    0.0100    3.6500 ca        1 DAX      0.203600
     16 CD1         2.1820   -0.0710    3.5500 c         1 DAX      0.596700
     17 OD1         1.8300   -0.1600    4.7200 o         1 DAX     -0.456100
     18 ND1         3.7240   -0.0320    3.3990 n4        1 DAX     -0.680800
     19 BR         -1.7660    0.1540    6.5030 br        1 DAX      0.003900
     20 CD2         4.4290   -0.1250    4.7090 c3        1 DAX      0.081800
     21 CD3         5.9660   -0.0920    4.5590 c3        1 DAX      0.077800
     22 ND2         6.6880   -0.2510    5.8600 n4        1 DAX     -0.674400
     23 CD7         8.1140   -0.6310    5.6100 c3        1 DAX      0.075600
     24 CD8         6.6270    0.9890    6.6880 c3        1 DAX      0.075600
     25 H1         -0.6430    0.1370   -1.0270 ha        1 DAX      0.183000
     26 H2          1.8000    0.2950   -1.0750 ha        1 DAX      0.205000
     27 H3          3.1160    0.1710    0.9650 ha        1 DAX      0.137000
     28 H6         -4.6460    0.3590    5.9610 ha        1 DAX      0.207000
     29 H7         -6.0110    0.3740    3.8830 ha        1 DAX      0.203000
     30 H8         -4.9530    0.1380    1.6750 ha        1 DAX      0.167000
     31 H91        -3.9190   -0.7120    0.1330 hn        1 DAX      0.333700
     32 H92        -2.4790   -0.7520   -0.7760 hn        1 DAX      0.333700
     33 H10        -0.2350   -0.1130    4.4560 hn        1 DAX      0.499800
     34 HD1         4.0060   -0.8140    2.7960 hn        1 DAX      0.467300
     35 HD21        4.0730    0.7360    5.3510 hx        1 DAX      0.137200
     36 HD22        4.0970   -1.0850    5.2080 hx        1 DAX      0.137200
     37 HD31        6.2960    0.8890    4.1040 hx        1 DAX      0.124700
     38 HD32        6.3020   -0.9310    3.8790 hx        1 DAX      0.124700
     39 HD2         6.2460   -1.0160    6.3920 hn        1 DAX      0.462800
     40 HD71        8.6190    0.1670    5.0020 hx        1 DAX      0.124533
     41 HD72        8.1550   -1.6140    5.0670 hx        1 DAX      0.124533
     42 HD73        8.6390   -0.7320    6.6020 hx        1 DAX      0.124533
     43 HD81        7.1550    0.7990    7.6660 hx        1 DAX      0.124533
     44 HD82        7.1450    1.8310    6.1530 hx        1 DAX      0.124533
     45 HD83        5.5580    1.2580    6.8920 hx        1 DAX      0.124533
     46 HD13        3.9760    0.8480    2.9320 hn        1 DAX      0.467300
@<TRIPOS>BOND
     1    1    2 ar  
     2    1   12 ar  
     3    1   25 1   
     4    2    3 ar  
     5    2   26 1   
     6    3    4 ar  
     7    3   27 1   
     8    4   13 ar  
     9    4   16 1   
    10    5    6 ar  
    11    5   15 ar  
    12    5   19 1   
    13    6    7 ar  
    14    6   28 1   
    15    7    8 ar  
    16    7   29 1   
    17    8   14 ar  
    18    8   30 1   
    19    9   10 2   
    20    9   12 1   
    21    9   14 1   
    22   10   31 1   
    23   10   32 1   
    24   11   13 1   
    25   11   15 1   
    26   11   33 1   
    27   12   13 ar  
    28   14   15 ar  
    29   16   17 2   
    30   16   18 1   
    31   18   20 1   
    32   18   34 1   
    33   18   46 1   
    34   20   21 1   
    35   20   35 1   
    36   20   36 1   
    37   21   22 1   
    38   21   37 1   
    39   21   38 1   
    40   22   23 1   
    41   22   24 1   
    42   22   39 1   
    43   23   40 1   
    44   23   41 1   
    45   23   42 1   
    46   24   43 1   
    47   24   44 1   
    48   24   45 1   
@<TRIPOS>SUBSTRUCTURE
     1 DAX         1 TEMP              0 ****  ****    0 ROOT
