@<TRIPOS>MOLECULE
DAX
   46    48     1     0     0
SMALL
bcc


@<TRIPOS>ATOM
      1 C1         -0.1040    0.0810   -0.0620 ca        1 DAX      0.055000
      2 C2          1.2880    0.1810   -0.1010 ca        1 DAX     -0.158000
      3 C3          2.0200    0.1190    1.0700 ca        1 DAX     -0.001000
      4 C4          1.4020   -0.0060    2.3310 ca        1 DAX     -0.281600
      5 C5         -2.7530    0.1300    4.9140 ca        1 DAX     -0.078900
      6 C6         -4.1410    0.2470    4.9780 ca        1 DAX      0.022000
      7 C7         -4.9130    0.2500    3.8080 ca        1 DAX     -0.106000
      8 C8         -4.3100    0.1090    2.5710 ca        1 DAX     -0.043000
      9 C9         -2.2390   -0.2350    1.1920 cc        1 DAX      0.517500
     10 N9         -2.9220   -0.5910    0.1040 nv        1 DAX     -0.389100
     11 N10        -0.7240   -0.0800    3.5730 na        1 DAX     -0.567000
     12 C11        -0.7820   -0.0720    1.1520 ca        1 DAX     -0.283900
     13 C12        -0.0450   -0.0560    2.3920 ca        1 DAX      0.322600
     14 C13        -2.9070   -0.0350    2.4640 ca        1 DAX     -0.249900
     15 C14        -2.1200    0.0060    3.6500 ca        1 DAX      0.203600
     16 CD1         2.1820   -0.0700    3.5500 c         1 DAX      0.596700
     17 OD1         1.8300   -0.1620    4.7200 o         1 DAX     -0.456100
     18 ND1         3.7250   -0.0290    3.4000 ny        1 DAX     -0.680800
     19 Br         -1.7660    0.1440    6.5030 br        1 DAX      0.003900
     20 CD2         4.4290   -0.1250    4.7090 c3        1 DAX      0.081800
     21 CD3         5.9660   -0.0890    4.5590 c3        1 DAX      0.077800
     22 ND2         6.6880   -0.2520    5.8590 nx        1 DAX     -0.674400
     23 CD7         8.1150   -0.6290    5.6090 c3        1 DAX      0.075600
     24 CD8         6.6250    0.9840    6.6920 c3        1 DAX      0.075600
     25 H1         -0.6430    0.1450   -1.0270 ha        1 DAX      0.183000
     26 H2          1.8000    0.3060   -1.0750 ha        1 DAX      0.205000
     27 H3          3.1160    0.1790    0.9650 ha        1 DAX      0.137000
     28 H6         -4.6470    0.3470    5.9600 ha        1 DAX      0.207000
     29 H7         -6.0120    0.3650    3.8820 ha        1 DAX      0.203000
     30 H8         -4.9530    0.1350    1.6740 ha        1 DAX      0.167000
     31 H91        -2.4780   -0.7470   -0.7780 hn        1 DAX      0.333700
     32 H92        -3.9180   -0.7100    0.1310 hn        1 DAX      0.333700
     33 H10        -0.2350   -0.1160    4.4550 hn        1 DAX      0.499800
     34 HD1         4.0070   -0.8090    2.7940 hn        1 DAX      0.467300
     35 HD21        4.0720    0.7340    5.3530 hx        1 DAX      0.137200
     36 HD22        4.0980   -1.0870    5.2050 hx        1 DAX      0.137200
     37 HD31        6.3030   -0.9260    3.8760 hx        1 DAX      0.124700
     38 HD32        6.2950    0.8930    4.1070 hx        1 DAX      0.124700
     39 HD2         6.2470   -1.0200    6.3890 hn        1 DAX      0.462800
     40 HD71        8.6190    0.1730    5.0040 hx        1 DAX      0.124533
     41 HD72        8.1580   -1.6100    5.0620 hx        1 DAX      0.124533
     42 HD73        8.6400   -0.7330    6.6000 hx        1 DAX      0.124533
     43 HD81        7.1530    0.7920    7.6700 hx        1 DAX      0.124533
     44 HD82        7.1400    1.8300    6.1610 hx        1 DAX      0.124533
     45 HD83        5.5550    1.2510    6.8980 hx        1 DAX      0.124533
     46 HD13        3.9760    0.8520    2.9350 hn        1 DAX      0.467300
@<TRIPOS>BOND
     1    1    2 ar  
     2    1   12 ar  
     3    1   25 1   
     4    2    3 ar  
     5    2   26 1   
     6    3    4 ar  
     7    3   27 1   
     8    4   13 ar  
     9    4   16 1   
    10    5    6 ar  
    11    5   15 ar  
    12    5   19 1   
    13    6    7 ar  
    14    6   28 1   
    15    7    8 ar  
    16    7   29 1   
    17    8   14 ar  
    18    8   30 1   
    19    9   10 2   
    20    9   12 1   
    21    9   14 1   
    22   10   31 1   
    23   10   32 1   
    24   11   13 1   
    25   11   15 1   
    26   11   33 1   
    27   12   13 ar  
    28   14   15 ar  
    29   16   17 2   
    30   16   18 1   
    31   18   20 1   
    32   18   34 1   
    33   18   46 1   
    34   20   21 1   
    35   20   35 1   
    36   20   36 1   
    37   21   22 1   
    38   21   37 1   
    39   21   38 1   
    40   22   23 1   
    41   22   24 1   
    42   22   39 1   
    43   23   40 1   
    44   23   41 1   
    45   23   42 1   
    46   24   43 1   
    47   24   44 1   
    48   24   45 1   
@<TRIPOS>SUBSTRUCTURE
     1 DAX         1 TEMP              0 ****  ****    0 ROOT
