@<TRIPOS>MOLECULE
DAX
   45    47     1     0     0
SMALL
bcc


@<TRIPOS>ATOM
      1 C1         -1.0870   -3.9500    0.2990 ca        1 DAX     -0.024000
      2 C2          0.2290   -4.3150    0.4840 ca        1 DAX     -0.154000
      3 C3          1.2410   -3.3420    0.4510 ca        1 DAX     -0.001000
      4 C4          0.9410   -2.0040    0.2490 ca        1 DAX     -0.205600
      5 C5         -2.3440    1.5390   -0.4260 ca        1 DAX     -0.093900
      6 C6         -3.6600    1.9670   -0.4870 ca        1 DAX      0.009000
      7 C7         -4.7200    1.0440   -0.4110 ca        1 DAX     -0.130000
      8 C8         -4.4620   -0.3040   -0.3000 ca        1 DAX     -0.053000
      9 C9         -2.8240   -2.2080   -0.1960 cc        1 DAX      0.509500
     10 N9         -3.7820   -3.1260   -0.3880 nh        1 DAX     -0.428100
     11 N10        -0.7470   -0.2880   -0.1910 na        1 DAX     -0.567000
     12 C11        -1.4470   -2.6030    0.0500 ca        1 DAX     -0.270900
     13 C12        -0.4220   -1.6070    0.0290 ca        1 DAX      0.273600
     14 C13        -3.1310   -0.7920   -0.2580 ca        1 DAX     -0.257900
     15 C14        -2.0580    0.1450   -0.2910 ca        1 DAX      0.237600
     16 CD1         2.0360   -0.9940    0.2280 c         1 DAX      0.684700
     17 OD1         2.0540   -0.0270   -0.5630 o         1 DAX     -0.616100
     18 ND1         3.0840   -1.1510    1.1220 n         1 DAX     -0.564900
     19 BR         -0.9690    2.8050   -0.5160 br        1 DAX     -0.019100
     20 CD2         4.1300   -0.1770    1.2110 c3        1 DAX      0.090000
     21 CD3         5.1540   -0.3070    0.0510 c3        1 DAX      0.066800
     22 ND2         6.1910    0.7740    0.0690 n4        1 DAX     -0.673400
     23 CD7         7.4170    0.3350   -0.6540 c3        1 DAX      0.081600
     24 CD8         5.6700    2.0380   -0.5190 c3        1 DAX      0.081600
     25 H1         -1.8520   -4.7420    0.3620 ha        1 DAX      0.157000
     26 H2          0.4960   -5.3710    0.6630 ha        1 DAX      0.182000
     27 H3          2.2860   -3.6760    0.5800 ha        1 DAX      0.160000
     28 H6         -3.8950    3.0440   -0.5910 ha        1 DAX      0.190000
     29 H7         -5.7600    1.4150   -0.4420 ha        1 DAX      0.184000
     30 H8         -5.3210   -0.9900   -0.2250 ha        1 DAX      0.154000
     31 H91        -3.5850   -4.1030   -0.3610 hn        1 DAX      0.319700
     32 H92        -4.7270   -2.8600   -0.5690 hn        1 DAX      0.319700
     33 H10        -0.0060    0.3870   -0.3250 hn        1 DAX      0.506800
     34 HD1         3.0750   -1.8920    1.7830 hn        1 DAX      0.342500
     35 HD21        4.6610   -0.3090    2.1960 h1        1 DAX      0.079700
     36 HD22        3.6730    0.8570    1.1760 h1        1 DAX      0.079700
     37 HD31        4.6110   -0.2570   -0.9380 hx        1 DAX      0.116700
     38 HD32        5.6840   -1.3000    0.1260 hx        1 DAX      0.116700
     39 HD2         6.4470    0.9590    1.0490 hn        1 DAX      0.450800
     40 HD71        8.1640    1.1750   -0.6570 hx        1 DAX      0.111033
     41 HD72        7.8600   -0.5580   -0.1360 hx        1 DAX      0.111033
     42 HD73        7.1520    0.0650   -1.7120 hx        1 DAX      0.111033
     43 HD81        4.7340    2.3450    0.0200 hx        1 DAX      0.111033
     44 HD82        6.4480    2.8430   -0.4140 hx        1 DAX      0.111033
     45 HD83        5.4390    1.8810   -1.6070 hx        1 DAX      0.111033
@<TRIPOS>BOND
     1    1    2 ar  
     2    1   12 ar  
     3    1   25 1   
     4    2    3 ar  
     5    2   26 1   
     6    3    4 ar  
     7    3   27 1   
     8    4   13 ar  
     9    4   16 1   
    10    5    6 ar  
    11    5   15 ar  
    12    5   19 1   
    13    6    7 ar  
    14    6   28 1   
    15    7    8 ar  
    16    7   29 1   
    17    8   14 ar  
    18    8   30 1   
    19    9   10 2   
    20    9   12 1   
    21    9   14 1   
    22   10   31 1   
    23   10   32 1   
    24   11   13 1   
    25   11   15 1   
    26   11   33 1   
    27   12   13 ar  
    28   14   15 ar  
    29   16   17 2   
    30   16   18 1   
    31   18   20 1   
    32   18   34 1   
    33   20   21 1   
    34   20   35 1   
    35   20   36 1   
    36   21   22 1   
    37   21   37 1   
    38   21   38 1   
    39   22   23 1   
    40   22   24 1   
    41   22   39 1   
    42   23   40 1   
    43   23   41 1   
    44   23   42 1   
    45   24   43 1   
    46   24   44 1   
    47   24   45 1   
@<TRIPOS>SUBSTRUCTURE
     1 DAX         1 TEMP              0 ****  ****    0 ROOT
