@<TRIPOS>MOLECULE
DAY
   72    70     1     0     0
SMALL
bcc


@<TRIPOS>ATOM
      1 C1          1.6870   -0.9110   -1.6490 c3        1 DAY     -0.077000
      2 O1          0.0530   -0.1020   -2.5470 oh        1 DAY     -0.329000
      3 C2          2.9530   -1.8630   -1.5330 c2        1 DAY     -0.163000
      4 C3          3.4610   -2.2330   -0.2390 c1        1 DAY     -0.034000
      5 C4          2.4810   -2.2490    1.0400 c1        1 DAY     -0.105000
      6 C5          1.2560   -1.4010    1.0460 c1        1 DAY     -0.044000
      7 C6          0.6600   -0.7250    2.5660 c1        1 DAY     -0.087000
      8 C7         -0.2040    0.6470    2.4580 c1        1 DAY     -0.147000
      9 C8         -0.3440    1.2760    0.9650 c2        1 DAY     -0.054000
     10 C9          0.6320    0.6440   -0.2620 c3        1 DAY     -0.075000
     11 C10         0.7800   -0.6680   -0.3420 c3        1 DAY      0.017000
     12 C11        -0.4820    0.7330   -1.4230 c3        1 DAY      0.042000
     13 C12        -1.9760    0.3690   -1.3260 c3        1 DAY     -0.180000
     14 C13        -2.5920    0.8170   -0.1480 c3        1 DAY     -0.018000
     15 C14        -1.8920    2.0140    0.5290 c3        1 DAY     -0.103000
     16 C15        -2.5840    2.2360    1.4720 c3        1 DAY     -0.147000
     17 C16        -4.1170    2.1310    0.8680 c3        1 DAY     -0.130000
     18 C17        -3.8450    1.3510   -0.4480 c3        1 DAY      0.031000
     19 C18        -2.7380   -0.3490    0.8550 c3        1 DAY     -0.222000
     20 C19        -0.5920   -1.2370   -0.6650 c3        1 DAY     -0.207000
     21 C20        -4.9190    0.2570   -0.7380 c2        1 DAY      0.205000
     22 C21        -6.1470    0.5930   -1.6200 c3        1 DAY     -0.070000
     23 N1          4.7600   -2.5980   -0.3900 n3        1 DAY     -0.078000
     24 O2         -3.8890    2.1420   -1.6300 oh        1 DAY     -0.319000
     25 O3         -4.8170   -0.8450   -0.2310 o         1 DAY     -0.248000
     26 O4         -7.0410   -0.5070   -1.6240 oh        1 DAY     -0.303000
     27 C22         3.9680   -2.0160   -2.4430 c1        1 DAY     -0.158000
     28 N2          5.0960   -2.4700   -1.7580 n2        1 DAY     -0.068000
     29 C23         5.8290   -0.4630   -0.2550 c1        1 DAY     -0.129500
     30 C24         5.8620   -1.8440   -0.0840 c1        1 DAY      0.073000
     31 C25         6.9620    0.2990    0.0180 c1        1 DAY     -0.129500
     32 C26         8.1280   -0.3210    0.4620 c1        1 DAY     -0.129500
     33 C27         7.0270   -2.4630    0.3590 c1        1 DAY     -0.117000
     34 C29         8.1610   -1.7000    0.6320 c1        1 DAY     -0.129500
     35 C28         0.5270   -1.6180    3.8010 c3        1 DAY     -0.177000
     36 C30        -4.6340    3.3650    0.6140 c3        1 DAY     -0.215000
     37 H1          2.0050   -0.0350   -1.9540 hc        1 DAY      0.102500
     38 HO1        -0.1100    0.3060   -3.3260 ho        1 DAY      0.198000
     39 H4          2.6500   -2.8730    1.7800 ha        1 DAY      0.141000
     40 H1A         1.1020   -1.2800   -2.3520 hc        1 DAY      0.102500
     41 H7         -0.8670    0.8640    3.1470 ha        1 DAY      0.131000
     42 H8          0.1620    2.1090    1.1210 ha        1 DAY      0.098000
     43 H9          1.4410    1.1680   -0.4640 hc        1 DAY      0.092000
     44 H11        -0.4600    1.6700   -1.7360 h1        1 DAY      0.073000
     45 H12        -2.0640   -0.6060   -1.3730 hc        1 DAY      0.095000
     46 H12A       -2.4450    0.7640   -2.0940 hc        1 DAY      0.095000
     47 H14        -1.7960    2.7890   -0.0750 hc        1 DAY      0.101000
     48 H15        -2.4100    3.1430    1.8250 hc        1 DAY      0.088000
     49 H15A       -2.4420    1.5620    2.1680 hc        1 DAY      0.088000
     50 H16        -4.7000    1.6180    1.4700 hc        1 DAY      0.124000
     51 H18        -3.4630   -0.1470    1.4890 hc        1 DAY      0.088667
     52 H18A       -1.8950   -0.4650    1.3470 hc        1 DAY      0.088667
     53 H18B       -2.9490   -1.1750    0.3670 hc        1 DAY      0.088667
     54 H19        -0.7270   -1.2370   -1.6390 hc        1 DAY      0.081667
     55 H19A       -1.2780   -0.6900   -0.2430 hc        1 DAY      0.081667
     56 H19B       -0.6530   -2.1590   -0.3260 hc        1 DAY      0.081667
     57 H21        -5.8490    0.7780   -2.5440 h1        1 DAY      0.093500
     58 H21A       -6.6020    1.3830   -1.2590 h1        1 DAY      0.093500
     59 HO2        -4.3600    2.8790   -1.4760 ho        1 DAY      0.209000
     60 HO4        -7.8020   -0.2720   -2.0340 ho        1 DAY      0.202000
     61 H22         3.9110   -1.8370   -3.4070 DU        1 DAY      0.181000
     62 H23         5.0120   -0.0290   -0.5660 ha        1 DAY      0.138750
     63 H25         6.9390    1.2770   -0.1030 ha        1 DAY      0.138750
     64 H26         8.9310    0.2200    0.6550 ha        1 DAY      0.138750
     65 H27         7.0500   -3.4370    0.4800 ha        1 DAY      0.156000
     66 H29         8.9850   -2.1370    0.9460 ha        1 DAY      0.138750
     67 H28         0.8660   -2.5170    3.5930 hc        1 DAY      0.083667
     68 H28A        1.0470   -1.2350    4.5370 hc        1 DAY      0.083667
     69 H28B       -0.4220   -1.6770    4.0640 hc        1 DAY      0.083667
     70 H30        -4.8310    3.8170    1.4610 hc        1 DAY      0.080333
     71 H30A       -5.4650    3.2730    0.0900 hc        1 DAY      0.080333
     72 H30B       -3.9810    3.8960    0.1030 hc        1 DAY      0.080333
@<TRIPOS>BOND
     1    1    3 1   
     2    1   11 1   
     3    1   37 1   
     4    1   40 1   
     5    2   12 1   
     6    2   38 1   
     7    3    4 1   
     8    3   27 1   
     9    4   23 1   
    10    5    6 1   
    11    5   39 1   
    12    6   11 1   
    13    7    8 1   
    14    7   35 1   
    15    8   41 1   
    16    9   10 1   
    17    9   15 1   
    18    9   42 1   
    19   10   11 1   
    20   10   12 1   
    21   10   43 1   
    22   11   20 1   
    23   12   13 1   
    24   12   44 1   
    25   13   14 1   
    26   13   45 1   
    27   13   46 1   
    28   14   15 1   
    29   14   18 1   
    30   14   19 1   
    31   15   16 1   
    32   15   47 1   
    33   16   17 1   
    34   16   48 1   
    35   16   49 1   
    36   17   18 1   
    37   17   36 1   
    38   17   50 1   
    39   18   21 1   
    40   18   24 1   
    41   19   51 1   
    42   19   52 1   
    43   19   53 1   
    44   20   54 1   
    45   20   55 1   
    46   20   56 1   
    47   21   22 1   
    48   21   25 1   
    49   22   26 1   
    50   22   57 1   
    51   22   58 1   
    52   23   28 1   
    53   23   30 1   
    54   24   59 1   
    55   26   60 1   
    56   27   28 1   
    57   29   31 1   
    58   29   62 1   
    59   30   33 1   
    60   31   63 1   
    61   32   34 1   
    62   32   64 1   
    63   33   65 1   
    64   34   66 1   
    65   35   67 1   
    66   35   68 1   
    67   35   69 1   
    68   36   70 1   
    69   36   71 1   
    70   36   72 1   
@<TRIPOS>SUBSTRUCTURE
     1 DAY         1 TEMP              0 ****  ****    0 ROOT
