@<TRIPOS>MOLECULE
DAY
   72    77     1     0     0
SMALL
bcc


@<TRIPOS>ATOM
      1 C1         -1.4180    1.8860   -0.2060 c3        1 DAY      0.006900
      2 O1          1.5470    2.2490    1.1950 oh        1 DAY     -0.600800
      3 C2         -2.8800    1.9010   -0.2520 cc        1 DAY     -0.243600
      4 C3         -3.6330    0.7080   -0.1840 cd        1 DAY     -0.065100
      5 C4         -3.0080   -0.5660    0.0340 cf        1 DAY     -0.102200
      6 C5         -1.6860   -0.6070    0.3340 ce        1 DAY     -0.038200
      7 C6         -1.0100   -1.8820    0.5740 ce        1 DAY     -0.086200
      8 C7          0.3210   -1.9590    0.7650 c2        1 DAY     -0.145200
      9 C8          1.2220   -0.7800    0.7490 c3        1 DAY     -0.020500
     10 C9          0.5620    0.3880    0.0020 c3        1 DAY     -0.042700
     11 C10        -0.8590    0.6540    0.5370 c3        1 DAY      0.008200
     12 C11         1.4810    1.6180   -0.0760 c3        1 DAY      0.151100
     13 C12         2.8750    1.2710   -0.6200 c3        1 DAY     -0.102400
     14 C13         3.5080    0.1060    0.1210 c3        1 DAY     -0.023000
     15 C14         2.5330   -1.0890    0.0480 c3        1 DAY     -0.061700
     16 C15         3.3650   -2.2800    0.4980 c3        1 DAY     -0.067400
     17 C16         4.7860   -1.9890   -0.0170 c3        1 DAY     -0.089700
     18 C17         4.7770   -0.5220   -0.5490 c3        1 DAY      0.053800
     19 C18         3.8740    0.5100    1.5400 c3        1 DAY     -0.110100
     20 C19        -0.8860    0.9450    2.0370 c3        1 DAY     -0.089100
     21 C20         6.0570    0.2230   -0.1720 c         1 DAY      0.544100
     22 C21         6.4490    1.3080   -1.1490 c3        1 DAY      0.033400
     23 N1         -4.9840    1.0780   -0.3210 na        1 DAY      0.163300
     24 O2          4.5820   -0.4410   -1.9540 oh        1 DAY     -0.590800
     25 O3          6.7140   -0.0510    0.8320 o         1 DAY     -0.487100
     26 O4          7.3750    2.1700   -0.5170 oh        1 DAY     -0.575800
     27 C22        -3.8550    2.9450   -0.4260 cc        1 DAY      0.312200
     28 N2         -5.1050    2.4150   -0.4570 nd        1 DAY     -0.502800
     29 C23        -7.2670    0.5210    0.3990 ca        1 DAY     -0.127500
     30 C24        -6.0980    0.1920   -0.3170 ca        1 DAY      0.025800
     31 C25        -8.3470   -0.3570    0.3970 ca        1 DAY     -0.121500
     32 C26        -8.2840   -1.5600   -0.3040 ca        1 DAY     -0.131000
     33 C27        -6.0430   -1.0170   -1.0400 ca        1 DAY     -0.127500
     34 C29        -7.1330   -1.8840   -1.0210 ca        1 DAY     -0.121500
     35 C28        -1.8430   -3.1120    0.6150 c3        1 DAY     -0.058900
     36 C30         5.2220   -3.0020   -1.0440 c3        1 DAY     -0.097100
     37 H1         -1.0380    1.8890   -1.2660 hc        1 DAY      0.054700
     38 HO1         2.2920    2.8620    1.1710 ho        1 DAY      0.401000
     39 H4         -3.6250   -1.4740   -0.0450 ha        1 DAY      0.141000
     40 H1A        -1.0230    2.8100    0.2970 hc        1 DAY      0.054700
     41 H7          0.8110   -2.9270    0.9580 ha        1 DAY      0.128000
     42 H8          1.4200   -0.4740    1.8170 hc        1 DAY      0.082700
     43 H9          0.4330    0.0640   -1.0750 hc        1 DAY      0.056700
     44 H11         1.0220    2.3600   -0.7980 h1        1 DAY      0.033700
     45 H12         2.7790    1.0120   -1.7070 hc        1 DAY      0.057200
     46 H12A        3.5320    2.1760   -0.5410 hc        1 DAY      0.057200
     47 H14         2.2970   -1.2540   -1.0460 hc        1 DAY      0.063700
     48 H15         3.3640   -2.3720    1.6130 hc        1 DAY      0.049700
     49 H15A        2.9670   -3.2340    0.0730 hc        1 DAY      0.049700
     50 H16         5.5010   -2.0280    0.8520 hc        1 DAY      0.082700
     51 H18         2.9640    0.7730    2.1300 hc        1 DAY      0.053033
     52 H18A        4.4110   -0.3210    2.0600 hc        1 DAY      0.053033
     53 H18B        4.5470    1.4030    1.5190 hc        1 DAY      0.053033
     54 H19        -0.5330    0.0580    2.6150 hc        1 DAY      0.047367
     55 H19A       -0.2390    1.8190    2.2860 hc        1 DAY      0.047367
     56 H19B       -1.9340    1.1780    2.3480 hc        1 DAY      0.047367
     57 H21         6.9050    0.8220   -2.0550 h1        1 DAY      0.051200
     58 H21A        5.5320    1.8780   -1.4620 h1        1 DAY      0.051200
     59 HO2         5.2640   -0.9820   -2.3710 ho        1 DAY      0.406000
     60 HO4         7.6860    2.7790   -1.1990 ho        1 DAY      0.403000
     61 H22        -3.6840    4.0180   -0.5210 h4        1 DAY      0.044100
     62 H25        -9.2580   -0.0950    0.9580 ha        1 DAY      0.137000
     63 H26        -9.1410   -2.2490   -0.2970 ha        1 DAY      0.136000
     64 H27        -5.1490   -1.2770   -1.6290 ha        1 DAY      0.151000
     65 H29        -7.0820   -2.8280   -1.5840 ha        1 DAY      0.137000
     66 H28        -2.3130   -3.2960   -0.3830 hc        1 DAY      0.043367
     67 H28A       -1.2290   -4.0080    0.8800 hc        1 DAY      0.043367
     68 H28B       -2.6550   -3.0090    1.3770 hc        1 DAY      0.043367
     69 H30         4.5130   -3.0290   -1.9080 hc        1 DAY      0.040367
     70 H30A        6.2460   -2.7640   -1.4250 hc        1 DAY      0.040367
     71 H30B        5.2500   -4.0190   -0.5830 hc        1 DAY      0.040367
     72 H23        -7.3350    1.4710    0.9540 ha        1 DAY      0.151000
@<TRIPOS>BOND
     1    1    3 1   
     2    1   11 1   
     3    1   37 1   
     4    1   40 1   
     5    2   12 1   
     6    2   38 1   
     7    3    4 2   
     8    3   27 1   
     9    4    5 1   
    10    4   23 1   
    11    5    6 2   
    12    5   39 1   
    13    6    7 1   
    14    6   11 1   
    15    7    8 2   
    16    7   35 1   
    17    8    9 1   
    18    8   41 1   
    19    9   10 1   
    20    9   15 1   
    21    9   42 1   
    22   10   11 1   
    23   10   12 1   
    24   10   43 1   
    25   11   20 1   
    26   12   13 1   
    27   12   44 1   
    28   13   14 1   
    29   13   45 1   
    30   13   46 1   
    31   14   15 1   
    32   14   18 1   
    33   14   19 1   
    34   15   16 1   
    35   15   47 1   
    36   16   17 1   
    37   16   48 1   
    38   16   49 1   
    39   17   18 1   
    40   17   36 1   
    41   17   50 1   
    42   18   21 1   
    43   18   24 1   
    44   19   51 1   
    45   19   52 1   
    46   19   53 1   
    47   20   54 1   
    48   20   55 1   
    49   20   56 1   
    50   21   22 1   
    51   21   25 2   
    52   22   26 1   
    53   22   57 1   
    54   22   58 1   
    55   23   28 1   
    56   23   30 1   
    57   24   59 1   
    58   26   60 1   
    59   27   28 2   
    60   27   61 1   
    61   29   30 ar  
    62   29   31 ar  
    63   29   72 1   
    64   30   33 ar  
    65   31   32 ar  
    66   31   62 1   
    67   32   34 ar  
    68   32   63 1   
    69   33   34 ar  
    70   33   64 1   
    71   34   65 1   
    72   35   66 1   
    73   35   67 1   
    74   35   68 1   
    75   36   69 1   
    76   36   70 1   
    77   36   71 1   
@<TRIPOS>SUBSTRUCTURE
     1 DAY         1 TEMP              0 ****  ****    0 ROOT
