@<TRIPOS>MOLECULE
DAY
   72    77     1     0     0
SMALL
bcc


@<TRIPOS>ATOM
      1 C1          0.0700    0.1940    0.0040 c3        1 DAY      0.006900
      2 O1         -3.0790   -0.7890   -0.0590 oh        1 DAY     -0.600800
      3 C2          1.5220    0.0150   -0.0200 cc        1 DAY     -0.243600
      4 C3          2.2940    0.0810    1.1600 cd        1 DAY     -0.065100
      5 C4          1.6850    0.2260    2.4520 cf        1 DAY     -0.102200
      6 C5          0.3350    0.1440    2.5550 ce        1 DAY     -0.038200
      7 C6         -0.3290    0.2750    3.8520 ce        1 DAY     -0.086200
      8 C7         -1.6700    0.3070    3.9680 c2        1 DAY     -0.145200
      9 C8         -2.5960    0.2160    2.8110 c3        1 DAY     -0.020500
     10 C9         -1.8710    0.5980    1.5130 c3        1 DAY     -0.042700
     11 C10        -0.5530   -0.1870    1.3640 c3        1 DAY      0.008200
     12 C11        -2.8070    0.5600    0.2940 c3        1 DAY      0.151100
     13 C12        -4.0940    1.3670    0.5210 c3        1 DAY     -0.102400
     14 C13        -4.7920    0.9850    1.8150 c3        1 DAY     -0.023000
     15 C14        -3.7790    1.1540    2.9690 c3        1 DAY     -0.061700
     16 C15        -4.6300    1.0890    4.2270 c3        1 DAY     -0.067400
     17 C16        -5.9680    1.7410    3.8360 c3        1 DAY     -0.089700
     18 C17        -5.9280    1.9530    2.2910 c3        1 DAY      0.053800
     19 C18        -5.3750   -0.4140    1.7150 c3        1 DAY     -0.110100
     20 C19        -0.7560   -1.7020    1.3910 c3        1 DAY     -0.089100
     21 C20        -7.2720    1.6280    1.6410 c         1 DAY      0.544100
     22 C21        -7.5500    2.4090    0.3760 c3        1 DAY      0.033400
     23 N1          3.6380   -0.0660    0.7690 na        1 DAY      0.163300
     24 O2         -5.5300    3.2660    1.9190 oh        1 DAY     -0.590800
     25 O3         -8.0600    0.8130    2.1170 o         1 DAY     -0.487100
     26 O4         -8.5860    1.7600   -0.3360 oh        1 DAY     -0.575800
     27 C22         2.4780   -0.1780   -1.0790 cc        1 DAY      0.312200
     28 N2          3.7360   -0.2270   -0.5670 nd        1 DAY     -0.502800
     29 C23         5.8070   -0.9920    1.4630 ca        1 DAY     -0.127500
     30 C24         4.7670   -0.0560    1.6370 ca        1 DAY      0.025800
     31 C25         6.9030   -0.9720    2.3220 ca        1 DAY     -0.121500
     32 C26         6.9810   -0.0370    3.3520 ca        1 DAY     -0.131000
     33 C27         4.8570    0.9000    2.6690 ca        1 DAY     -0.127500
     34 C29         5.9590    0.8950    3.5200 ca        1 DAY     -0.121500
     35 C28         0.5270    0.3620    5.0640 c3        1 DAY     -0.058900
     36 C30        -6.2160    3.0080    4.6140 c3        1 DAY     -0.097100
     37 H1         -0.1500    1.2760   -0.2190 hc        1 DAY      0.054700
     38 HO1        -3.8310   -0.7800   -0.6630 ho        1 DAY      0.401000
     39 H4          2.3350    0.3960    3.3230 ha        1 DAY      0.141000
     40 H1A        -0.4240   -0.4220   -0.7950 hc        1 DAY      0.054700
     41 H7         -2.1530    0.3930    4.9550 ha        1 DAY      0.128000
     42 H8         -2.9580   -0.8500    2.7340 hc        1 DAY      0.082700
     43 H9         -1.5750    1.6870    1.6070 hc        1 DAY      0.056700
     44 H11        -2.2700    1.0360   -0.5820 h1        1 DAY      0.033700
     45 H12        -4.7830    1.2040   -0.3480 hc        1 DAY      0.057200
     46 H12A       -3.8300    2.4570    0.5480 hc        1 DAY      0.057200
     47 H14        -3.3800    2.2110    2.9020 hc        1 DAY      0.063700
     48 H15        -4.7910    0.0300    4.5490 hc        1 DAY      0.049700
     49 H15A       -4.1440    1.6350    5.0720 hc        1 DAY      0.049700
     50 H16        -6.8020    1.0160    4.0550 hc        1 DAY      0.082700
     51 H18        -4.5700   -1.1760    1.5790 hc        1 DAY      0.053033
     52 H18A       -5.9570   -0.6660    2.6350 hc        1 DAY      0.053033
     53 H18B       -6.0660   -0.4770    0.8380 hc        1 DAY      0.053033
     54 H19         0.2270   -2.2080    1.2270 hc        1 DAY      0.047367
     55 H19A       -1.4600   -2.0240    0.5880 hc        1 DAY      0.047367
     56 H19B       -1.1630   -2.0250    2.3790 hc        1 DAY      0.047367
     57 H21        -7.8520    3.4530    0.6630 h1        1 DAY      0.051200
     58 H21A       -6.6150    2.4570   -0.2470 h1        1 DAY      0.051200
     59 HO2        -6.1260    3.8830    2.3620 ho        1 DAY      0.406000
     60 HO4        -8.8120    2.3410   -1.0730 ho        1 DAY      0.403000
     61 H22         2.2900   -0.2800   -2.1470 h4        1 DAY      0.044100
     62 H25         7.7120   -1.7050    2.1810 ha        1 DAY      0.137000
     63 H26         7.8490   -0.0320    4.0280 ha        1 DAY      0.136000
     64 H27         4.0690    1.6580    2.8010 ha        1 DAY      0.151000
     65 H29         6.0220    1.6420    4.3270 ha        1 DAY      0.137000
     66 H28        -0.0910    0.3820    5.9950 hc        1 DAY      0.043367
     67 H28A        1.1450    1.2940    5.0360 hc        1 DAY      0.043367
     68 H28B        1.2150   -0.5180    5.1200 hc        1 DAY      0.043367
     69 H30        -6.2790    2.7750    5.7050 hc        1 DAY      0.040367
     70 H30A       -7.1800    3.4810    4.3020 hc        1 DAY      0.040367
     71 H30B       -5.3870    3.7420    4.4610 hc        1 DAY      0.040367
     72 H23         5.7620   -1.7330    0.6490 ha        1 DAY      0.151000
@<TRIPOS>BOND
     1    1    3 1   
     2    1   11 1   
     3    1   37 1   
     4    1   40 1   
     5    2   12 1   
     6    2   38 1   
     7    3    4 2   
     8    3   27 1   
     9    4    5 1   
    10    4   23 1   
    11    5    6 2   
    12    5   39 1   
    13    6    7 1   
    14    6   11 1   
    15    7    8 2   
    16    7   35 1   
    17    8    9 1   
    18    8   41 1   
    19    9   10 1   
    20    9   15 1   
    21    9   42 1   
    22   10   11 1   
    23   10   12 1   
    24   10   43 1   
    25   11   20 1   
    26   12   13 1   
    27   12   44 1   
    28   13   14 1   
    29   13   45 1   
    30   13   46 1   
    31   14   15 1   
    32   14   18 1   
    33   14   19 1   
    34   15   16 1   
    35   15   47 1   
    36   16   17 1   
    37   16   48 1   
    38   16   49 1   
    39   17   18 1   
    40   17   36 1   
    41   17   50 1   
    42   18   21 1   
    43   18   24 1   
    44   19   51 1   
    45   19   52 1   
    46   19   53 1   
    47   20   54 1   
    48   20   55 1   
    49   20   56 1   
    50   21   22 1   
    51   21   25 2   
    52   22   26 1   
    53   22   57 1   
    54   22   58 1   
    55   23   28 1   
    56   23   30 1   
    57   24   59 1   
    58   26   60 1   
    59   27   28 2   
    60   27   61 1   
    61   29   30 ar  
    62   29   31 ar  
    63   29   72 1   
    64   30   33 ar  
    65   31   32 ar  
    66   31   62 1   
    67   32   34 ar  
    68   32   63 1   
    69   33   34 ar  
    70   33   64 1   
    71   34   65 1   
    72   35   66 1   
    73   35   67 1   
    74   35   68 1   
    75   36   69 1   
    76   36   70 1   
    77   36   71 1   
@<TRIPOS>SUBSTRUCTURE
     1 DAY         1 TEMP              0 ****  ****    0 ROOT
