@<TRIPOS>MOLECULE
DAY
   72    77     1     0     0
SMALL
bcc


@<TRIPOS>ATOM
      1 C1          0.0890    0.2210   -0.0020 c3        1 DAY      0.006900
      2 O1         -3.0650   -0.7440   -0.0920 oh        1 DAY     -0.600800
      3 C2          1.5400    0.0340   -0.0190 cc        1 DAY     -0.243600
      4 C3          2.3050    0.0880    1.1670 cd        1 DAY     -0.066100
      5 C4          1.6880    0.2290    2.4560 cf        1 DAY     -0.100200
      6 C5          0.3370    0.1550    2.5500 ce        1 DAY     -0.039200
      7 C6         -0.3340    0.2830    3.8430 ce        1 DAY     -0.085200
      8 C7         -1.6750    0.3210    3.9510 c2        1 DAY     -0.147200
      9 C8         -2.5950    0.2400    2.7880 c3        1 DAY     -0.019500
     10 C9         -1.8600    0.6270    1.4970 c3        1 DAY     -0.041700
     11 C10        -0.5450   -0.1650    1.3510 c3        1 DAY      0.008200
     12 C11        -2.7870    0.6020    0.2710 c3        1 DAY      0.151100
     13 C12        -4.0720    1.4120    0.4950 c3        1 DAY     -0.103400
     14 C13        -4.7790    1.0230    1.7810 c3        1 DAY     -0.022000
     15 C14        -3.7750    1.1810    2.9430 c3        1 DAY     -0.060700
     16 C15        -4.6350    1.1120    4.1950 c3        1 DAY     -0.067400
     17 C16        -5.9680    1.7730    3.7990 c3        1 DAY     -0.089700
     18 C17        -5.9160    1.9910    2.2550 c3        1 DAY      0.059800
     19 C18        -5.3660   -0.3740    1.6680 c3        1 DAY     -0.110100
     20 C19        -0.7550   -1.6780    1.3680 c3        1 DAY     -0.089100
     21 C20        -7.2500    1.6740    1.5920 c         1 DAY      0.514100
     22 C21        -7.5560    2.4430    0.3280 c3        1 DAY      0.036400
     23 N1          3.6500   -0.0650    0.7830 na        1 DAY      0.163300
     24 O2         -5.5140    3.3040    1.8900 oh        1 DAY     -0.586800
     25 O3         -8.0550    0.8550    2.0450 o         1 DAY     -0.524100
     26 O4         -8.5330    1.8140   -0.4700 oh        1 DAY     -0.587800
     27 C22         2.5020   -0.1590   -1.0720 cc        1 DAY      0.312200
     28 N2          3.7550   -0.2190   -0.5530 nd        1 DAY     -0.501800
     29 C23         5.8090   -1.0080    1.4860 ca        1 DAY     -0.127500
     30 C24         4.7740   -0.0670    1.6590 ca        1 DAY      0.025800
     31 C25         6.8990   -1.0000    2.3520 ca        1 DAY     -0.121500
     32 C26         6.9780   -0.0710    3.3880 ca        1 DAY     -0.131000
     33 C27         4.8640    0.8840    2.6960 ca        1 DAY     -0.127500
     34 C29         5.9600    0.8670    3.5540 ca        1 DAY     -0.121500
     35 C28         0.5150    0.3610    5.0610 c3        1 DAY     -0.059900
     36 C30        -6.2130    3.0400    4.5780 c3        1 DAY     -0.097100
     37 H1         -0.4030   -0.3870   -0.8080 hc        1 DAY      0.055200
     38 HO1        -3.7860   -0.7210   -0.7330 ho        1 DAY      0.402000
     39 H4          2.3340    0.3920    3.3320 ha        1 DAY      0.141000
     40 H1A        -0.1230    1.3060   -0.2200 hc        1 DAY      0.055200
     41 H7         -2.1640    0.4050    4.9350 ha        1 DAY      0.127000
     42 H8         -2.9600   -0.8240    2.7030 hc        1 DAY      0.082700
     43 H9         -1.5580    1.7130    1.5990 hc        1 DAY      0.057700
     44 H11        -2.2420    1.0820   -0.5970 h1        1 DAY      0.034700
     45 H12        -4.7580    1.2590   -0.3790 hc        1 DAY      0.058700
     46 H12A       -3.8050    2.5010    0.5320 hc        1 DAY      0.058700
     47 H14        -3.3720    2.2370    2.8860 hc        1 DAY      0.063700
     48 H15        -4.1530    1.6510    5.0470 hc        1 DAY      0.050200
     49 H15A       -4.8030    0.0520    4.5090 hc        1 DAY      0.050200
     50 H16        -6.8070    1.0530    4.0110 hc        1 DAY      0.080700
     51 H18        -4.5620   -1.1370    1.5310 hc        1 DAY      0.052367
     52 H18A       -5.9540   -0.6310    2.5830 hc        1 DAY      0.052367
     53 H18B       -6.0500   -0.4300    0.7840 hc        1 DAY      0.052367
     54 H19         0.2250   -2.1880    1.2060 hc        1 DAY      0.047367
     55 H19A       -1.4580   -1.9920    0.5600 hc        1 DAY      0.047367
     56 H19B       -1.1680   -2.0060    2.3520 hc        1 DAY      0.047367
     57 H21        -7.8960    3.4760    0.6140 h1        1 DAY      0.073700
     58 H21A       -6.6390    2.5200   -0.3170 h1        1 DAY      0.073700
     59 HO2        -6.1200    3.9210    2.3200 ho        1 DAY      0.406000
     60 HO4        -9.2180    1.4670    0.1190 ho        1 DAY      0.418000
     61 H22         2.3190   -0.2540   -2.1430 h4        1 DAY      0.044100
     62 H25         7.7050   -1.7370    2.2120 ha        1 DAY      0.137000
     63 H26         7.8410   -0.0750    4.0690 ha        1 DAY      0.136000
     64 H27         4.0790    1.6450    2.8270 ha        1 DAY      0.151000
     65 H29         6.0230    1.6090    4.3650 ha        1 DAY      0.137000
     66 H28         1.1980   -0.5230    5.1180 hc        1 DAY      0.043367
     67 H28A        1.1380    1.2900    5.0400 hc        1 DAY      0.043367
     68 H28B       -0.1080    0.3810    5.9890 hc        1 DAY      0.043367
     69 H30        -5.3790    3.7700    4.4290 hc        1 DAY      0.040700
     70 H30A       -7.1720    3.5190    4.2650 hc        1 DAY      0.040700
     71 H30B       -6.2800    2.8060    5.6690 hc        1 DAY      0.040700
     72 H23         5.7650   -1.7450    0.6680 ha        1 DAY      0.151000
@<TRIPOS>BOND
     1    1    3 1   
     2    1   11 1   
     3    1   37 1   
     4    1   40 1   
     5    2   12 1   
     6    2   38 1   
     7    3    4 2   
     8    3   27 1   
     9    4    5 1   
    10    4   23 1   
    11    5    6 2   
    12    5   39 1   
    13    6    7 1   
    14    6   11 1   
    15    7    8 2   
    16    7   35 1   
    17    8    9 1   
    18    8   41 1   
    19    9   10 1   
    20    9   15 1   
    21    9   42 1   
    22   10   11 1   
    23   10   12 1   
    24   10   43 1   
    25   11   20 1   
    26   12   13 1   
    27   12   44 1   
    28   13   14 1   
    29   13   45 1   
    30   13   46 1   
    31   14   15 1   
    32   14   18 1   
    33   14   19 1   
    34   15   16 1   
    35   15   47 1   
    36   16   17 1   
    37   16   48 1   
    38   16   49 1   
    39   17   18 1   
    40   17   36 1   
    41   17   50 1   
    42   18   21 1   
    43   18   24 1   
    44   19   51 1   
    45   19   52 1   
    46   19   53 1   
    47   20   54 1   
    48   20   55 1   
    49   20   56 1   
    50   21   22 1   
    51   21   25 2   
    52   22   26 1   
    53   22   57 1   
    54   22   58 1   
    55   23   28 1   
    56   23   30 1   
    57   24   59 1   
    58   26   60 1   
    59   27   28 2   
    60   27   61 1   
    61   29   30 ar  
    62   29   31 ar  
    63   29   72 1   
    64   30   33 ar  
    65   31   32 ar  
    66   31   62 1   
    67   32   34 ar  
    68   32   63 1   
    69   33   34 ar  
    70   33   64 1   
    71   34   65 1   
    72   35   66 1   
    73   35   67 1   
    74   35   68 1   
    75   36   69 1   
    76   36   70 1   
    77   36   71 1   
@<TRIPOS>SUBSTRUCTURE
     1 DAY         1 TEMP              0 ****  ****    0 ROOT
