@<TRIPOS>MOLECULE
DB0
   38    34     1     0     0
SMALL
bcc


@<TRIPOS>ATOM
      1 CAL         1.0510    0.4150    0.8780 c1        1 DB0     -0.053000
      2 CAM         2.3950    0.7640    1.0640 c1        1 DB0     -0.124167
      3 CAN         2.9550    0.7210    2.3350 c1        1 DB0     -0.124167
      4 CAU         2.1800    0.3300    3.4250 c1        1 DB0     -0.124167
      5 CAT         0.8500   -0.0160    3.2420 c1        1 DB0     -0.124167
      6 CAS         0.2830    0.0270    1.9570 c1        1 DB0      0.064000
      7 OAR        -0.8450   -0.7330    1.5330 os        1 DB0     -0.170000
      8 CAQ        -2.0500    0.0180    1.6710 c2        1 DB0      0.064000
      9 CAP        -3.0820   -0.3350    2.5560 c2        1 DB0     -0.136000
     10 CAO        -4.3960   -0.0000    2.2600 c1        1 DB0     -0.114000
     11 CAH        -4.6920    0.6870    1.0850 c1        1 DB0     -0.124167
     12 CAI        -3.6710    1.0370    0.2090 c1        1 DB0     -0.124167
     13 CAJ        -2.3420    0.6990    0.5070 c1        1 DB0     -0.064000
     14 CAK        -1.1700    1.5930    0.0840 c2        1 DB0     -0.090000
     15 CAG         0.1740    0.9760   -0.2450 c2        1 DB0     -0.071000
     16 CAF         0.7250    1.0740   -1.6540 c3        1 DB0     -0.034000
     17 NAB         1.0020   -0.5060   -2.2730 n3        1 DB0     -0.257000
     18 CAA         0.3540   -0.6020   -3.8630 c3        1 DB0     -0.123000
     19 CAC         2.6970   -0.7850   -2.3450 c3        1 DB0      0.028000
     20 CAD         2.9740   -2.2610   -2.1610 c1        1 DB0     -0.162000
     21 CAE         3.1920   -3.4200   -2.0160 c1        1 DB0     -0.211000
     22 HAM         2.9380    1.0380    0.3010 ha        1 DB0      0.138000
     23 HAN         3.8920    0.9650    2.4650 ha        1 DB0      0.138000
     24 HAU         2.5740    0.3000    4.3180 ha        1 DB0      0.138000
     25 HAT         0.3080   -0.2900    4.0050 ha        1 DB0      0.138000
     26 HAP        -2.8750   -0.8170    3.3800 ha        1 DB0      0.148000
     27 HAO        -5.1130   -0.2460    2.8750 ha        1 DB0      0.136000
     28 HAH        -5.6150    0.9230    0.8770 ha        1 DB0      0.138000
     29 HAI        -3.8790    1.5190   -0.6140 ha        1 DB0      0.138000
     30 HAK        -1.2960    2.5570    0.0050 ha        1 DB0      0.154000
     31 HAF1        1.5660    1.5720   -1.6410 h1        1 DB0      0.083000
     32 HAF2        0.0810    1.5380   -2.2230 h1        1 DB0      0.083000
     33 HAA1        1.0860   -0.6230   -4.5130 h1        1 DB0      0.075333
     34 HAA2       -0.1810   -1.4170   -3.9490 h1        1 DB0      0.075333
     35 HAA3       -0.2120    0.1810   -4.0330 h1        1 DB0      0.075333
     36 HAC1        3.0380   -0.4950   -3.2160 h1        1 DB0      0.099000
     37 HAC2        3.1410   -0.2780   -1.6360 h1        1 DB0      0.099000
     38 HAE         3.3720   -4.3740   -1.8960 DU        1 DB0      0.221000
@<TRIPOS>BOND
     1    1    6 1   
     2    1   15 1   
     3    2    3 1   
     4    2   22 1   
     5    3   23 1   
     6    4    5 1   
     7    4   24 1   
     8    5   25 1   
     9    6    7 1   
    10    7    8 1   
    11    8    9 1   
    12    8   13 1   
    13    9   10 1   
    14    9   26 1   
    15   10   27 1   
    16   11   12 1   
    17   11   28 1   
    18   12   29 1   
    19   13   14 1   
    20   14   15 1   
    21   14   30 1   
    22   15   16 1   
    23   16   17 1   
    24   16   31 1   
    25   16   32 1   
    26   17   18 1   
    27   17   19 1   
    28   18   33 1   
    29   18   34 1   
    30   18   35 1   
    31   19   20 1   
    32   19   36 1   
    33   19   37 1   
    34   20   21 1   
@<TRIPOS>SUBSTRUCTURE
     1 DB0         1 TEMP              0 ****  ****    0 ROOT
