@<TRIPOS>MOLECULE
DB0
   38    40     1     0     0
SMALL
bcc


@<TRIPOS>ATOM
      1 CAL         0.1850    1.4940   -0.6190 ca        1 DB0     -0.117300
      2 CAM        -0.2330    2.4620   -1.5490 ca        1 DB0     -0.114000
      3 CAN         0.3900    3.7040   -1.6240 ca        1 DB0     -0.138000
      4 CAU         1.4520    4.0140   -0.7730 ca        1 DB0     -0.117000
      5 CAT         1.9050    3.0700    0.1420 ca        1 DB0     -0.199300
      6 CAS         1.2720    1.8210    0.2130 ca        1 DB0      0.364900
      7 OAR         1.7220    0.9550    1.2140 os        1 DB0     -0.510600
      8 CAQ         2.2890   -0.2190    0.7090 ca        1 DB0      0.364900
      9 CAP         3.6350   -0.4530    1.0260 ca        1 DB0     -0.201300
     10 CAO         4.2210   -1.6570    0.6460 ca        1 DB0     -0.115000
     11 CAH         3.4760   -2.6100   -0.0500 ca        1 DB0     -0.140000
     12 CAI         2.1410   -2.3700   -0.3610 ca        1 DB0     -0.105000
     13 CAJ         1.5200   -1.1650    0.0100 ca        1 DB0     -0.128300
     14 CAK         0.1170   -0.9670   -0.2960 cc        1 DB0     -0.091000
     15 CAG        -0.4980    0.2060   -0.5420 cd        1 DB0     -0.073300
     16 CAF        -1.9790    0.2600   -0.8330 c3        1 DB0      0.210100
     17 NAB        -2.7780   -0.7280   -0.1150 n3        1 DB0     -0.730600
     18 CAA        -2.7770   -0.5240    1.3160 c3        1 DB0      0.146100
     19 CAC        -4.1230   -0.8210   -0.6840 c3        1 DB0      0.248900
     20 CAD        -4.9510   -1.8410   -0.0840 c1        1 DB0     -0.139100
     21 CAE        -5.6640   -2.6820    0.3780 c1        1 DB0     -0.146500
     22 HAM        -1.0610    2.2310   -2.2360 ha        1 DB0      0.134000
     23 HAN         0.0430    4.4450   -2.3600 ha        1 DB0      0.135000
     24 HAU         1.9350    5.0010   -0.8290 ha        1 DB0      0.136000
     25 HAT         2.7440    3.2890    0.8190 ha        1 DB0      0.148000
     26 HAP         4.2020    0.3080    1.5800 ha        1 DB0      0.148000
     27 HAO         5.2740   -1.8550    0.8960 ha        1 DB0      0.136000
     28 HAH         3.9450   -3.5580   -0.3530 ha        1 DB0      0.135000
     29 HAI         1.5580   -3.1290   -0.9040 ha        1 DB0      0.138000
     30 HAK        -0.4730   -1.9050   -0.3200 ha        1 DB0      0.153000
     31 HAF1       -2.1090    0.0760   -1.9400 h1        1 DB0      0.041700
     32 HAF2       -2.3510    1.3070   -0.6150 h1        1 DB0      0.041700
     33 HAA1       -1.7150   -0.5240    1.6770 h1        1 DB0      0.040367
     34 HAA2       -3.2620    0.4420    1.6260 h1        1 DB0      0.040367
     35 HAA3       -3.3280   -1.3730    1.8010 h1        1 DB0      0.040367
     36 HAC1       -4.6750    0.1670   -0.6080 h1        1 DB0      0.048700
     37 HAC2       -4.0080   -1.0640   -1.7840 h1        1 DB0      0.048700
     38 HAE        -6.3000   -3.4260    0.7860 ha        1 DB0      0.165500
@<TRIPOS>BOND
     1    1    2 ar  
     2    1    6 ar  
     3    1   15 1   
     4    2    3 ar  
     5    2   22 1   
     6    3    4 ar  
     7    3   23 1   
     8    4    5 ar  
     9    4   24 1   
    10    5    6 ar  
    11    5   25 1   
    12    6    7 1   
    13    7    8 1   
    14    8    9 ar  
    15    8   13 ar  
    16    9   10 ar  
    17    9   26 1   
    18   10   11 ar  
    19   10   27 1   
    20   11   12 ar  
    21   11   28 1   
    22   12   13 ar  
    23   12   29 1   
    24   13   14 1   
    25   14   15 2   
    26   14   30 1   
    27   15   16 1   
    28   16   17 1   
    29   16   31 1   
    30   16   32 1   
    31   17   18 1   
    32   17   19 1   
    33   18   33 1   
    34   18   34 1   
    35   18   35 1   
    36   19   20 1   
    37   19   36 1   
    38   19   37 1   
    39   20   21 3   
    40   21   38 1   
@<TRIPOS>SUBSTRUCTURE
     1 DB0         1 TEMP              0 ****  ****    0 ROOT
