@<TRIPOS>MOLECULE
DB1
   19    19     1     0     0
SMALL
bcc


@<TRIPOS>ATOM
      1 O1          0.8560    1.3350   -0.5610 oh        1 DB1     -0.555100
      2 O4          1.8620    1.0590    1.9320 oh        1 DB1     -0.507100
      3 O7          2.2980   -0.8870   -3.7600 o         1 DB1     -0.427100
      4 N1          0.7890    0.7180   -3.1180 n4        1 DB1     -0.748400
      5 C1          1.8720    0.4400   -0.3370 ca        1 DB1      0.161100
      6 C4          2.4230    0.2690    0.9560 ca        1 DB1      0.057100
      7 C7          3.4560   -0.6430    1.1770 ca        1 DB1     -0.092000
      8 C10         3.9480   -1.3940    0.1060 ca        1 DB1     -0.117000
      9 C13         3.4190   -1.2390   -1.1670 ca        1 DB1     -0.048000
     10 C16         2.3720   -0.3200   -1.4120 ca        1 DB1     -0.209600
     11 C19         1.9040   -0.2510   -2.7900 c         1 DB1      0.583700
     12 HO1         0.6250    1.7760    0.2790 ho        1 DB1      0.493000
     13 HO4         2.3030    0.8700    2.7760 ho        1 DB1      0.461000
     14 HN11        0.5560    0.6700   -4.1160 hn        1 DB1      0.472800
     15 HN12        1.0800    1.6710   -2.8690 hn        1 DB1      0.472800
     16 H7          3.8790   -0.7690    2.1880 ha        1 DB1      0.173000
     17 H10         4.7650   -2.1160    0.2760 ha        1 DB1      0.178000
     18 H13         3.8140   -1.8370   -2.0090 ha        1 DB1      0.179000
     19 H131       -0.0370    0.4920   -2.5520 hn        1 DB1      0.472800
@<TRIPOS>BOND
     1    1    5 1   
     2    1   12 1   
     3    2    6 1   
     4    2   13 1   
     5    3   11 2   
     6    4   11 1   
     7    4   14 1   
     8    4   15 1   
     9    4   19 1   
    10    5    6 ar  
    11    5   10 ar  
    12    6    7 ar  
    13    7    8 ar  
    14    7   16 1   
    15    8    9 ar  
    16    8   17 1   
    17    9   10 ar  
    18    9   18 1   
    19   10   11 1   
@<TRIPOS>SUBSTRUCTURE
     1 DB1         1 TEMP              0 ****  ****    0 ROOT
