@<TRIPOS>MOLECULE
DB1
   18    18     1     0     0
SMALL
bcc


@<TRIPOS>ATOM
      1 O1          1.9070    0.1900   -0.4160 oh        1 DB1     -0.527100
      2 O4          0.9130   -0.0270   -2.9450 oh        1 DB1     -0.493100
      3 O7          1.1940    0.9180    2.2050 o         1 DB1     -0.643100
      4 N1         -0.5980   -0.2590    2.9340 n         1 DB1     -0.660000
      5 C1          0.5410    0.1660   -0.5360 ca        1 DB1      0.114100
      6 C4          0.0650    0.0500   -1.8670 ca        1 DB1      0.098100
      7 C7         -1.3070    0.0050   -2.1240 ca        1 DB1     -0.114000
      8 C10        -2.2040    0.0800   -1.0570 ca        1 DB1     -0.137000
      9 C13        -1.7460    0.1840    0.2510 ca        1 DB1     -0.111000
     10 C16        -0.3710    0.2140    0.5290 ca        1 DB1     -0.186600
     11 C19         0.1260    0.3220    1.9270 c         1 DB1      0.681700
     12 HO1         2.1500    0.5290    0.4640 ho        1 DB1      0.471000
     13 HO4         1.8230    0.0810   -2.6230 ho        1 DB1      0.442000
     14 HN11       -0.2700   -0.1960    3.8660 hn        1 DB1      0.318000
     15 HN12       -1.4180   -0.7750    2.7460 hn        1 DB1      0.318000
     16 H7         -1.6610   -0.0820   -3.1620 ha        1 DB1      0.157000
     17 H10        -3.2860    0.0590   -1.2590 ha        1 DB1      0.141000
     18 H13        -2.4780    0.2640    1.0680 ha        1 DB1      0.134000
@<TRIPOS>BOND
     1    1    5 1   
     2    1   12 1   
     3    2    6 1   
     4    2   13 1   
     5    3   11 2   
     6    4   11 1   
     7    4   14 1   
     8    4   15 1   
     9    5    6 ar  
    10    5   10 ar  
    11    6    7 ar  
    12    7    8 ar  
    13    7   16 1   
    14    8    9 ar  
    15    8   17 1   
    16    9   10 ar  
    17    9   18 1   
    18   10   11 1   
@<TRIPOS>SUBSTRUCTURE
     1 DB1         1 TEMP              0 ****  ****    0 ROOT
