@<TRIPOS>MOLECULE
DB1
   19    19     1     0     0
SMALL
bcc


@<TRIPOS>ATOM
      1 O1          0.6080   -1.0650   -0.7570 oh        1 DB1     -0.555100
      2 O4          1.4070   -1.0940    1.8240 oh        1 DB1     -0.507100
      3 O7          2.7510    0.9540   -3.6870 o         1 DB1     -0.427100
      4 N1          0.9010   -0.3390   -3.2690 n4        1 DB1     -0.748400
      5 C1          1.7510   -0.3980   -0.3950 ca        1 DB1      0.161100
      6 C4          2.2000   -0.3910    0.9480 ca        1 DB1      0.057100
      7 C7          3.3640    0.2890    1.3090 ca        1 DB1     -0.092000
      8 C10         4.0900    0.9710    0.3290 ca        1 DB1     -0.117000
      9 C13         3.6650    0.9750   -0.9920 ca        1 DB1     -0.048000
     10 C16         2.4890    0.2920   -1.3780 ca        1 DB1     -0.209600
     11 C19         2.1490    0.3720   -2.7920 c         1 DB1      0.583700
     12 HO1         0.2180   -1.4860    0.0320 ho        1 DB1      0.493000
     13 HO4         1.7930   -1.0310    2.7120 ho        1 DB1      0.461000
     14 HN11        0.7780   -0.2040   -4.2790 hn        1 DB1      0.472800
     15 HN12        0.0860    0.0260   -2.7620 hn        1 DB1      0.472800
     16 H7          3.7050    0.2880    2.3570 ha        1 DB1      0.173000
     17 H10         5.0110    1.5100    0.6100 ha        1 DB1      0.178000
     18 H13         4.2460    1.5160   -1.7600 ha        1 DB1      0.179000
     19 H131        0.9750   -1.3400   -3.0530 hn        1 DB1      0.472800
@<TRIPOS>BOND
     1    1    5 1   
     2    1   12 1   
     3    2    6 1   
     4    2   13 1   
     5    3   11 2   
     6    4   11 1   
     7    4   14 1   
     8    4   15 1   
     9    4   19 1   
    10    5    6 ar  
    11    5   10 ar  
    12    6    7 ar  
    13    7    8 ar  
    14    7   16 1   
    15    8    9 ar  
    16    8   17 1   
    17    9   10 ar  
    18    9   18 1   
    19   10   11 1   
@<TRIPOS>SUBSTRUCTURE
     1 DB1         1 TEMP              0 ****  ****    0 ROOT
