@<TRIPOS>MOLECULE
DB1
   18    17     1     0     0
SMALL
bcc


@<TRIPOS>ATOM
      1 O1         -2.1250   -0.1540    0.5180 oh        1 DB1     -0.263000
      2 O4         -0.7820   -0.0700    2.9650 oh        1 DB1     -0.273000
      3 O7         -1.1600   -1.3040   -2.3810 o         1 DB1     -0.379000
      4 N1         -0.8860    0.9360   -2.7240 n         1 DB1     -0.409000
      5 C1         -0.7180   -0.1490    0.5490 c2        1 DB1      0.093000
      6 C4         -0.0520   -0.1190    1.7630 c2        1 DB1     -0.014000
      7 C7          1.3340   -0.1450    1.7950 c2        1 DB1     -0.149000
      8 C10         2.0530   -0.1990    0.6110 c1        1 DB1     -0.138000
      9 C13         1.3860   -0.2290   -0.6040 c1        1 DB1     -0.076000
     10 C16         0.0010   -0.2040   -0.6350 c2        1 DB1     -0.121000
     11 C19        -0.7270   -0.2490   -1.9610 c2        1 DB1      0.349000
     12 HO1        -2.4270   -0.8940    0.9070 ho        1 DB1      0.247000
     13 HO4        -0.7530    0.7550    3.2960 ho        1 DB1      0.232000
     14 HN11       -1.4650    0.9510   -3.4320 hn        1 DB1      0.227500
     15 HN12       -0.4030    1.6830   -2.5140 hn        1 DB1      0.227500
     16 H7          1.8030   -0.1240    2.6500 ha        1 DB1      0.139000
     17 H10         3.0280   -0.2170    0.6330 ha        1 DB1      0.143000
     18 H13         1.8930   -0.2680   -1.4370 ha        1 DB1      0.164000
@<TRIPOS>BOND
     1    1    5 1   
     2    1   12 1   
     3    2    6 1   
     4    2   13 1   
     5    3   11 1   
     6    4   11 1   
     7    4   14 1   
     8    4   15 1   
     9    5    6 1   
    10    5   10 1   
    11    6    7 1   
    12    7    8 1   
    13    7   16 1   
    14    8   17 1   
    15    9   10 1   
    16    9   18 1   
    17   10   11 1   
@<TRIPOS>SUBSTRUCTURE
     1 DB1         1 TEMP              0 ****  ****    0 ROOT
