@<TRIPOS>MOLECULE
DB4
   64    64     1     0     0
SMALL
bcc


@<TRIPOS>ATOM
      1 O10         0.5890   -0.7780   -1.0840 o         1 DB4     -0.600000
      2 C14         1.5100   -0.0310   -1.4380 c         1 DB4      0.666100
      3 C15         2.8850    0.0770   -0.8540 c3        1 DB4     -0.143400
      4 C16         2.9470   -0.4800    0.5500 c3        1 DB4     -0.074400
      5 C17         4.3640   -0.5010    1.0640 c3        1 DB4     -0.090100
      6 O9          1.3140    0.8550   -2.4490 os        1 DB4     -0.422900
      7 C9          0.2620    0.6110   -3.3960 c3        1 DB4      0.119400
      8 C8          0.8790    0.3590   -4.7710 c3        1 DB4      0.111100
      9 O7          1.0450   -1.0480   -5.0170 os        1 DB4     -0.459900
     10 C10         2.2480   -1.6160   -4.6660 c         1 DB4      0.682100
     11 O8          2.8120   -1.1770   -3.6570 o         1 DB4     -0.605000
     12 C11         2.6700   -2.7220   -5.5740 c3        1 DB4     -0.157400
     13 C12         3.8730   -3.4780   -5.0520 c3        1 DB4     -0.058400
     14 C13         4.5790   -4.2080   -6.1660 c3        1 DB4     -0.119100
     15 C7         -0.0930    0.8570   -5.8670 c3        1 DB4      0.202400
     16 O13         0.0060    2.2340   -5.9840 os        1 DB4     -0.569200
     17 P1          0.4910    2.8370   -7.4630 p5        1 DB4      1.439800
     18 O11        -0.2680    2.0720   -8.4770 o         1 DB4     -0.838000
     19 O12         0.4300    4.3010   -7.2990 o         1 DB4     -0.838000
     20 O1          2.0310    2.2780   -7.4230 os        1 DB4     -0.579200
     21 C1          2.5170    1.5050   -8.4900 c3        1 DB4      0.179100
     22 C2          2.6590    0.0350   -8.0300 c3        1 DB4      0.107100
     23 O2          3.2970   -0.0480   -6.7670 oh        1 DB4     -0.616800
     24 C3          3.3530   -0.8200   -9.1020 c3        1 DB4      0.105600
     25 O3          3.3850   -2.1630   -8.6630 oh        1 DB4     -0.682300
     26 C4          4.7660   -0.2850   -9.4050 c3        1 DB4      0.165100
     27 O4          5.3840   -1.0740  -10.3490 os        1 DB4     -0.561200
     28 P4          6.8370   -1.8060   -9.7520 p5        1 DB4      1.325900
     29 O43         7.3800   -2.6160  -10.8880 o         1 DB4     -0.923500
     30 O42         7.5830   -0.5470   -9.3850 o         1 DB4     -0.923500
     31 O41         6.2400   -2.5750   -8.5940 o         1 DB4     -0.923500
     32 C5          4.6460    1.1640   -9.9090 c3        1 DB4      0.105600
     33 O5          5.9220    1.7450  -10.1180 oh        1 DB4     -0.682300
     34 C6          3.8940    2.0640   -8.9070 c3        1 DB4      0.107100
     35 O6          3.6680    3.3380   -9.5070 oh        1 DB4     -0.616800
     36 H1          3.2160    1.1480   -0.8750 hc        1 DB4      0.096700
     37 H2          3.5620   -0.4990   -1.5490 hc        1 DB4      0.096700
     38 H3          2.5210   -1.5190    0.5520 hc        1 DB4      0.041200
     39 H4          2.3040    0.1380    1.2300 hc        1 DB4      0.041200
     40 H5          4.3950   -0.9140    2.1010 hc        1 DB4      0.026367
     41 H6          5.0080   -1.1360    0.4090 hc        1 DB4      0.026367
     42 H7          4.7930    0.5300    1.0810 hc        1 DB4      0.026367
     43 H8         -0.3160    1.5750   -3.4240 h1        1 DB4      0.066200
     44 H9         -0.3870   -0.2400   -3.0730 h1        1 DB4      0.066200
     45 H10         1.8740    0.8760   -4.8670 h1        1 DB4      0.119700
     46 H11         1.8050   -3.4090   -5.7560 hc        1 DB4      0.112700
     47 H12         2.9330   -2.2370   -6.5720 hc        1 DB4      0.112700
     48 H13         3.5480   -4.1980   -4.2550 hc        1 DB4      0.020200
     49 H14         4.5840   -2.7530   -4.5720 hc        1 DB4      0.020200
     50 H15         5.4010   -4.8370   -5.7480 hc        1 DB4      0.055033
     51 H16         3.8690   -4.8720   -6.7140 hc        1 DB4      0.055033
     52 H17         5.0310   -3.4890   -6.9140 hc        1 DB4      0.055033
     53 H18        -1.1450    0.5890   -5.5610 h1        1 DB4      0.029200
     54 H19         0.1420    0.3510   -6.8430 h1        1 DB4      0.029200
     55 H21         1.7980    1.5560   -9.3560 h1        1 DB4      0.065700
     56 H22         1.6400   -0.4060   -7.8350 h1        1 DB4      0.052700
     57 H23         4.1950    0.2870   -6.8770 ho        1 DB4      0.404000
     58 H24         2.7270   -0.7930  -10.0380 h1        1 DB4      0.031200
     59 H25         4.3280   -2.4630   -8.7020 ho        1 DB4      0.488500
     60 H26         5.3690   -0.2810   -8.4440 h1        1 DB4      0.051700
     61 H29         4.1070    1.1850  -10.8970 h1        1 DB4      0.031200
     62 H30         6.5980    1.0380   -9.9660 ho        1 DB4      0.488500
     63 H31         4.5230    2.2100   -7.9850 h1        1 DB4      0.052700
     64 H32         4.5150    3.5940   -9.8910 ho        1 DB4      0.404000
@<TRIPOS>BOND
     1    1    2 2   
     2    2    3 1   
     3    2    6 1   
     4    3    4 1   
     5    3   36 1   
     6    3   37 1   
     7    4    5 1   
     8    4   38 1   
     9    4   39 1   
    10    5   40 1   
    11    5   41 1   
    12    5   42 1   
    13    6    7 1   
    14    7    8 1   
    15    7   43 1   
    16    7   44 1   
    17    8    9 1   
    18    8   15 1   
    19    8   45 1   
    20    9   10 1   
    21   10   11 2   
    22   10   12 1   
    23   12   13 1   
    24   12   46 1   
    25   12   47 1   
    26   13   14 1   
    27   13   48 1   
    28   13   49 1   
    29   14   50 1   
    30   14   51 1   
    31   14   52 1   
    32   15   16 1   
    33   15   53 1   
    34   15   54 1   
    35   16   17 1   
    36   17   18 1   
    37   17   19 1   
    38   17   20 1   
    39   20   21 1   
    40   21   22 1   
    41   21   34 1   
    42   21   55 1   
    43   22   23 1   
    44   22   24 1   
    45   22   56 1   
    46   23   57 1   
    47   24   25 1   
    48   24   26 1   
    49   24   58 1   
    50   25   59 1   
    51   26   27 1   
    52   26   32 1   
    53   26   60 1   
    54   27   28 1   
    55   28   29 1   
    56   28   30 1   
    57   28   31 1   
    58   32   33 1   
    59   32   34 1   
    60   32   61 1   
    61   33   62 1   
    62   34   35 1   
    63   34   63 1   
    64   35   64 1   
@<TRIPOS>SUBSTRUCTURE
     1 DB4         1 TEMP              0 ****  ****    0 ROOT
