@<TRIPOS>MOLECULE
DB4
   64    64     1     0     0
SMALL
bcc


@<TRIPOS>ATOM
      1 O10         0.7890   -0.9790   -0.7680 o         1 DB4     -0.588000
      2 C14         1.7050   -0.1990   -1.0500 c         1 DB4      0.670100
      3 C15         1.7820    1.2770   -0.8280 c3        1 DB4     -0.152400
      4 C16         0.7790    1.7550    0.1970 c3        1 DB4     -0.069400
      5 C17         0.7230    3.2600    0.2300 c3        1 DB4     -0.094100
      6 O9          2.8520   -0.7030   -1.6030 os        1 DB4     -0.439900
      7 C9          2.7380   -1.8410   -2.4660 c3        1 DB4      0.118400
      8 C8          2.6430   -1.3590   -3.9180 c3        1 DB4      0.107100
      9 O7          2.7120   -2.4970   -4.7930 os        1 DB4     -0.452900
     10 C10         3.9630   -2.9730   -5.1120 c         1 DB4      0.670100
     11 O8          4.8540   -2.8480   -4.2640 o         1 DB4     -0.594000
     12 C11         4.0180   -3.6060   -6.4630 c3        1 DB4     -0.157400
     13 C12         5.3540   -4.2530   -6.7500 c3        1 DB4     -0.057400
     14 C13         5.5240   -4.5040   -8.2260 c3        1 DB4     -0.121100
     15 C7          1.2920   -0.6770   -4.2250 c3        1 DB4      0.186400
     16 O13         1.3880    0.6860   -3.9680 os        1 DB4     -0.580200
     17 P1          1.0790    1.7370   -5.2180 p5        1 DB4      1.435800
     18 O11         0.0050    1.1350   -6.0330 o         1 DB4     -0.839000
     19 O12         1.0010    3.0490   -4.5430 o         1 DB4     -0.839000
     20 O1          2.5060    1.6440   -6.0160 os        1 DB4     -0.592200
     21 C1          2.5400    1.2350   -7.3600 c3        1 DB4      0.139100
     22 C2          2.9020   -0.2580   -7.4950 c3        1 DB4      0.111100
     23 O2          4.0590   -0.5880   -6.7470 oh        1 DB4     -0.614800
     24 C3          3.0170   -0.6160   -8.9880 c3        1 DB4      0.127100
     25 O3          3.2300   -2.0080   -9.1030 oh        1 DB4     -0.670300
     26 C4          4.1330    0.1990   -9.6690 c3        1 DB4      0.160100
     27 O4          4.2370   -0.1560  -10.9960 os        1 DB4     -0.561200
     28 P4          5.7800   -0.8440  -11.3900 p5        1 DB4      1.325900
     29 O43         5.7100   -1.1710  -12.8500 o         1 DB4     -0.922833
     30 O42         6.6600    0.3090  -10.9800 o         1 DB4     -0.922833
     31 O41         5.7580   -2.0150  -10.4330 o         1 DB4     -0.922833
     32 C5          3.8300    1.7100   -9.5430 c3        1 DB4      0.127100
     33 O5          4.9090    2.4750  -10.0460 oh        1 DB4     -0.670300
     34 C6          3.6050    2.1060   -8.0700 c3        1 DB4      0.111100
     35 O6          3.1820    3.4650   -8.0540 oh        1 DB4     -0.614800
     36 H1          2.8250    1.5590   -0.5310 hc        1 DB4      0.110200
     37 H2          1.5800    1.7490   -1.8380 hc        1 DB4      0.110200
     38 H3          1.0500    1.3580    1.2100 hc        1 DB4      0.035700
     39 H4         -0.2330    1.3400   -0.0600 hc        1 DB4      0.035700
     40 H5          0.4570    3.6610   -0.7790 hc        1 DB4      0.031367
     41 H6         -0.0430    3.6050    0.9670 hc        1 DB4      0.031367
     42 H7          1.7120    3.6860    0.5240 hc        1 DB4      0.031367
     43 H8          3.7000   -2.3990   -2.3080 h1        1 DB4      0.061700
     44 H9          1.8610   -2.4750   -2.1850 h1        1 DB4      0.061700
     45 H10         3.4910   -0.6560   -4.1500 h1        1 DB4      0.109700
     46 H11         3.1790   -4.3400   -6.5650 hc        1 DB4      0.114700
     47 H12         3.8300   -2.7740   -7.2200 hc        1 DB4      0.114700
     48 H13         6.1750   -3.5780   -6.3870 hc        1 DB4      0.020200
     49 H14         5.4400   -5.2130   -6.1750 hc        1 DB4      0.020200
     50 H15         6.4890   -5.0350   -8.4130 hc        1 DB4      0.055700
     51 H16         5.5340   -3.5390   -8.8160 hc        1 DB4      0.055700
     52 H17         4.6910   -5.1370   -8.6150 hc        1 DB4      0.055700
     53 H18         0.5080   -1.1160   -3.5430 h1        1 DB4      0.041200
     54 H19         1.0000   -0.8610   -5.2960 h1        1 DB4      0.041200
     55 H21         1.5250    1.4040   -7.8210 h1        1 DB4      0.060700
     56 H22         2.1030   -0.9040   -7.0310 h1        1 DB4      0.052200
     57 H23         4.8150   -0.1790   -7.1860 ho        1 DB4      0.403000
     58 H24         2.0290   -0.3920   -9.4800 h1        1 DB4      0.033200
     59 H25         4.0340   -2.1390   -9.6660 ho        1 DB4      0.483500
     60 H26         5.1130   -0.0090   -9.1370 h1        1 DB4      0.047700
     61 H29         2.9170    1.9790  -10.1420 h1        1 DB4      0.033200
     62 H30         5.5470    1.8480  -10.4650 ho        1 DB4      0.483500
     63 H31         4.5770    2.0180   -7.5090 h1        1 DB4      0.052200
     64 H32         3.1070    3.7040   -7.1230 ho        1 DB4      0.403000
@<TRIPOS>BOND
     1    1    2 2   
     2    2    3 1   
     3    2    6 1   
     4    3    4 1   
     5    3   36 1   
     6    3   37 1   
     7    4    5 1   
     8    4   38 1   
     9    4   39 1   
    10    5   40 1   
    11    5   41 1   
    12    5   42 1   
    13    6    7 1   
    14    7    8 1   
    15    7   43 1   
    16    7   44 1   
    17    8    9 1   
    18    8   15 1   
    19    8   45 1   
    20    9   10 1   
    21   10   11 2   
    22   10   12 1   
    23   12   13 1   
    24   12   46 1   
    25   12   47 1   
    26   13   14 1   
    27   13   48 1   
    28   13   49 1   
    29   14   50 1   
    30   14   51 1   
    31   14   52 1   
    32   15   16 1   
    33   15   53 1   
    34   15   54 1   
    35   16   17 1   
    36   17   18 1   
    37   17   19 1   
    38   17   20 1   
    39   20   21 1   
    40   21   22 1   
    41   21   34 1   
    42   21   55 1   
    43   22   23 1   
    44   22   24 1   
    45   22   56 1   
    46   23   57 1   
    47   24   25 1   
    48   24   26 1   
    49   24   58 1   
    50   25   59 1   
    51   26   27 1   
    52   26   32 1   
    53   26   60 1   
    54   27   28 1   
    55   28   29 1   
    56   28   30 1   
    57   28   31 1   
    58   32   33 1   
    59   32   34 1   
    60   32   61 1   
    61   33   62 1   
    62   34   35 1   
    63   34   63 1   
    64   35   64 1   
@<TRIPOS>SUBSTRUCTURE
     1 DB4         1 TEMP              0 ****  ****    0 ROOT
