@<TRIPOS>MOLECULE
DB7
   42    42     1     0     0
SMALL
bcc


@<TRIPOS>ATOM
      1 C1         -0.1620    0.5720   -0.2200 ca        1 DB7     -0.071600
      2 C2          1.2210    0.3500   -0.3220 ca        1 DB7     -0.071600
      3 C3          1.9840    0.1890    0.8400 ca        1 DB7     -0.091500
      4 C4          1.3720    0.2220    2.0920 ca        1 DB7     -0.116500
      5 C5         -0.0050    0.4160    2.1920 ca        1 DB7     -0.116500
      6 C6         -0.7710    0.5900    1.0400 ca        1 DB7     -0.091500
      7 C7         -0.9870    0.8260   -1.4190 c         1 DB7      0.645700
      8 C8          1.8850    0.2430   -1.6360 c         1 DB7      0.645700
      9 C13         3.7590    0.8890   -2.9590 c3        1 DB7      0.139400
     10 C14         4.9870    1.7640   -2.7880 c3        1 DB7     -0.086400
     11 C15         5.7860    1.7980   -4.0730 c3        1 DB7     -0.079400
     12 C16         7.0130    2.6600   -3.9300 c3        1 DB7     -0.092100
     13 O9          3.0710    0.9240   -1.6950 os        1 DB7     -0.434900
     14 O11         1.5230   -0.3940   -2.6260 o         1 DB7     -0.521000
     15 O12        -0.7420    1.5680   -2.3710 o         1 DB7     -0.521000
     16 O10        -2.1820    0.1610   -1.3980 os        1 DB7     -0.434900
     17 C17        -3.0260    0.3400   -2.5510 c3        1 DB7      0.139400
     18 C18        -4.2390   -0.5410   -2.3190 c3        1 DB7     -0.086400
     19 C19        -5.1960   -0.4280   -3.4860 c3        1 DB7     -0.079400
     20 C20        -6.4130   -1.2930   -3.2800 c3        1 DB7     -0.092100
     21 H1          3.0730    0.0410    0.7520 ha        1 DB7      0.156000
     22 H2          1.9800    0.0930    3.0010 ha        1 DB7      0.143000
     23 H3         -0.4910    0.4320    3.1790 ha        1 DB7      0.143000
     24 H4         -1.8600    0.7390    1.1090 ha        1 DB7      0.156000
     25 H5          4.0300   -0.1730   -3.1910 h1        1 DB7      0.055700
     26 H6          3.0740    1.2790   -3.7560 h1        1 DB7      0.055700
     27 H7          4.6700    2.8000   -2.5020 hc        1 DB7      0.054700
     28 H8          5.6170    1.3660   -1.9510 hc        1 DB7      0.054700
     29 H9          5.1430    2.1910   -4.9040 hc        1 DB7      0.042200
     30 H10         6.0880    0.7540   -4.3540 hc        1 DB7      0.042200
     31 H11         6.7300    3.7090   -3.6730 hc        1 DB7      0.035033
     32 H12         7.5890    2.6740   -4.8870 hc        1 DB7      0.035033
     33 H13         7.6790    2.2690   -3.1230 hc        1 DB7      0.035033
     34 H14        -2.4570    0.0370   -3.4680 h1        1 DB7      0.055700
     35 H15        -3.3030    1.4230   -2.6290 h1        1 DB7      0.055700
     36 H16        -4.7500   -0.2340   -1.3690 hc        1 DB7      0.054700
     37 H17        -3.9090   -1.6050   -2.1910 hc        1 DB7      0.054700
     38 H18        -5.5110    0.6420   -3.6110 hc        1 DB7      0.042200
     39 H19        -4.6730   -0.7320   -4.4310 hc        1 DB7      0.042200
     40 H20        -6.1210   -2.3660   -3.1770 hc        1 DB7      0.035033
     41 H21        -7.1060   -1.1980   -4.1500 hc        1 DB7      0.035033
     42 H22        -6.9620   -0.9890   -2.3560 hc        1 DB7      0.035033
@<TRIPOS>BOND
     1    1    2 ar  
     2    1    6 ar  
     3    1    7 1   
     4    2    3 ar  
     5    2    8 1   
     6    3    4 ar  
     7    3   21 1   
     8    4    5 ar  
     9    4   22 1   
    10    5    6 ar  
    11    5   23 1   
    12    6   24 1   
    13    7   15 2   
    14    7   16 1   
    15    8   13 1   
    16    8   14 2   
    17    9   10 1   
    18    9   13 1   
    19    9   25 1   
    20    9   26 1   
    21   10   11 1   
    22   10   27 1   
    23   10   28 1   
    24   11   12 1   
    25   11   29 1   
    26   11   30 1   
    27   12   31 1   
    28   12   32 1   
    29   12   33 1   
    30   16   17 1   
    31   17   18 1   
    32   17   34 1   
    33   17   35 1   
    34   18   19 1   
    35   18   36 1   
    36   18   37 1   
    37   19   20 1   
    38   19   38 1   
    39   19   39 1   
    40   20   40 1   
    41   20   41 1   
    42   20   42 1   
@<TRIPOS>SUBSTRUCTURE
     1 DB7         1 TEMP              0 ****  ****    0 ROOT
