@<TRIPOS>MOLECULE
DB7
   42    42     1     0     0
SMALL
bcc


@<TRIPOS>ATOM
      1 C1         -0.1520    0.5270   -0.2150 ca        1 DB7     -0.071600
      2 C2          1.2300    0.3080   -0.3360 ca        1 DB7     -0.071600
      3 C3          2.0040    0.1100    0.8130 ca        1 DB7     -0.091000
      4 C4          1.4030    0.1040    2.0710 ca        1 DB7     -0.116000
      5 C5          0.0270    0.2950    2.1890 ca        1 DB7     -0.116000
      6 C6         -0.7490    0.5060    1.0500 ca        1 DB7     -0.091000
      7 C7         -0.9870    0.8190   -1.3970 c         1 DB7      0.645700
      8 C8          1.8820    0.2430   -1.6590 c         1 DB7      0.645700
      9 C13         3.7490    0.9220   -2.9750 c3        1 DB7      0.139400
     10 C14         4.9830    1.7820   -2.7850 c3        1 DB7     -0.086400
     11 C15         5.7710    1.8550   -4.0750 c3        1 DB7     -0.079400
     12 C16         7.0060    2.7040   -3.9140 c3        1 DB7     -0.092100
     13 O9          3.0710    0.9180   -1.7050 os        1 DB7     -0.434900
     14 O11         1.5080   -0.3590   -2.6670 o         1 DB7     -0.521000
     15 O12        -0.7540    1.5950   -2.3250 o         1 DB7     -0.521000
     16 O10        -2.1800    0.1480   -1.3900 os        1 DB7     -0.434900
     17 C17        -3.0340    0.3620   -2.5300 c3        1 DB7      0.139400
     18 C18        -4.2400   -0.5320   -2.3190 c3        1 DB7     -0.086400
     19 C19        -5.2080   -0.3830   -3.4740 c3        1 DB7     -0.079400
     20 C20        -6.4180   -1.2620   -3.2890 c3        1 DB7     -0.092100
     21 H1          3.0910   -0.0350    0.7120 ha        1 DB7      0.156000
     22 H2          2.0180   -0.0530    2.9700 ha        1 DB7      0.143000
     23 H3         -0.4500    0.2810    3.1810 ha        1 DB7      0.143000
     24 H4         -1.8380    0.6530    1.1350 ha        1 DB7      0.156000
     25 H5          4.0100   -0.1340   -3.2460 h1        1 DB7      0.055700
     26 H6          3.0590    1.3430   -3.7530 h1        1 DB7      0.055700
     27 H7          4.6760    2.8110   -2.4610 hc        1 DB7      0.054700
     28 H8          5.6180    1.3530   -1.9680 hc        1 DB7      0.054700
     29 H9          5.1230    2.2810   -4.8870 hc        1 DB7      0.042200
     30 H10         6.0640    0.8200   -4.3950 hc        1 DB7      0.042200
     31 H11         6.7320    3.7460   -3.6190 hc        1 DB7      0.035033
     32 H12         7.5740    2.7470   -4.8750 hc        1 DB7      0.035033
     33 H13         7.6760    2.2820   -3.1270 hc        1 DB7      0.035033
     34 H14        -2.4700    0.0940   -3.4610 h1        1 DB7      0.055700
     35 H15        -3.3170    1.4460   -2.5670 h1        1 DB7      0.055700
     36 H16        -4.7450   -0.2620   -1.3550 hc        1 DB7      0.054700
     37 H17        -3.9040   -1.5980   -2.2300 hc        1 DB7      0.054700
     38 H18        -5.5280    0.6890   -3.5590 hc        1 DB7      0.042200
     39 H19        -4.6900   -0.6510   -4.4330 hc        1 DB7      0.042200
     40 H20        -6.1200   -2.3360   -3.2260 hc        1 DB7      0.035033
     41 H21        -7.1190   -1.1390   -4.1500 hc        1 DB7      0.035033
     42 H22        -6.9610   -0.9940   -2.3500 hc        1 DB7      0.035033
@<TRIPOS>BOND
     1    1    2 ar  
     2    1    6 ar  
     3    1    7 1   
     4    2    3 ar  
     5    2    8 1   
     6    3    4 ar  
     7    3   21 1   
     8    4    5 ar  
     9    4   22 1   
    10    5    6 ar  
    11    5   23 1   
    12    6   24 1   
    13    7   15 2   
    14    7   16 1   
    15    8   13 1   
    16    8   14 2   
    17    9   10 1   
    18    9   13 1   
    19    9   25 1   
    20    9   26 1   
    21   10   11 1   
    22   10   27 1   
    23   10   28 1   
    24   11   12 1   
    25   11   29 1   
    26   11   30 1   
    27   12   31 1   
    28   12   32 1   
    29   12   33 1   
    30   16   17 1   
    31   17   18 1   
    32   17   34 1   
    33   17   35 1   
    34   18   19 1   
    35   18   36 1   
    36   18   37 1   
    37   19   20 1   
    38   19   38 1   
    39   19   39 1   
    40   20   40 1   
    41   20   41 1   
    42   20   42 1   
@<TRIPOS>SUBSTRUCTURE
     1 DB7         1 TEMP              0 ****  ****    0 ROOT
