@<TRIPOS>MOLECULE
DB7
   42    39     1     0     0
SMALL
bcc


@<TRIPOS>ATOM
      1 C1         -0.5730   -0.1220    2.2960 cg        1 DB7     -0.021700
      2 C2          0.8160    0.0020    2.2930 cg        1 DB7     -0.021700
      3 C3          1.5110    0.0510    3.4970 c1        1 DB7     -0.033500
      4 C4          0.8210   -0.0230    4.7030 c1        1 DB7     -0.059000
      5 C5         -0.5630   -0.1460    4.7070 c1        1 DB7     -0.059000
      6 C6         -1.2610   -0.1950    3.5020 c1        1 DB7     -0.033500
      7 C7         -1.3540   -0.1410    0.9570 c         1 DB7      0.596300
      8 C8          1.5830    0.1200    0.9460 c         1 DB7      0.596300
      9 C13         3.4860   -0.3740   -0.4430 c3        1 DB7      0.139900
     10 C14         4.2300   -1.5930   -1.0140 c3        1 DB7     -0.100400
     11 C15         5.0100   -1.1800   -2.2290 c3        1 DB7     -0.077400
     12 C16         5.3500   -2.4060   -3.0550 c3        1 DB7     -0.091600
     13 O9          2.6310   -0.7970    0.6410 os        1 DB7     -0.433900
     14 O11         1.2900    0.9800    0.1600 o         1 DB7     -0.524500
     15 O12        -0.9620   -0.8220    0.0400 o         1 DB7     -0.524500
     16 O10        -2.5450    0.6380    0.8120 os        1 DB7     -0.433900
     17 C17        -3.1870    0.4870   -0.4670 c3        1 DB7      0.139900
     18 C18        -4.3740    1.4450   -0.5580 c3        1 DB7     -0.100400
     19 C19        -5.0610    1.2850   -1.9420 c3        1 DB7     -0.077400
     20 C20        -5.9380    2.5040   -2.2220 c3        1 DB7     -0.091600
     21 H1          2.4830    0.1370    3.4960 ha        1 DB7      0.098500
     22 H2          1.3140    0.0110    5.5550 ha        1 DB7      0.085500
     23 H3         -1.0510   -0.1990    5.5610 ha        1 DB7      0.085500
     24 H4         -2.2260   -0.2810    3.5050 ha        1 DB7      0.098500
     25 H5          4.1380    0.2810   -0.1100 h1        1 DB7      0.058950
     26 H6          2.9370    0.0400   -1.1540 h1        1 DB7      0.058950
     27 H7          3.5880   -2.2770   -1.2590 hc        1 DB7      0.060450
     28 H8          4.8400   -1.9470   -0.3400 hc        1 DB7      0.060450
     29 H9          4.4720   -0.5620   -2.7680 hc        1 DB7      0.039950
     30 H10         5.8340   -0.7370   -1.9510 hc        1 DB7      0.039950
     31 H11         4.5360   -2.9490   -3.1880 hc        1 DB7      0.034533
     32 H12         6.0300   -2.9430   -2.5830 hc        1 DB7      0.034533
     33 H13         5.7000   -2.1270   -3.9200 hc        1 DB7      0.034533
     34 H14        -2.5520    0.6890   -1.1750 h1        1 DB7      0.058950
     35 H15        -3.5020   -0.4290   -0.5660 h1        1 DB7      0.058950
     36 H16        -5.0160    1.2370    0.1510 hc        1 DB7      0.060450
     37 H17        -4.0600    2.3630   -0.4530 hc        1 DB7      0.060450
     38 H18        -5.6150    0.4780   -1.9400 hc        1 DB7      0.039950
     39 H19        -4.3790    1.2090   -2.6380 hc        1 DB7      0.039950
     40 H20        -5.3710    3.2610   -2.4970 hc        1 DB7      0.034533
     41 H21        -6.4340    2.7440   -1.4090 hc        1 DB7      0.034533
     42 H22        -6.5760    2.2900   -2.9450 hc        1 DB7      0.034533
@<TRIPOS>BOND
     1    1    6 3   
     2    1    7 1   
     3    2    3 3   
     4    2    8 1   
     5    3   21 1   
     6    4    5 3   
     7    4   22 1   
     8    5   23 1   
     9    6   24 1   
    10    7   15 2   
    11    7   16 1   
    12    8   13 1   
    13    8   14 2   
    14    9   10 1   
    15    9   13 1   
    16    9   25 1   
    17    9   26 1   
    18   10   11 1   
    19   10   27 1   
    20   10   28 1   
    21   11   12 1   
    22   11   29 1   
    23   11   30 1   
    24   12   31 1   
    25   12   32 1   
    26   12   33 1   
    27   16   17 1   
    28   17   18 1   
    29   17   34 1   
    30   17   35 1   
    31   18   19 1   
    32   18   36 1   
    33   18   37 1   
    34   19   20 1   
    35   19   38 1   
    36   19   39 1   
    37   20   40 1   
    38   20   41 1   
    39   20   42 1   
@<TRIPOS>SUBSTRUCTURE
     1 DB7         1 TEMP              0 ****  ****    0 ROOT
