@<TRIPOS>MOLECULE
DB7
   42    42     1     0     0
SMALL
bcc


@<TRIPOS>ATOM
      1 C1         -0.6860    1.2160   -0.5520 ca        1 DB7     -0.071600
      2 C2          0.6200    1.2650   -0.0400 ca        1 DB7     -0.071600
      3 C3          1.2740    2.4960    0.0760 ca        1 DB7     -0.091000
      4 C4          0.6230    3.6740   -0.2890 ca        1 DB7     -0.116000
      5 C5         -0.6840    3.6280   -0.7730 ca        1 DB7     -0.116000
      6 C6         -1.3380    2.4040   -0.9050 ca        1 DB7     -0.091000
      7 C7         -1.3790   -0.0710   -0.7650 c         1 DB7      0.645700
      8 C8          1.3090    0.0420    0.4180 c         1 DB7      0.645700
      9 C13         3.3430   -1.2010    0.4060 c3        1 DB7      0.139400
     10 C14         4.7230   -1.0600   -0.2070 c3        1 DB7     -0.086400
     11 C15         5.5720   -2.2630    0.1400 c3        1 DB7     -0.079400
     12 C16         6.9520   -2.1480   -0.4560 c3        1 DB7     -0.092100
     13 O9          2.6160   -0.0180    0.0200 os        1 DB7     -0.434900
     14 O11         0.8650   -0.8690    1.1190 o         1 DB7     -0.521000
     15 O12        -0.9370   -1.1000   -1.2780 o         1 DB7     -0.521000
     16 O10        -2.6860   -0.0500   -0.3620 os        1 DB7     -0.434900
     17 C17        -3.4150   -1.2820   -0.5120 c3        1 DB7      0.139400
     18 C18        -4.7940   -1.0230    0.0640 c3        1 DB7     -0.086400
     19 C19        -5.6470   -2.2690   -0.0430 c3        1 DB7     -0.079400
     20 C20        -7.0250   -2.0380    0.5210 c3        1 DB7     -0.092100
     21 H1          2.3080    2.5230    0.4550 ha        1 DB7      0.156000
     22 H2          1.1440    4.6390   -0.1940 ha        1 DB7      0.143000
     23 H3         -1.2020    4.5580   -1.0540 ha        1 DB7      0.143000
     24 H4         -2.3720    2.3600   -1.2820 ha        1 DB7      0.156000
     25 H5          2.8010   -2.1020    0.0170 h1        1 DB7      0.055700
     26 H6          3.3830   -1.2480    1.5250 h1        1 DB7      0.055700
     27 H7          4.6290   -0.9590   -1.3190 hc        1 DB7      0.054700
     28 H8          5.2070   -0.1220    0.1720 hc        1 DB7      0.054700
     29 H9          5.6500   -2.3590    1.2550 hc        1 DB7      0.042200
     30 H10         5.0740   -3.1950   -0.2380 hc        1 DB7      0.042200
     31 H11         7.5630   -3.0440   -0.1910 hc        1 DB7      0.035033
     32 H12         6.8950   -2.0760   -1.5690 hc        1 DB7      0.035033
     33 H13         7.4730   -1.2380   -0.0720 hc        1 DB7      0.035033
     34 H14        -3.4570   -1.5440   -1.6010 h1        1 DB7      0.055700
     35 H15        -2.8750   -2.0930    0.0430 h1        1 DB7      0.055700
     36 H16        -4.6990   -0.7100    1.1360 hc        1 DB7      0.054700
     37 H17        -5.2770   -0.1750   -0.4880 hc        1 DB7      0.054700
     38 H18        -5.7260   -2.5780   -1.1190 hc        1 DB7      0.042200
     39 H19        -5.1500   -3.1110    0.5070 hc        1 DB7      0.042200
     40 H20        -6.9670   -1.7520    1.5990 hc        1 DB7      0.035033
     41 H21        -7.5450   -1.2180   -0.0310 hc        1 DB7      0.035033
     42 H22        -7.6380   -2.9670    0.4340 hc        1 DB7      0.035033
@<TRIPOS>BOND
     1    1    2 ar  
     2    1    6 ar  
     3    1    7 1   
     4    2    3 ar  
     5    2    8 1   
     6    3    4 ar  
     7    3   21 1   
     8    4    5 ar  
     9    4   22 1   
    10    5    6 ar  
    11    5   23 1   
    12    6   24 1   
    13    7   15 2   
    14    7   16 1   
    15    8   13 1   
    16    8   14 2   
    17    9   10 1   
    18    9   13 1   
    19    9   25 1   
    20    9   26 1   
    21   10   11 1   
    22   10   27 1   
    23   10   28 1   
    24   11   12 1   
    25   11   29 1   
    26   11   30 1   
    27   12   31 1   
    28   12   32 1   
    29   12   33 1   
    30   16   17 1   
    31   17   18 1   
    32   17   34 1   
    33   17   35 1   
    34   18   19 1   
    35   18   36 1   
    36   18   37 1   
    37   19   20 1   
    38   19   38 1   
    39   19   39 1   
    40   20   40 1   
    41   20   41 1   
    42   20   42 1   
@<TRIPOS>SUBSTRUCTURE
     1 DB7         1 TEMP              0 ****  ****    0 ROOT
