@<TRIPOS>MOLECULE
DB8
   65    68     1     0     0
SMALL
bcc


@<TRIPOS>ATOM
      1 CAA         0.5560    3.3320    1.6080 c3        1 DB8      0.106700
      2 CAC         6.4280   -0.8330   -0.4460 c3        1 DB8      0.172800
      3 NAD        -5.2960   -2.8250    0.1310 n1        1 DB8     -0.353800
      4 CL1        -8.0980    2.4950   -1.6690 cl        1 DB8     -0.062400
      5 CL2        -4.9970    2.1330    2.6290 cl        1 DB8     -0.092400
      6 CAH        -1.8610   -2.9070   -0.4200 ca        1 DB8      0.453200
      7 CAI        -6.4250    2.1760    0.3800 ca        1 DB8     -0.057000
      8 CAJ        -4.7660    0.3700   -0.9650 ca        1 DB8     -0.248000
      9 CAK         1.2640   -1.1390   -0.0350 ca        1 DB8     -0.251300
     10 CAL        -0.5290    0.8510    0.8500 ca        1 DB8     -0.187000
     11 CAM         5.3690    0.1160    0.1110 c3        1 DB8     -0.088400
     12 CAN         4.0030   -0.5360   -0.0290 c3        1 DB8      0.122400
     13 CAO        11.9240    0.6070   -0.5460 c3        1 DB8      0.157100
     14 CAP         8.1420    0.8680   -0.7020 c3        1 DB8      0.166800
     15 CAQ         8.7490   -1.4660   -0.5070 c3        1 DB8      0.166800
     16 CAR         9.6070    1.2680   -0.4410 c3        1 DB8      0.167800
     17 CAS        10.2100   -1.0610   -0.2370 c3        1 DB8      0.167800
     18 NAT        -0.5700   -2.6540   -0.4520 nb        1 DB8     -0.666000
     19 OAV         1.4240    2.2910    1.1710 os        1 DB8     -0.296900
     20 CAX        -5.8870    0.9040   -1.6050 ca        1 DB8      0.180100
     21 CAY        -6.7280    1.8180   -0.9320 ca        1 DB8     -0.038600
     22 CAZ        -5.3120    1.6440    1.0280 ca        1 DB8     -0.068600
     23 CBA        -2.8560   -1.9910    0.0540 ca        1 DB8     -0.177300
     24 CBB        -4.4610    0.7190    0.3680 ca        1 DB8      0.209600
     25 CBC         0.8230    1.1050    0.8140 ca        1 DB8      0.124100
     26 CBD         1.7400    0.0850    0.3710 ca        1 DB8      0.147100
     27 CBE        -2.4540   -0.7240    0.4950 ca        1 DB8      0.239600
     28 CBF        -0.1410   -1.4170   -0.0110 ca        1 DB8      0.435600
     29 CBG        -1.0420   -0.4130    0.4540 ca        1 DB8     -0.171300
     30 NBH         7.7940   -0.4280   -0.1380 n3        1 DB8     -0.727600
     31 NBI        10.5560    0.2290   -0.8160 n3        1 DB8     -0.732600
     32 C01        -5.4900   -0.4380   -3.5380 c3        1 DB8      0.109700
     33 HAA         1.2610    4.1730    1.8360 h1        1 DB8      0.049367
     34 HAAA       -0.1540    3.6220    0.7960 h1        1 DB8      0.049367
     35 HAAB        0.0000    3.0240    2.5270 h1        1 DB8      0.049367
     36 HAC         6.2740   -1.8510    0.0140 h1        1 DB8      0.032200
     37 HACA        6.2640   -0.9360   -1.5600 h1        1 DB8      0.032200
     38 HAH        -2.1780   -3.9060   -0.7770 h4        1 DB8      0.036100
     39 HAI        -7.0760    2.8880    0.9150 ha        1 DB8      0.165000
     40 HAJ        -4.1110   -0.3340   -1.5010 ha        1 DB8      0.156000
     41 HAK         1.9460   -1.9290   -0.3850 ha        1 DB8      0.165000
     42 HAL        -1.2140    1.6490    1.1720 ha        1 DB8      0.142000
     43 HAM         5.5640    0.3470    1.1900 hc        1 DB8      0.068200
     44 HAMA        5.3730    1.0870   -0.4490 hc        1 DB8      0.068200
     45 HAN         3.7920   -0.8180   -1.0940 h1        1 DB8      0.045200
     46 HANA        3.9130   -1.4400    0.6290 h1        1 DB8      0.045200
     47 HAO        12.6030   -0.1960   -0.9350 h1        1 DB8      0.032367
     48 HAOA       12.1470    1.5630   -1.0880 h1        1 DB8      0.032367
     49 HAOB       12.1390    0.7580    0.5480 h1        1 DB8      0.032367
     50 HAP         7.4880    1.6420   -0.2110 h1        1 DB8      0.037450
     51 HAPA        7.9500    0.9030   -1.8140 h1        1 DB8      0.037450
     52 HAQ         8.6490   -1.7570   -1.5930 h1        1 DB8      0.037450
     53 HAQA        8.5260   -2.3760    0.1170 h1        1 DB8      0.037450
     54 HAR         9.8300    2.1780   -1.0650 h1        1 DB8      0.037450
     55 HARA        9.7140    1.5570    0.6450 h1        1 DB8      0.037450
     56 HAS        10.3920   -1.0810    0.8770 h1        1 DB8      0.037450
     57 HASA       10.8740   -1.8380   -0.7100 h1        1 DB8      0.037450
     58 HNAU       -2.9990    0.7540    1.7890 hn        1 DB8      0.446800
     59 H01        -6.0080   -0.5490   -4.5250 h1        1 DB8      0.051700
     60 H01A       -4.4250   -0.1350   -3.6850 h1        1 DB8      0.051700
     61 H01B       -5.5570   -1.3840   -2.9480 h1        1 DB8      0.051700
     62 CAG        -4.2010   -2.4340    0.0930 cg        1 DB8      0.240800
     63 NAU        -3.3620    0.1860    1.0500 nh        1 DB8     -0.642000
     64 OAW         3.0600    0.4620    0.3950 os        1 DB8     -0.300900
     65 O02        -6.2240    0.6080   -2.9070 os        1 DB8     -0.308900
@<TRIPOS>BOND
     1    1   19 1   
     2    1   33 1   
     3    1   34 1   
     4    1   35 1   
     5    2   11 1   
     6    2   30 1   
     7    2   36 1   
     8    2   37 1   
     9    3   62 3   
    10    4   21 1   
    11    5   22 1   
    12    6   18 ar  
    13    6   23 ar  
    14    6   38 1   
    15    7   21 ar  
    16    7   22 ar  
    17    7   39 1   
    18    8   20 ar  
    19    8   24 ar  
    20    8   40 1   
    21    9   26 ar  
    22    9   28 ar  
    23    9   41 1   
    24   10   25 ar  
    25   10   29 ar  
    26   10   42 1   
    27   11   12 1   
    28   11   43 1   
    29   11   44 1   
    30   12   45 1   
    31   12   46 1   
    32   12   64 1   
    33   13   31 1   
    34   13   47 1   
    35   13   48 1   
    36   13   49 1   
    37   14   16 1   
    38   14   30 1   
    39   14   50 1   
    40   14   51 1   
    41   15   17 1   
    42   15   30 1   
    43   15   52 1   
    44   15   53 1   
    45   16   31 1   
    46   16   54 1   
    47   16   55 1   
    48   17   31 1   
    49   17   56 1   
    50   17   57 1   
    51   18   28 ar  
    52   19   25 1   
    53   20   21 ar  
    54   20   65 1   
    55   22   24 ar  
    56   23   27 ar  
    57   23   62 1   
    58   24   63 1   
    59   25   26 ar  
    60   26   64 1   
    61   27   29 ar  
    62   27   63 1   
    63   28   29 ar  
    64   32   59 1   
    65   32   60 1   
    66   32   61 1   
    67   32   65 1   
    68   58   63 1   
@<TRIPOS>SUBSTRUCTURE
     1 DB8         1 TEMP              0 ****  ****    0 ROOT
