@<TRIPOS>MOLECULE
DB8
   65    61     1     0     0
SMALL
bcc


@<TRIPOS>ATOM
      1 CAA        -3.4950   -0.8740   -1.8740 c3        1 DB8     -0.076000
      2 O02        -6.2450   -0.3060    7.7140 os        1 DB8     -0.214000
      3 CAC         3.5230   -0.7800   -3.3330 c3        1 DB8     -0.062000
      4 NAD        -1.3590    0.1010    7.0440 n1        1 DB8     -0.023000
      5 CL1        -6.6560    2.6170    8.0750 cl        1 DB8      0.012000
      6 CL2        -3.6860    3.4730    3.9890 cl        1 DB8     -0.004000
      7 CAG        -1.4610    0.0830    5.8980 c1        1 DB8     -0.093000
      8 CAH        -0.2090   -0.1140    4.3050 c1        1 DB8      0.006000
      9 CAI        -5.0740    2.6630    5.8630 c1        1 DB8     -0.080000
     10 CAJ        -4.8940   -0.0970    5.7030 c1        1 DB8     -0.174000
     11 CAK         0.2880   -0.2020    0.6660 c1        1 DB8     -0.193000
     12 CAL        -2.4860    0.1550    0.8550 c1        1 DB8     -0.105000
     13 CAM         2.0840   -0.2270   -3.2360 c3        1 DB8     -0.168000
     14 CAN         1.4790   -0.6300   -1.9290 c3        1 DB8     -0.026000
     15 CAO         6.8040    0.5440   -7.5650 c3        1 DB8     -0.119000
     16 CAP         4.7910   -1.4600   -5.3180 c3        1 DB8     -0.089500
     17 CAQ         5.4940    0.3990   -4.1830 c3        1 DB8     -0.089500
     18 CAR         5.5970   -1.0100   -6.5430 c3        1 DB8     -0.089500
     19 CAS         6.2980    0.8320   -5.4160 c3        1 DB8     -0.089500
     20 NAT         0.4070   -0.1470    3.0780 n1        1 DB8     -0.153000
     21 NAU        -3.6460   -0.0370    3.6300 n3        1 DB8     -0.284000
     22 OAV        -2.5000    0.1010   -1.6220 os        1 DB8     -0.212000
     23 OAW         0.1830    0.0700   -1.7530 os        1 DB8     -0.204000
     24 CAX        -5.6510    0.4960    6.7110 c2        1 DB8      0.095000
     25 CAY        -5.7390    1.8710    6.7880 c2        1 DB8     -0.101000
     26 CAZ        -4.3180    2.0710    4.8570 c1        1 DB8     -0.111000
     27 CBA        -1.5910    0.0630    4.3880 c1        1 DB8     -0.130000
     28 CBB        -4.2300    0.6920    4.7790 c1        1 DB8      0.102000
     29 CBC        -1.8750   -0.0380   -0.4010 c1        1 DB8      0.041000
     30 CBD        -0.4830   -0.2160   -0.4860 c1        1 DB8      0.090000
     31 CBE        -2.3270    0.2020    3.2540 c2        1 DB8      0.182000
     32 CBF        -0.3330   -0.0070    1.9370 c1        1 DB8      0.058000
     33 CBG        -1.7060    0.1690    2.0180 c2        1 DB8     -0.133000
     34 NBH         4.1590   -0.2780   -4.5480 n3        1 DB8     -0.258000
     35 NBI         5.9180    0.2080   -6.4600 n3        1 DB8     -0.259000
     36 C01        -7.5770   -0.7150    7.4220 c3        1 DB8     -0.075000
     37 HAA        -3.8020   -0.8000   -2.8430 h1        1 DB8      0.087000
     38 HAAA       -3.1240   -1.7720   -1.7150 h1        1 DB8      0.087000
     39 HAAB       -4.3010   -0.7170   -1.2430 h1        1 DB8      0.087000
     40 HAC         4.0590   -0.4800   -2.5180 h1        1 DB8      0.070000
     41 HACA        3.4950   -1.7280   -3.3610 h1        1 DB8      0.070000
     42 HAH         0.3060   -0.2720    5.1090 ha        1 DB8      0.174000
     43 HAI        -5.0850    3.5770    5.9520 ha        1 DB8      0.166000
     44 HAJ        -4.8910   -1.0580    5.6050 ha        1 DB8      0.165000
     45 HAK         1.2850   -0.3170    0.6050 ha        1 DB8      0.163000
     46 HAL        -3.5000    0.1720    0.9270 ha        1 DB8      0.149000
     47 HAM         2.1070    0.8090   -3.3000 hc        1 DB8      0.105500
     48 HAMA        1.5090   -0.6130   -4.0180 hc        1 DB8      0.105500
     49 HAN         1.3320   -1.6030   -1.9210 h1        1 DB8      0.086000
     50 HANA        2.0900   -0.3840   -1.1920 h1        1 DB8      0.086000
     51 HAO         7.6820    0.9130   -7.1960 h1        1 DB8      0.071000
     52 HAOA        6.9830   -0.2530   -8.0900 h1        1 DB8      0.071000
     53 HAOB        6.3810    1.2160   -8.1280 h1        1 DB8      0.071000
     54 HAP         4.0870   -2.0530   -5.6100 h1        1 DB8      0.089000
     55 HAPA        5.4020   -1.9660   -4.6950 h1        1 DB8      0.089000
     56 HAQ         6.0640   -0.2600   -3.6270 h1        1 DB8      0.089000
     57 HAQA        5.2960    1.2240   -3.6150 h1        1 DB8      0.089000
     58 HAR         6.4310   -1.5660   -6.6090 h1        1 DB8      0.088250
     59 HARA        5.0700   -1.1420   -7.3270 h1        1 DB8      0.088250
     60 HAS         6.1750    1.8300   -5.5600 h1        1 DB8      0.088250
     61 HASA        7.2260    0.6470   -5.2630 h1        1 DB8      0.088250
     62 HNAU       -4.1170   -0.6780    3.2190 hn        1 DB8      0.252000
     63 H01        -8.0100   -1.0230    8.2450 h1        1 DB8      0.085000
     64 H01A       -8.0730    0.0360    7.0560 h1        1 DB8      0.085000
     65 H01B       -7.5610   -1.4100    6.8010 h1        1 DB8      0.085000
@<TRIPOS>BOND
     1    1   22 1   
     2    1   37 1   
     3    1   38 1   
     4    1   39 1   
     5    2   24 1   
     6    2   36 1   
     7    3   13 1   
     8    3   34 1   
     9    3   40 1   
    10    3   41 1   
    11    4    7 1   
    12    5   25 1   
    13    6   26 1   
    14    8   20 1   
    15    8   42 1   
    16    9   25 1   
    17    9   43 1   
    18   10   24 1   
    19   10   44 1   
    20   11   32 1   
    21   11   45 1   
    22   12   33 1   
    23   12   46 1   
    24   13   14 1   
    25   13   47 1   
    26   13   48 1   
    27   14   23 1   
    28   14   49 1   
    29   14   50 1   
    30   15   35 1   
    31   15   51 1   
    32   15   52 1   
    33   15   53 1   
    34   16   18 1   
    35   16   34 1   
    36   16   54 1   
    37   16   55 1   
    38   17   19 1   
    39   17   34 1   
    40   17   56 1   
    41   17   57 1   
    42   18   35 1   
    43   18   58 1   
    44   18   59 1   
    45   19   35 1   
    46   19   60 1   
    47   19   61 1   
    48   21   28 1   
    49   21   31 1   
    50   21   62 1   
    51   22   29 1   
    52   23   30 1   
    53   24   25 1   
    54   26   28 1   
    55   27   31 1   
    56   29   30 1   
    57   31   33 1   
    58   32   33 1   
    59   36   63 1   
    60   36   64 1   
    61   36   65 1   
@<TRIPOS>SUBSTRUCTURE
     1 DB8         1 TEMP              0 ****  ****    0 ROOT
