@<TRIPOS>MOLECULE
DB8
   65    68     1     0     0
SMALL
bcc


@<TRIPOS>ATOM
      1 CAA         0.0000    0.0000    0.0000 c3        1 DB8      0.202700
      2 CAC         7.7620   -0.0620   -0.9830 c3        1 DB8      0.151800
      3 NAD         0.5990    0.0060    8.2400 n1        1 DB8     -0.400800
      4 Cl1        -3.2340    2.2600    9.3140 cl        1 DB8      0.008600
      5 Cl2         0.0800    2.9430    5.1040 cl        1 DB8     -0.004400
      6 CAH         3.2870    0.0060    5.9970 ca        1 DB8      0.456200
      7 CAI        -1.5840    2.4250    7.1750 ca        1 DB8     -0.046000
      8 CAJ        -1.6810   -0.2990    6.6590 ca        1 DB8     -0.209000
      9 CAK         4.0930   -0.0090    2.4930 ca        1 DB8     -0.242300
     10 CAL         1.2960    0.0010    2.3530 ca        1 DB8     -0.179000
     11 CAM         6.2380   -0.0490   -1.1260 c3        1 DB8     -0.057400
     12 CAN         5.5960   -0.0360    0.2630 c3        1 DB8      0.107400
     13 CAO        10.7640   -1.1170   -5.9310 c3        1 DB8      0.210100
     14 CAP         8.0850   -1.3310   -3.0190 c3        1 DB8      0.147300
     15 CAQ         9.8270    0.1520   -2.2290 c3        1 DB8      0.147300
     16 CAR         8.6760   -1.2720   -4.4310 c3        1 DB8      0.171300
     17 CAS        10.4180    0.2100   -3.6400 c3        1 DB8      0.171300
     18 NAT         3.9580    0.0000    4.8730 nb        1 DB8     -0.563000
     19 OAV         1.4290    0.0000    0.0000 os        1 DB8     -0.246900
     20 CAX        -2.3930    0.2320    7.7240 ca        1 DB8      0.197100
     21 CAY        -2.3430    1.5950    7.9800 ca        1 DB8     -0.048600
     22 CAZ        -0.8720    1.8990    6.1140 ca        1 DB8     -0.086600
     23 CBA         1.8830    0.0050    6.0160 ca        1 DB8     -0.245300
     24 CBB        -0.9200    0.5340    5.8520 ca        1 DB8     -0.007400
     25 CBC         2.0460    0.0010    1.2120 ca        1 DB8      0.092100
     26 CBD         3.4470   -0.0110    1.2780 ca        1 DB8      0.136100
     27 CBE         1.1800    0.0030    4.8020 ca        1 DB8      0.122600
     28 CBF         3.3450   -0.0010    3.6800 ca        1 DB8      0.441600
     29 CBG         1.9310    0.0030    3.6040 ca        1 DB8     -0.158300
     30 NBH         8.3770   -0.0740   -2.3170 n3        1 DB8     -0.489600
     31 NBI        10.1250   -1.0470   -4.3430 n3        1 DB8     -0.626600
     32 C01        -3.2370   -1.9540    8.1270 c3        1 DB8      0.211700
     33 HAA        -0.2090   -0.0090   -1.0630 h1        1 DB8     -0.000633
     34 HAAA       -0.7480   -0.7550    0.2100 h1        1 DB8     -0.000633
     35 HAAB       -0.5300    0.8980    0.2940 h1        1 DB8     -0.000633
     36 HAC         8.0620    0.5620   -0.1500 h1        1 DB8     -0.000800
     37 HACA        8.2340   -0.8270   -0.3790 h1        1 DB8     -0.000800
     38 HAH         3.2800    0.1150    7.0740 h4        1 DB8      0.016100
     39 HAI        -1.5480    3.5070    7.1980 ha        1 DB8      0.129000
     40 HAJ        -1.5300   -1.3490    6.4400 ha        1 DB8      0.133000
     41 HAK         5.1580    0.0190    2.2980 ha        1 DB8      0.143000
     42 HAL         0.2750   -0.0080    1.9930 ha        1 DB8      0.138000
     43 HAM         5.7530    0.7040   -1.7340 hc        1 DB8      0.031700
     44 HAMA        5.8640   -1.0280   -1.4010 hc        1 DB8      0.031700
     45 HAN         6.3140   -0.7770    0.5950 h1        1 DB8      0.037700
     46 HANA        6.0770    0.9260    0.3890 h1        1 DB8      0.037700
     47 HAO        11.7280   -0.7110   -5.6480 h1        1 DB8      0.016367
     48 HAOA       10.8350   -2.1180   -6.3380 h1        1 DB8      0.016367
     49 HAOB       10.2580   -0.2110   -6.2450 h1        1 DB8      0.016367
     50 HAP         7.0420   -1.6130   -3.1000 h1        1 DB8      0.012950
     51 HAPA        8.3550   -2.3500   -2.7670 h1        1 DB8      0.012950
     52 HAQ        10.1840   -0.7270   -1.7050 h1        1 DB8      0.012950
     53 HAQA        9.7770    0.9150   -1.4620 h1        1 DB8      0.012950
     54 HAR         8.4960   -2.1310   -5.0670 h1        1 DB8      0.005200
     55 HARA        8.0340   -0.6000   -4.9860 h1        1 DB8      0.005200
     56 HAS        10.2000    1.0490   -4.2890 h1        1 DB8      0.005200
     57 HASA       11.4900    0.0710   -3.7210 h1        1 DB8      0.005200
     58 HNAU       -0.8160   -0.4690    4.1440 hn        1 DB8      0.297800
     59 H01        -4.0950   -2.4740    8.5360 h1        1 DB8      0.005033
     60 H01A       -3.5010   -1.5960    7.1400 h1        1 DB8      0.005033
     61 H01B       -2.4430   -2.4950    7.6260 h1        1 DB8      0.005033
     62 CAG         1.1760    0.0050    7.2620 cg        1 DB8      0.251800
     63 NAU        -0.2010    0.0020    4.7770 nu        1 DB8     -0.226000
     64 OAW         4.1740   -0.0240    0.1300 os        1 DB8     -0.243900
     65 O02        -3.1400   -0.5820    8.5150 os        1 DB8     -0.275900
@<TRIPOS>BOND
     1    1   19 1   
     2    1   33 1   
     3    1   34 1   
     4    1   35 1   
     5    2   11 1   
     6    2   30 1   
     7    2   36 1   
     8    2   37 1   
     9    3   62 3   
    10    4   21 1   
    11    5   22 1   
    12    6   18 ar  
    13    6   23 ar  
    14    6   38 1   
    15    7   21 ar  
    16    7   22 ar  
    17    7   39 1   
    18    8   20 ar  
    19    8   24 ar  
    20    8   40 1   
    21    9   26 ar  
    22    9   28 ar  
    23    9   41 1   
    24   10   25 ar  
    25   10   29 ar  
    26   10   42 1   
    27   11   12 1   
    28   11   43 1   
    29   11   44 1   
    30   12   45 1   
    31   12   46 1   
    32   12   64 1   
    33   13   31 1   
    34   13   47 1   
    35   13   48 1   
    36   13   49 1   
    37   14   16 1   
    38   14   30 1   
    39   14   50 1   
    40   14   51 1   
    41   15   17 1   
    42   15   30 1   
    43   15   52 1   
    44   15   53 1   
    45   16   31 1   
    46   16   54 1   
    47   16   55 1   
    48   17   31 1   
    49   17   56 1   
    50   17   57 1   
    51   18   28 ar  
    52   19   25 1   
    53   20   21 ar  
    54   20   65 1   
    55   22   24 ar  
    56   23   27 ar  
    57   23   62 1   
    58   24   63 1   
    59   25   26 ar  
    60   26   64 1   
    61   27   29 ar  
    62   27   63 1   
    63   28   29 ar  
    64   32   59 1   
    65   32   60 1   
    66   32   61 1   
    67   32   65 1   
    68   58   63 1   
@<TRIPOS>SUBSTRUCTURE
     1 DB8         1 TEMP              0 ****  ****    0 ROOT
