@<TRIPOS>MOLECULE
DB8
   66    69     1     0     0
SMALL
bcc


@<TRIPOS>ATOM
      1 CAA         0.3200   -0.4680   -0.0900 c3        1 DB8      0.101700
      2 CAC         7.7160   -0.3380   -1.0220 c3        1 DB8      0.175800
      3 NAD         0.6370   -1.1690    8.5470 n1        1 DB8     -0.296800
      4 CL1        -3.0830    3.6620    7.8920 cl        1 DB8      0.016600
      5 CL2        -0.0070    2.0740    3.8720 cl        1 DB8     -0.031400
      6 CAH         3.2590   -0.8440    6.2860 ca        1 DB8      0.447200
      7 CAI        -1.5510    2.6820    5.9570 ca        1 DB8     -0.085000
      8 CAJ        -1.7380    0.0350    6.8570 ca        1 DB8     -0.190000
      9 CAK         4.1810   -0.5780    2.8010 ca        1 DB8     -0.252300
     10 CAL         1.3650   -0.5910    2.5400 ca        1 DB8     -0.258000
     11 CAM         6.1880   -0.2790   -0.9950 c3        1 DB8     -0.090400
     12 CAN         5.7190   -0.3970    0.4440 c3        1 DB8      0.121400
     13 CAO        10.6390   -0.0850   -5.8860 c3        1 DB8      0.156100
     14 CAP         7.9290   -0.9200   -3.3660 c3        1 DB8      0.166800
     15 CAQ         9.7190    0.2460   -2.2220 c3        1 DB8      0.166800
     16 CAR         8.5880   -0.5910   -4.7200 c3        1 DB8      0.168300
     17 CAS        10.3660    0.5740   -3.5800 c3        1 DB8      0.168300
     18 NAT         3.9950   -0.7420    5.1940 nb        1 DB8     -0.601000
     19 OAV         1.7300   -0.4570    0.1290 os        1 DB8     -0.272900
     20 CAX        -2.4010    1.0540    7.5450 ca        1 DB8      0.173100
     21 CAY        -2.3050    2.4000    7.0930 ca        1 DB8      0.037400
     22 CAZ        -0.8810    1.6670    5.2610 ca        1 DB8      0.016400
     23 CBA         1.8290   -0.8610    6.2800 ca        1 DB8     -0.090300
     24 CBB        -0.9640    0.3440    5.7220 ca        1 DB8     -0.025400
     25 CBC         2.1660   -0.5210    1.4210 ca        1 DB8      0.188100
     26 CBD         3.6110   -0.5100    1.5540 ca        1 DB8      0.170100
     27 CBE         1.1740   -0.7410    5.0510 ca        1 DB8      0.032600
     28 CBF         3.3660   -0.6610    3.9770 ca        1 DB8      0.447600
     29 CBG         1.9320   -0.6590    3.8430 ca        1 DB8     -0.111300
     30 NBH         8.2800    0.0230   -2.3140 n3        1 DB8     -0.728600
     31 NBI        10.0260   -0.3930   -4.6140 n3        1 DB8     -0.732600
     32 C01        -3.1730   -0.4680    9.2200 c3        1 DB8      0.099700
     33 HAA         0.2420   -0.4110   -1.2070 h1        1 DB8      0.059700
     34 HAAA       -0.1290   -1.4170    0.2910 h1        1 DB8      0.059700
     35 HAAB       -0.1580    0.4230    0.3860 h1        1 DB8      0.059700
     36 HAC         8.1140    0.3960   -0.2630 h1        1 DB8      0.032200
     37 HACA        8.0370   -1.3710   -0.6940 h1        1 DB8      0.032200
     38 HAH         3.8040   -0.9200    7.2500 h4        1 DB8      0.067100
     39 HAI        -1.4750    3.7250    5.5940 ha        1 DB8      0.194000
     40 HAJ        -1.8290   -1.0050    7.2140 ha        1 DB8      0.166000
     41 HAK         5.2780   -0.5730    2.9260 ha        1 DB8      0.186000
     42 HAL         0.2770   -0.5840    2.3890 ha        1 DB8      0.129000
     43 HAM         5.8180    0.6850   -1.4330 hc        1 DB8      0.072700
     44 HAMA        5.7500   -1.1150   -1.6000 hc        1 DB8      0.072700
     45 HAN         6.0820   -1.3450    0.9210 h1        1 DB8      0.052700
     46 HANA        6.0350    0.4890    1.0550 h1        1 DB8      0.052700
     47 HAO        11.7510   -0.0300   -5.7450 h1        1 DB8      0.036367
     48 HAOA       10.4070   -0.9120   -6.6070 h1        1 DB8      0.036367
     49 HAOB       10.2850    0.8860   -6.3280 h1        1 DB8      0.036367
     50 HAP         6.8140   -0.8710   -3.5120 h1        1 DB8      0.037200
     51 HAPA        8.1980   -1.9790   -3.0810 h1        1 DB8      0.037200
     52 HAQ        10.2490   -0.6450   -1.7750 h1        1 DB8      0.037200
     53 HAQA        9.8870    1.1280   -1.5420 h1        1 DB8      0.037200
     54 HAR         8.4110   -1.4640   -5.4080 h1        1 DB8      0.040450
     55 HARA        8.0730    0.3100   -5.1630 h1        1 DB8      0.040450
     56 HAS        10.0730    1.6240   -3.8770 h1        1 DB8      0.040450
     57 HASA       11.4830    0.5530   -3.4410 h1        1 DB8      0.040450
     58 HNAU       -0.6120   -1.6470    5.4170 hn        1 DB8      0.464300
     59 H01        -3.8080   -0.3380   10.1360 h1        1 DB8      0.067033
     60 H01A       -3.6420   -1.1980    8.5170 h1        1 DB8      0.067033
     61 H01B       -2.1360   -0.7760    9.4970 h1        1 DB8      0.067033
     62 NAU        -0.2980   -0.7550    5.0070 n4        1 DB8     -0.499800
     63 OAW         4.2780   -0.4310    0.3680 os        1 DB8     -0.286900
     64 HAU2       -0.6090   -0.7180    4.0260 hn        1 DB8      0.464300
     65 CAG         1.1530   -1.0230    7.5150 cg        1 DB8      0.199800
     66 O02        -3.1780    0.8430    8.6510 os        1 DB8     -0.286900
@<TRIPOS>BOND
     1    1   19 1   
     2    1   33 1   
     3    1   34 1   
     4    1   35 1   
     5    2   11 1   
     6    2   30 1   
     7    2   36 1   
     8    2   37 1   
     9    3   65 3   
    10    4   21 1   
    11    5   22 1   
    12    6   18 ar  
    13    6   23 ar  
    14    6   38 1   
    15    7   21 ar  
    16    7   22 ar  
    17    7   39 1   
    18    8   20 ar  
    19    8   24 ar  
    20    8   40 1   
    21    9   26 ar  
    22    9   28 ar  
    23    9   41 1   
    24   10   25 ar  
    25   10   29 ar  
    26   10   42 1   
    27   11   12 1   
    28   11   43 1   
    29   11   44 1   
    30   12   45 1   
    31   12   46 1   
    32   12   63 1   
    33   13   31 1   
    34   13   47 1   
    35   13   48 1   
    36   13   49 1   
    37   14   16 1   
    38   14   30 1   
    39   14   50 1   
    40   14   51 1   
    41   15   17 1   
    42   15   30 1   
    43   15   52 1   
    44   15   53 1   
    45   16   31 1   
    46   16   54 1   
    47   16   55 1   
    48   17   31 1   
    49   17   56 1   
    50   17   57 1   
    51   18   28 ar  
    52   19   25 1   
    53   20   21 ar  
    54   20   66 1   
    55   22   24 ar  
    56   23   27 ar  
    57   23   65 1   
    58   24   62 1   
    59   25   26 ar  
    60   26   63 1   
    61   27   29 ar  
    62   27   62 1   
    63   28   29 ar  
    64   32   59 1   
    65   32   60 1   
    66   32   61 1   
    67   32   66 1   
    68   58   62 1   
    69   62   64 1   
@<TRIPOS>SUBSTRUCTURE
     1 DB8         1 TEMP              0 ****  ****    0 ROOT
