@<TRIPOS>MOLECULE
DB9
   47    50     1     0     0
SMALL
bcc


@<TRIPOS>ATOM
      1 C1          0.2320    0.2670   -0.0730 ca        1 DB9     -0.087000
      2 C2          1.6010   -0.0200   -0.0150 ca        1 DB9     -0.266900
      3 C3          2.2020   -0.3390    1.2100 ca        1 DB9     -0.087000
      4 C4          1.4350   -0.3640    2.3700 ca        1 DB9     -0.114000
      5 C5          0.0610   -0.0730    2.3250 cp        1 DB9      0.032000
      6 C6         -0.5310    0.2390    1.0920 ca        1 DB9     -0.114000
      7 C7         -0.7270   -0.0950    3.5570 cp        1 DB9     -0.079000
      8 C8         -0.1950    0.4670    4.7290 ca        1 DB9     -0.080000
      9 C9         -0.9150    0.4220    5.9200 ca        1 DB9     -0.122000
     10 C10        -2.1670   -0.1920    5.9620 ca        1 DB9     -0.051000
     11 C11        -2.7060   -0.7460    4.7930 ca        1 DB9     -0.139900
     12 C12        -1.9940   -0.6910    3.5890 ca        1 DB9     -0.084000
     13 C13         2.3940   -0.0390   -1.2600 ce        1 DB9      0.589800
     14 N14         3.4280    1.0580   -1.2840 n4        1 DB9     -0.824600
     15 N15         2.3490   -0.7980   -2.2850 n2        1 DB9     -0.703100
     16 C16        -4.0050   -1.4220    4.8720 cc        1 DB9      0.509400
     17 N17        -5.0230   -1.2370    3.9050 na        1 DB9     -0.269300
     18 C18        -6.1120   -2.0050    4.3210 ca        1 DB9     -0.082200
     19 C19        -5.6860   -2.6620    5.5540 ca        1 DB9      0.117400
     20 N20        -4.3760   -2.2720    5.8620 nd        1 DB9     -0.539100
     21 C21        -6.5650   -3.5340    6.2140 ca        1 DB9     -0.046000
     22 C22        -7.8270   -3.7280    5.6760 ca        1 DB9     -0.137000
     23 C23        -8.2310   -3.0750    4.4920 ca        1 DB9     -0.252900
     24 C24        -7.3880   -2.2110    3.7920 ca        1 DB9     -0.077000
     25 C25        -9.5780   -3.3470    3.9480 ce        1 DB9      0.592800
     26 N26       -10.6640   -2.8880    4.8880 n4        1 DB9     -0.824600
     27 N27        -9.9620   -3.8850    2.8560 n2        1 DB9     -0.710100
     28 H1         -0.2470    0.5150   -1.0340 ha        1 DB9      0.148500
     29 H3          3.2710   -0.5990    1.2620 ha        1 DB9      0.148500
     30 H4          1.9070   -0.6280    3.3320 ha        1 DB9      0.163000
     31 H6         -1.6070    0.4720    1.0440 ha        1 DB9      0.163000
     32 H8          0.7960    0.9470    4.7070 ha        1 DB9      0.148000
     33 H9         -0.4920    0.8640    6.8360 ha        1 DB9      0.164000
     34 H10        -2.7230   -0.2480    6.9130 ha        1 DB9      0.170000
     35 H12        -2.4080   -1.1430    2.6750 ha        1 DB9      0.138000
     36 H141        3.9860    0.9920   -0.4260 hn        1 DB9      0.472133
     37 H142        4.0470    0.9890   -2.1030 hn        1 DB9      0.472133
     38 HN15        1.6840   -1.5450   -2.3030 hn        1 DB9      0.491400
     39 HN17       -4.9930   -0.6270    3.1310 hn        1 DB9      0.318700
     40 H21        -6.2490   -4.0510    7.1350 ha        1 DB9      0.183000
     41 H22        -8.5100   -4.4370    6.1710 ha        1 DB9      0.140000
     42 H24        -7.7100   -1.7160    2.8650 ha        1 DB9      0.151000
     43 H261      -11.5990   -3.1740    4.5690 hn        1 DB9      0.471800
     44 H262      -10.4770   -3.2920    5.8120 hn        1 DB9      0.471800
     45 HN27       -9.2690   -4.2160    2.2160 hn        1 DB9      0.488400
     46 H143        2.9420    1.9610   -1.3020 hn        1 DB9      0.472133
     47 H263      -10.6240   -1.8660    4.9540 hn        1 DB9      0.471800
@<TRIPOS>BOND
     1    1    2 ar  
     2    1    6 ar  
     3    1   28 1   
     4    2    3 ar  
     5    2   13 1   
     6    3    4 ar  
     7    3   29 1   
     8    4    5 ar  
     9    4   30 1   
    10    5    6 ar  
    11    5    7 1   
    12    6   31 1   
    13    7    8 ar  
    14    7   12 ar  
    15    8    9 ar  
    16    8   32 1   
    17    9   10 ar  
    18    9   33 1   
    19   10   11 ar  
    20   10   34 1   
    21   11   12 ar  
    22   11   16 1   
    23   12   35 1   
    24   13   14 1   
    25   13   15 2   
    26   14   36 1   
    27   14   37 1   
    28   14   46 1   
    29   15   38 1   
    30   16   17 1   
    31   16   20 2   
    32   17   18 1   
    33   17   39 1   
    34   18   19 ar  
    35   18   24 ar  
    36   19   20 1   
    37   19   21 ar  
    38   21   22 ar  
    39   21   40 1   
    40   22   23 ar  
    41   22   41 1   
    42   23   24 ar  
    43   23   25 1   
    44   24   42 1   
    45   25   26 1   
    46   25   27 2   
    47   26   43 1   
    48   26   44 1   
    49   26   47 1   
    50   27   45 1   
@<TRIPOS>SUBSTRUCTURE
     1 DB9         1 TEMP              0 ****  ****    0 ROOT
