@<TRIPOS>MOLECULE
DB9
   47    50     1     0     0
SMALL
bcc


@<TRIPOS>ATOM
      1 C1          0.2290    0.2570   -0.0800 ca        1 DB9     -0.087000
      2 C2          1.5990   -0.0230   -0.0160 ca        1 DB9     -0.266900
      3 C3          2.2000   -0.3280    1.2120 ca        1 DB9     -0.087000
      4 C4          1.4310   -0.3470    2.3710 ca        1 DB9     -0.114000
      5 C5          0.0550   -0.0630    2.3210 cp        1 DB9      0.032000
      6 C6         -0.5360    0.2350    1.0840 ca        1 DB9     -0.114000
      7 C7         -0.7340   -0.0780    3.5520 cp        1 DB9     -0.079000
      8 C8         -0.2070    0.4960    4.7200 ca        1 DB9     -0.080000
      9 C9         -0.9300    0.4590    5.9100 ca        1 DB9     -0.122000
     10 C10        -2.1780   -0.1610    5.9550 ca        1 DB9     -0.051000
     11 C11        -2.7120   -0.7280    4.7900 ca        1 DB9     -0.139900
     12 C12        -1.9980   -0.6810    3.5870 ca        1 DB9     -0.084000
     13 C13         2.3950   -0.0490   -1.2600 ce        1 DB9      0.589800
     14 N14         3.4240    1.0530   -1.2920 n4        1 DB9     -0.824600
     15 N15         2.3560   -0.8170   -2.2780 n2        1 DB9     -0.703100
     16 C16        -4.0080   -1.4110    4.8730 cc        1 DB9      0.509400
     17 N17        -5.0240   -1.2420    3.9010 na        1 DB9     -0.269300
     18 C18        -6.1100   -2.0110    4.3230 ca        1 DB9     -0.082200
     19 C19        -5.6840   -2.6520    5.5640 ca        1 DB9      0.117400
     20 N20        -4.3770   -2.2520    5.8720 nd        1 DB9     -0.539100
     21 C21        -6.5600   -3.5210    6.2320 ca        1 DB9     -0.046000
     22 C22        -7.8190   -3.7290    5.6920 ca        1 DB9     -0.137000
     23 C23        -8.2240   -3.0910    4.5000 ca        1 DB9     -0.252900
     24 C24        -7.3830   -2.2310    3.7930 ca        1 DB9     -0.077000
     25 C25        -9.5670   -3.3770    3.9550 ce        1 DB9      0.592800
     26 N26       -10.6590   -2.9130    4.8870 n4        1 DB9     -0.824600
     27 N27        -9.9450   -3.9290    2.8680 n2        1 DB9     -0.710100
     28 H1         -0.2490    0.4930   -1.0430 ha        1 DB9      0.148500
     29 H3          3.2700   -0.5820    1.2690 ha        1 DB9      0.148500
     30 H4          1.9020   -0.5990    3.3360 ha        1 DB9      0.163000
     31 H6         -1.6130    0.4620    1.0320 ha        1 DB9      0.163000
     32 H8          0.7810    0.9820    4.6950 ha        1 DB9      0.148000
     33 H9         -0.5100    0.9120    6.8230 ha        1 DB9      0.164000
     34 H10        -2.7360   -0.2120    6.9050 ha        1 DB9      0.170000
     35 H12        -2.4090   -1.1440    2.6770 ha        1 DB9      0.138000
     36 H141        2.9340    1.9530   -1.3170 hn        1 DB9      0.472133
     37 H142        3.9810    0.9960   -0.4320 hn        1 DB9      0.472133
     38 HN15        1.6940   -1.5670   -2.2910 hn        1 DB9      0.491400
     39 HN17       -4.9950   -0.6410    3.1210 hn        1 DB9      0.318700
     40 H21        -6.2440   -4.0270    7.1590 ha        1 DB9      0.183000
     41 H22        -8.5000   -4.4360    6.1930 ha        1 DB9      0.140000
     42 H24        -7.7060   -1.7480    2.8600 ha        1 DB9      0.151000
     43 H261      -11.5920   -3.2080    4.5690 hn        1 DB9      0.471800
     44 H262      -10.4720   -3.3060    5.8160 hn        1 DB9      0.471800
     45 HN27       -9.2490   -4.2640    2.2340 hn        1 DB9      0.488400
     46 H143        4.0450    0.9800   -2.1090 hn        1 DB9      0.472133
     47 H263      -10.6250   -1.8900    4.9410 hn        1 DB9      0.471800
@<TRIPOS>BOND
     1    1    2 ar  
     2    1    6 ar  
     3    1   28 1   
     4    2    3 ar  
     5    2   13 1   
     6    3    4 ar  
     7    3   29 1   
     8    4    5 ar  
     9    4   30 1   
    10    5    6 ar  
    11    5    7 1   
    12    6   31 1   
    13    7    8 ar  
    14    7   12 ar  
    15    8    9 ar  
    16    8   32 1   
    17    9   10 ar  
    18    9   33 1   
    19   10   11 ar  
    20   10   34 1   
    21   11   12 ar  
    22   11   16 1   
    23   12   35 1   
    24   13   14 1   
    25   13   15 2   
    26   14   36 1   
    27   14   37 1   
    28   14   46 1   
    29   15   38 1   
    30   16   17 1   
    31   16   20 2   
    32   17   18 1   
    33   17   39 1   
    34   18   19 ar  
    35   18   24 ar  
    36   19   20 1   
    37   19   21 ar  
    38   21   22 ar  
    39   21   40 1   
    40   22   23 ar  
    41   22   41 1   
    42   23   24 ar  
    43   23   25 1   
    44   24   42 1   
    45   25   26 1   
    46   25   27 2   
    47   26   43 1   
    48   26   44 1   
    49   26   47 1   
    50   27   45 1   
@<TRIPOS>SUBSTRUCTURE
     1 DB9         1 TEMP              0 ****  ****    0 ROOT
