@<TRIPOS>MOLECULE
DB9
   47    50     1     0     0
SMALL
bcc


@<TRIPOS>ATOM
      1 C1          0.2320    0.2510   -0.0790 ca        1 DB9     -0.087000
      2 C2          1.6020   -0.0310   -0.0150 ca        1 DB9     -0.266900
      3 C3          2.2010   -0.3360    1.2140 ca        1 DB9     -0.087000
      4 C4          1.4320   -0.3520    2.3730 ca        1 DB9     -0.114000
      5 C5          0.0570   -0.0660    2.3220 cp        1 DB9      0.032000
      6 C6         -0.5330    0.2310    1.0840 ca        1 DB9     -0.114000
      7 C7         -0.7340   -0.0790    3.5520 cp        1 DB9     -0.079000
      8 C8         -0.2070    0.4960    4.7200 ca        1 DB9     -0.080000
      9 C9         -0.9300    0.4610    5.9090 ca        1 DB9     -0.122000
     10 C10        -2.1790   -0.1580    5.9550 ca        1 DB9     -0.051000
     11 C11        -2.7130   -0.7260    4.7900 ca        1 DB9     -0.139900
     12 C12        -1.9980   -0.6810    3.5870 ca        1 DB9     -0.084000
     13 C13         2.3980   -0.0590   -1.2580 ce        1 DB9      0.589800
     14 N14         3.4290    1.0410   -1.2900 nz        1 DB9     -0.824600
     15 N15         2.3580   -0.8280   -2.2760 n2        1 DB9     -0.703100
     16 C16        -4.0090   -1.4080    4.8730 cc        1 DB9      0.509400
     17 N17        -5.0240   -1.2380    3.9000 na        1 DB9     -0.269300
     18 C18        -6.1120   -2.0070    4.3220 ca        1 DB9     -0.082200
     19 C19        -5.6870   -2.6470    5.5640 ca        1 DB9      0.117400
     20 N20        -4.3790   -2.2480    5.8720 nd        1 DB9     -0.539100
     21 C21        -6.5640   -3.5150    6.2320 ca        1 DB9     -0.046000
     22 C22        -7.8230   -3.7220    5.6920 ca        1 DB9     -0.137000
     23 C23        -8.2270   -3.0850    4.4990 ca        1 DB9     -0.252900
     24 C24        -7.3850   -2.2260    3.7920 ca        1 DB9     -0.077000
     25 C25        -9.5700   -3.3690    3.9540 ce        1 DB9      0.592800
     26 N26       -10.6620   -2.9040    4.8850 nz        1 DB9     -0.824600
     27 N27        -9.9480   -3.9230    2.8670 n2        1 DB9     -0.710100
     28 H1         -0.2450    0.4870   -1.0440 ha        1 DB9      0.148500
     29 H3          3.2720   -0.5910    1.2720 ha        1 DB9      0.148500
     30 H4          1.9030   -0.6040    3.3380 ha        1 DB9      0.163000
     31 H6         -1.6100    0.4590    1.0310 ha        1 DB9      0.163000
     32 H8          0.7820    0.9810    4.6950 ha        1 DB9      0.148000
     33 H9         -0.5110    0.9140    6.8220 ha        1 DB9      0.164000
     34 H10        -2.7370   -0.2070    6.9040 ha        1 DB9      0.170000
     35 H12        -2.4090   -1.1450    2.6770 ha        1 DB9      0.138000
     36 H141        2.9410    1.9420   -1.3170 hn        1 DB9      0.472133
     37 H142        3.9850    0.9840   -0.4300 hn        1 DB9      0.472133
     38 HN15        1.6960   -1.5770   -2.2880 hn        1 DB9      0.491400
     39 HN17       -4.9950   -0.6380    3.1190 hn        1 DB9      0.318700
     40 H21        -6.2490   -4.0200    7.1600 ha        1 DB9      0.183000
     41 H22        -8.5050   -4.4280    6.1930 ha        1 DB9      0.140000
     42 H24        -7.7060   -1.7430    2.8580 ha        1 DB9      0.151000
     43 H261      -11.5940   -3.1990    4.5670 hn        1 DB9      0.471800
     44 H262      -10.4750   -3.2960    5.8150 hn        1 DB9      0.471800
     45 HN27       -9.2510   -4.2580    2.2340 hn        1 DB9      0.488400
     46 H143        4.0500    0.9670   -2.1080 hn        1 DB9      0.472133
     47 H263      -10.6270   -1.8810    4.9380 hn        1 DB9      0.471800
@<TRIPOS>BOND
     1    1    2 ar  
     2    1    6 ar  
     3    1   28 1   
     4    2    3 ar  
     5    2   13 1   
     6    3    4 ar  
     7    3   29 1   
     8    4    5 ar  
     9    4   30 1   
    10    5    6 ar  
    11    5    7 1   
    12    6   31 1   
    13    7    8 ar  
    14    7   12 ar  
    15    8    9 ar  
    16    8   32 1   
    17    9   10 ar  
    18    9   33 1   
    19   10   11 ar  
    20   10   34 1   
    21   11   12 ar  
    22   11   16 1   
    23   12   35 1   
    24   13   14 1   
    25   13   15 2   
    26   14   36 1   
    27   14   37 1   
    28   14   46 1   
    29   15   38 1   
    30   16   17 1   
    31   16   20 2   
    32   17   18 1   
    33   17   39 1   
    34   18   19 ar  
    35   18   24 ar  
    36   19   20 1   
    37   19   21 ar  
    38   21   22 ar  
    39   21   40 1   
    40   22   23 ar  
    41   22   41 1   
    42   23   24 ar  
    43   23   25 1   
    44   24   42 1   
    45   25   26 1   
    46   25   27 2   
    47   26   43 1   
    48   26   44 1   
    49   26   47 1   
    50   27   45 1   
@<TRIPOS>SUBSTRUCTURE
     1 DB9         1 TEMP              0 ****  ****    0 ROOT
