@<TRIPOS>MOLECULE
DB9
   45    33     1     0     0
SMALL
bcc


@<TRIPOS>ATOM
      1 C1          4.2330    0.8640   -2.5590 c1        1 DB9     -0.120750
      2 C2          3.8950    1.7770   -3.5450 c1        1 DB9     -0.105000
      3 C3          2.8630    2.6760   -3.3320 c1        1 DB9     -0.117000
      4 C4          2.1680    2.6630   -2.1330 c1        1 DB9     -0.092250
      5 C5          2.5060    1.7500   -1.1470 c1        1 DB9     -0.042000
      6 C6          3.5380    0.8500   -1.3600 c1        1 DB9     -0.120750
      7 C7          1.8310    1.7560    0.0630 c1        1 DB9     -0.042000
      8 C8          2.2370    2.6070    1.0780 c1        1 DB9     -0.092250
      9 C9          1.5450    2.6340    2.2780 c1        1 DB9     -0.120750
     10 C10         0.4470    1.8080    2.4630 c1        1 DB9     -0.120750
     11 C11         0.0410    0.9570    1.4480 c1        1 DB9     -0.042000
     12 C12         0.7340    0.9300    0.2480 c1        1 DB9     -0.092250
     13 C13         4.6350    1.7720   -4.8660 c2        1 DB9      0.114000
     14 N14         4.1580    0.9810   -5.9450 n3        1 DB9     -0.331500
     15 N15         5.7110    2.4970   -5.0140 n1        1 DB9     -0.301000
     16 C16        -1.0280    0.0980    1.6500 c1        1 DB9      0.063000
     17 N17        -1.1080   -1.1270    2.2350 n2        1 DB9     -0.233000
     18 C18        -2.3980   -1.5400    2.1700 c1        1 DB9     -0.035000
     19 C19        -3.1190   -0.5670    1.5410 c1        1 DB9     -0.042000
     20 N20        -2.2710    0.4420    1.2220 n1        1 DB9     -0.133000
     21 C21        -4.4960   -0.7510    1.3080 c1        1 DB9     -0.092250
     22 C22        -5.1180   -1.9200    1.7180 c1        1 DB9     -0.117000
     23 C23        -4.3850   -2.9080    2.3560 c1        1 DB9     -0.105000
     24 C24        -3.0310   -2.7270    2.5850 c1        1 DB9     -0.097000
     25 C25        -5.0610   -4.1670    2.8520 c2        1 DB9      0.114000
     26 N26        -5.1550   -5.3020    2.0050 n3        1 DB9     -0.331500
     27 N27        -5.5570   -4.2100    4.0590 n1        1 DB9     -0.301000
     28 H1          4.9600    0.2300   -2.7090 ha        1 DB9      0.137750
     29 H3          2.6250    3.3200   -4.0270 ha        1 DB9      0.146500
     30 H4          1.4400    3.2970   -1.9830 ha        1 DB9      0.150250
     31 H6          3.7770    0.2070   -0.6650 ha        1 DB9      0.137750
     32 H8          3.0100    3.1890    0.9470 ha        1 DB9      0.150250
     33 H9          1.8310    3.2330    2.9930 ha        1 DB9      0.137750
     34 H10        -0.0400    1.8270    3.3080 ha        1 DB9      0.137750
     35 H12         0.4480    0.3310   -0.4680 ha        1 DB9      0.150250
     36 H141        3.4720    0.3910   -5.8110 hn        1 DB9      0.193500
     37 H142        4.5440    1.0530   -6.7710 hn        1 DB9      0.193500
     38 HN15        6.0180    3.0060   -4.3220 DU        1 DB9      0.187667
     39 HN17       -0.4170   -1.5870    2.6130 DU        1 DB9      0.187667
     40 H21        -5.0120   -0.0550    0.8590 ha        1 DB9      0.150250
     41 H22        -6.0720   -2.0480    1.5560 ha        1 DB9      0.146500
     42 H24        -2.5150   -3.4230    3.0350 ha        1 DB9      0.153000
     43 H261       -5.0370   -5.2110    1.1030 hn        1 DB9      0.193500
     44 H262       -5.3510   -6.1220    2.3600 hn        1 DB9      0.193500
     45 HN27       -5.4960   -3.4790    4.6040 DU        1 DB9      0.187667
@<TRIPOS>BOND
     1    1    6 1   
     2    1   28 1   
     3    2    3 1   
     4    2   13 1   
     5    3   29 1   
     6    4    5 1   
     7    4   30 1   
     8    6   31 1   
     9    7    8 1   
    10    8   32 1   
    11    9   10 1   
    12    9   33 1   
    13   10   34 1   
    14   11   12 1   
    15   12   35 1   
    16   13   14 1   
    17   13   15 1   
    18   14   36 1   
    19   14   37 1   
    20   16   17 1   
    21   16   20 1   
    22   17   18 1   
    23   18   24 1   
    24   19   21 1   
    25   21   40 1   
    26   22   23 1   
    27   22   41 1   
    28   23   25 1   
    29   24   42 1   
    30   25   26 1   
    31   25   27 1   
    32   26   43 1   
    33   26   44 1   
@<TRIPOS>SUBSTRUCTURE
     1 DB9         1 TEMP              0 ****  ****    0 ROOT
