@<TRIPOS>MOLECULE
DB9
   45    48     1     0     0
SMALL
bcc


@<TRIPOS>ATOM
      1 C1          2.3340    1.9240   10.6160 ca        1 DB9     -0.103500
      2 C2          3.2780    1.6810   11.6190 ca        1 DB9     -0.193900
      3 C3          3.9540    0.4590   11.6560 ca        1 DB9     -0.103500
      4 C4          3.6870   -0.5150   10.6960 ca        1 DB9     -0.124000
      5 C5          2.7410   -0.2790    9.6890 cp        1 DB9     -0.026000
      6 C6          2.0670    0.9500    9.6580 ca        1 DB9     -0.124000
      7 C7          2.4620   -1.3040    8.6830 cp        1 DB9     -0.044000
      8 C8          2.3560   -2.6510    9.0560 ca        1 DB9     -0.101000
      9 C9          2.0970   -3.6260    8.0950 ca        1 DB9     -0.134000
     10 C10         1.9400   -3.2740    6.7550 ca        1 DB9     -0.078000
     11 C11         2.0410   -1.9290    6.3750 ca        1 DB9     -0.117900
     12 C12         2.3040   -0.9470    7.3380 ca        1 DB9     -0.105000
     13 C13         3.5690    2.7500   12.6280 ce        1 DB9      0.637800
     14 N14         3.5760    2.2990   13.9660 nh        1 DB9     -0.892800
     15 N15         3.8560    3.9810   12.3230 n2        1 DB9     -0.832100
     16 C16         1.8820   -1.5680    4.9640 cc        1 DB9      0.474400
     17 N17         1.3240   -0.3270    4.5670 na        1 DB9     -0.278300
     18 C18         1.3110   -0.3230    3.1710 ca        1 DB9     -0.077200
     19 C19         1.8880   -1.5950    2.7650 ca        1 DB9      0.079400
     20 N20         2.2300   -2.3410    3.9070 nd        1 DB9     -0.558100
     21 C21         2.0170   -1.8840    1.3990 ca        1 DB9     -0.075000
     22 C22         1.5880   -0.9390    0.4800 ca        1 DB9     -0.123000
     23 C23         1.0300    0.2900    0.8870 ca        1 DB9     -0.180900
     24 C24         0.8790    0.6180    2.2310 ca        1 DB9     -0.118000
     25 C25         0.5590    1.2720   -0.1450 ce        1 DB9      0.641800
     26 N26         1.4990    1.5420   -1.1610 nh        1 DB9     -0.894800
     27 N27        -0.6300    1.7990   -0.1600 n2        1 DB9     -0.837100
     28 H1          1.7970    2.8850   10.5840 ha        1 DB9      0.146500
     29 H3          4.7050    0.2670   12.4390 ha        1 DB9      0.146500
     30 H4          4.2300   -1.4720   10.7230 ha        1 DB9      0.138500
     31 H6          1.3170    1.1420    8.8770 ha        1 DB9      0.138500
     32 H8          2.4740   -2.9360   10.1120 ha        1 DB9      0.140000
     33 H9          2.0160   -4.6820    8.3940 ha        1 DB9      0.142000
     34 H10         1.7420   -4.0500    5.9990 ha        1 DB9      0.160000
     35 H12         2.4160    0.1080    7.0480 ha        1 DB9      0.136000
     36 H141        3.6140    3.0160   14.6580 hn        1 DB9      0.398800
     37 H142        2.8820    1.6080   14.1490 hn        1 DB9      0.398800
     38 HN15        3.9210    4.1550   11.3440 hn        1 DB9      0.395400
     39 HN17        0.9630    0.3690    5.1620 hn        1 DB9      0.307700
     40 H21         2.4490   -2.8410    1.0720 ha        1 DB9      0.153000
     41 H22         1.6770   -1.1520   -0.5970 ha        1 DB9      0.152000
     42 H24         0.4440    1.5770    2.5420 ha        1 DB9      0.142000
     43 H261        1.2810    2.3130   -1.7550 hn        1 DB9      0.400800
     44 H262        2.4410    1.5380   -0.8390 hn        1 DB9      0.400800
     45 HN27       -1.2380    1.4520    0.5500 hn        1 DB9      0.393400
@<TRIPOS>BOND
     1    1    2 ar  
     2    1    6 ar  
     3    1   28 1   
     4    2    3 ar  
     5    2   13 1   
     6    3    4 ar  
     7    3   29 1   
     8    4    5 ar  
     9    4   30 1   
    10    5    6 ar  
    11    5    7 1   
    12    6   31 1   
    13    7    8 ar  
    14    7   12 ar  
    15    8    9 ar  
    16    8   32 1   
    17    9   10 ar  
    18    9   33 1   
    19   10   11 ar  
    20   10   34 1   
    21   11   12 ar  
    22   11   16 1   
    23   12   35 1   
    24   13   14 1   
    25   13   15 2   
    26   14   36 1   
    27   14   37 1   
    28   15   38 1   
    29   16   17 1   
    30   16   20 2   
    31   17   18 1   
    32   17   39 1   
    33   18   19 ar  
    34   18   24 ar  
    35   19   20 1   
    36   19   21 ar  
    37   21   22 ar  
    38   21   40 1   
    39   22   23 ar  
    40   22   41 1   
    41   23   24 ar  
    42   23   25 1   
    43   24   42 1   
    44   25   26 1   
    45   25   27 2   
    46   26   43 1   
    47   26   44 1   
    48   27   45 1   
@<TRIPOS>SUBSTRUCTURE
     1 DB9         1 TEMP              0 ****  ****    0 ROOT
