@<TRIPOS>MOLECULE
DBA
   24    24     1     0     0
SMALL
bcc


@<TRIPOS>ATOM
      1 C1         -0.0730    0.5380    0.3500 c         1 DBA      0.917600
      2 C2          1.3190   -0.0260   -0.0360 c3        1 DBA      0.002400
      3 C1'         3.3750   -0.1950    1.1310 ca        1 DBA      0.127100
      4 C2'         4.2130   -1.3300    1.1230 ca        1 DBA     -0.093300
      5 C3'         5.5970   -1.1530    1.1930 ca        1 DBA     -0.139500
      6 C4'         6.1450    0.1250    1.2650 ca        1 DBA     -0.161000
      7 C5'         5.3120    1.2410    1.2750 ca        1 DBA     -0.139500
      8 C6'         3.9220    1.1020    1.2100 ca        1 DBA     -0.093300
      9 CM2         3.6320   -2.6910    1.0620 c3        1 DBA     -0.063800
     10 CM6         3.0580    2.3040    1.2360 c3        1 DBA     -0.063800
     11 O1         -0.1130    1.6310    0.9790 o         1 DBA     -0.829800
     12 O2         -1.0780   -0.1090   -0.0490 o         1 DBA     -0.829800
     13 O1'         2.0090   -0.4000    1.1700 os        1 DBA     -0.329900
     14 H21         1.2210   -0.9560   -0.6530 h1        1 DBA      0.021200
     15 H22         1.8890    0.7530   -0.6010 h1        1 DBA      0.021200
     16 H3'         6.2550   -2.0340    1.1880 ha        1 DBA      0.114000
     17 H4'         7.2350    0.2530    1.3160 ha        1 DBA      0.110000
     18 H5'         5.7470    2.2490    1.3400 ha        1 DBA      0.114000
     19 HM21        2.6230   -2.6630    0.5780 hc        1 DBA      0.052367
     20 HM22        4.2950   -3.3830    0.4880 hc        1 DBA      0.052367
     21 HM23        3.5060   -3.0980    2.0970 hc        1 DBA      0.052367
     22 HM61        3.1240    2.8430    0.2580 hc        1 DBA      0.052367
     23 HM62        1.9770    2.0310    1.4100 hc        1 DBA      0.052367
     24 HM63        3.3880    3.0020    2.0440 hc        1 DBA      0.052367
@<TRIPOS>BOND
     1    1    2 1   
     2    1   11 1   
     3    1   12 1   
     4    2   13 1   
     5    2   14 1   
     6    2   15 1   
     7    3    4 ar  
     8    3    8 ar  
     9    3   13 1   
    10    4    5 ar  
    11    4    9 1   
    12    5    6 ar  
    13    5   16 1   
    14    6    7 ar  
    15    6   17 1   
    16    7    8 ar  
    17    7   18 1   
    18    8   10 1   
    19    9   19 1   
    20    9   20 1   
    21    9   21 1   
    22   10   22 1   
    23   10   23 1   
    24   10   24 1   
@<TRIPOS>SUBSTRUCTURE
     1 DBA         1 TEMP              0 ****  ****    0 ROOT
