@<TRIPOS>MOLECULE
DBA
   24    24     1     0     0
SMALL
bcc


@<TRIPOS>ATOM
      1 C1         -0.5790   -0.0830   -2.8180 c         1 DBA      0.917600
      2 C2          0.0080    0.5730   -1.5420 c3        1 DBA      0.002400
      3 C1'         0.1950   -0.1520    0.7070 ca        1 DBA      0.127100
      4 C2'         1.3420    0.0140    1.5120 ca        1 DBA     -0.093300
      5 C3'         1.1840    0.2300    2.8840 ca        1 DBA     -0.139500
      6 C4'        -0.0870    0.2870    3.4500 ca        1 DBA     -0.161000
      7 C5'        -1.2150    0.1210    2.6500 ca        1 DBA     -0.139500
      8 C6'        -1.0950   -0.1020    1.2740 ca        1 DBA     -0.093300
      9 CM2         2.6950   -0.0620    0.9160 c3        1 DBA     -0.063800
     10 CM6        -2.3090   -0.2890    0.4480 c3        1 DBA     -0.063800
     11 O1         -1.6780   -0.6940   -2.7160 o         1 DBA     -0.829800
     12 O2          0.0570    0.0950   -3.8920 o         1 DBA     -0.829800
     13 O1'         0.3810   -0.4710   -0.6250 os        1 DBA     -0.329900
     14 H21        -0.7570    1.2520   -1.0910 h1        1 DBA      0.021200
     15 H22         0.9420    1.1450   -1.7750 h1        1 DBA      0.021200
     16 H3'         2.0740    0.3590    3.5160 ha        1 DBA      0.114000
     17 H4'        -0.2000    0.4620    4.5290 ha        1 DBA      0.110000
     18 H5'        -2.2180    0.1590    3.1010 ha        1 DBA      0.114000
     19 HM21        3.0900   -1.1050    0.9990 hc        1 DBA      0.052367
     20 HM22        2.6570    0.2060   -0.1710 hc        1 DBA      0.052367
     21 HM23        3.4010    0.6270    1.4380 hc        1 DBA      0.052367
     22 HM61       -2.8380    0.6880    0.3190 hc        1 DBA      0.052367
     23 HM62       -2.0530   -0.6830   -0.5780 hc        1 DBA      0.052367
     24 HM63       -3.0100   -1.0040    0.9440 hc        1 DBA      0.052367
@<TRIPOS>BOND
     1    1    2 1   
     2    1   11 1   
     3    1   12 1   
     4    2   13 1   
     5    2   14 1   
     6    2   15 1   
     7    3    4 ar  
     8    3    8 ar  
     9    3   13 1   
    10    4    5 ar  
    11    4    9 1   
    12    5    6 ar  
    13    5   16 1   
    14    6    7 ar  
    15    6   17 1   
    16    7    8 ar  
    17    7   18 1   
    18    8   10 1   
    19    9   19 1   
    20    9   20 1   
    21    9   21 1   
    22   10   22 1   
    23   10   23 1   
    24   10   24 1   
@<TRIPOS>SUBSTRUCTURE
     1 DBA         1 TEMP              0 ****  ****    0 ROOT
