@<TRIPOS>MOLECULE
DBA
   24    20     1     0     0
SMALL
bcc


@<TRIPOS>ATOM
      1 C1         -2.9570   -1.6830    0.5840 c1        1 DBA      0.337000
      2 C2         -1.5470   -1.4080    0.1070 c2        1 DBA     -0.098000
      3 C1'         0.1360    0.2410    0.2380 c1        1 DBA      0.082000
      4 C2'         0.0150    1.3080   -0.6390 c1        1 DBA     -0.095000
      5 C3'         1.1430    1.8330   -1.2510 c1        1 DBA     -0.140000
      6 C4'         2.3900    1.2900   -0.9870 c1        1 DBA     -0.150000
      7 C5'         2.5110    0.2230   -0.1100 c1        1 DBA     -0.150000
      8 C6'         1.3840   -0.3020    0.5020 c1        1 DBA     -0.077000
      9 CM2        -1.3390    1.9350   -0.8850 c3        1 DBA     -0.169000
     10 CM6         1.5220   -1.4280    1.5020 c3        1 DBA     -0.209000
     11 O1         -3.2320   -1.6090    1.8100 o         1 DBA     -0.564500
     12 O2         -3.8570   -1.9730   -0.2470 o         1 DBA     -0.564500
     13 O1'        -1.0120   -0.3190    0.8250 os        1 DBA     -0.213000
     14 H21        -0.9910   -2.2020    0.2560 h4        1 DBA      0.060500
     15 H22        -1.5610   -1.1940   -0.8490 h4        1 DBA      0.060500
     16 H3'         1.0600    2.5930   -1.8570 ha        1 DBA      0.112000
     17 H4'         3.1840    1.6590   -1.4180 ha        1 DBA      0.113000
     18 H5'         3.3900   -0.1590    0.0750 ha        1 DBA      0.113000
     19 HM21       -1.8120    1.4280   -1.5770 hc        1 DBA      0.080667
     20 HM22       -1.2210    2.8620   -1.1810 hc        1 DBA      0.080667
     21 HM23       -1.8610    1.9210   -0.0560 hc        1 DBA      0.080667
     22 HM61        1.3450   -2.2830    1.0580 hc        1 DBA      0.102667
     23 HM62        2.4320   -1.4320    1.8670 hc        1 DBA      0.102667
     24 HM63        0.8790   -1.2990    2.2310 hc        1 DBA      0.102667
@<TRIPOS>BOND
     1    1   11 1   
     2    1   12 1   
     3    2   13 1   
     4    2   14 1   
     5    2   15 1   
     6    3    8 1   
     7    3   13 1   
     8    4    5 1   
     9    4    9 1   
    10    5   16 1   
    11    6    7 1   
    12    6   17 1   
    13    7   18 1   
    14    8   10 1   
    15    9   19 1   
    16    9   20 1   
    17    9   21 1   
    18   10   22 1   
    19   10   23 1   
    20   10   24 1   
@<TRIPOS>SUBSTRUCTURE
     1 DBA         1 TEMP              0 ****  ****    0 ROOT
