@<TRIPOS>MOLECULE
DBA
   24    24     1     0     0
SMALL
bcc


@<TRIPOS>ATOM
      1 C1         -0.0580    0.6570    0.3900 c         1 DBA      0.917600
      2 C2          1.3220    0.0970   -0.0390 c3        1 DBA      0.002400
      3 C1'         3.3700   -0.2170    1.1140 ca        1 DBA      0.127100
      4 C2'         4.1820   -1.3650    1.0110 ca        1 DBA     -0.093300
      5 C3'         5.5700   -1.2260    1.0990 ca        1 DBA     -0.139500
      6 C4'         6.1460    0.0280    1.2800 ca        1 DBA     -0.161000
      7 C5'         5.3380    1.1580    1.3830 ca        1 DBA     -0.139500
      8 C6'         3.9450    1.0560    1.3040 ca        1 DBA     -0.093300
      9 CM2         3.5720   -2.7030    0.8330 c3        1 DBA     -0.063800
     10 CM6         3.1070    2.2710    1.4310 c3        1 DBA     -0.063800
     11 O1         -0.0760    1.6930    1.1090 o         1 DBA     -0.829800
     12 O2         -1.0750    0.0690   -0.0640 o         1 DBA     -0.829800
     13 O1'         1.9990   -0.3940    1.1320 os        1 DBA     -0.329900
     14 H21         1.2070   -0.7750   -0.7330 h1        1 DBA      0.021200
     15 H22         1.9120    0.9080   -0.5350 h1        1 DBA      0.021200
     16 H3'         6.2080   -2.1180    1.0200 ha        1 DBA      0.114000
     17 H4'         7.2380    0.1270    1.3440 ha        1 DBA      0.110000
     18 H5'         5.7950    2.1470    1.5350 ha        1 DBA      0.114000
     19 HM21        2.5650   -2.6110    0.3520 hc        1 DBA      0.052367
     20 HM22        4.2210   -3.3580    0.2030 hc        1 DBA      0.052367
     21 HM23        3.4340   -3.1940    1.8290 hc        1 DBA      0.052367
     22 HM61        3.1910    2.8900    0.5020 hc        1 DBA      0.052367
     23 HM62        2.0200    2.0090    1.5780 hc        1 DBA      0.052367
     24 HM63        3.4490    2.8890    2.2960 hc        1 DBA      0.052367
@<TRIPOS>BOND
     1    1    2 1   
     2    1   11 1   
     3    1   12 1   
     4    2   13 1   
     5    2   14 1   
     6    2   15 1   
     7    3    4 ar  
     8    3    8 ar  
     9    3   13 1   
    10    4    5 ar  
    11    4    9 1   
    12    5    6 ar  
    13    5   16 1   
    14    6    7 ar  
    15    6   17 1   
    16    7    8 ar  
    17    7   18 1   
    18    8   10 1   
    19    9   19 1   
    20    9   20 1   
    21    9   21 1   
    22   10   22 1   
    23   10   23 1   
    24   10   24 1   
@<TRIPOS>SUBSTRUCTURE
     1 DBA         1 TEMP              0 ****  ****    0 ROOT
