@<TRIPOS>MOLECULE
DBB
   15    14     1     0     0
SMALL
bcc


@<TRIPOS>ATOM
      1 N           0.6240    1.6420    0.4050 n3        1 DBB     -0.891800
      2 CA          0.3220    0.2150    0.4100 c3        1 DBB      0.019500
      3 C          -1.1600   -0.1310    0.0460 c         1 DBB      0.886600
      4 O          -1.9500    0.8230   -0.2130 o         1 DBB     -0.846800
      5 CB          1.2410   -0.6030   -0.4980 c3        1 DBB     -0.067400
      6 CG          2.6760   -0.5930   -0.0410 c3        1 DBB     -0.081100
      7 OXT        -1.4940   -1.3490    0.0490 o         1 DBB     -0.846800
      8 H           0.6830    1.9510   -0.5500 hn        1 DBB      0.328800
      9 H1         -0.1720    2.1150    0.8030 hn        1 DBB      0.328800
     10 HA          0.4760   -0.1360    1.4720 h1        1 DBB      0.039700
     11 HB2         0.8450   -1.6550   -0.5000 hc        1 DBB      0.043700
     12 HB3         1.1780   -0.2210   -1.5500 hc        1 DBB      0.043700
     13 HG1         3.0990    0.4400   -0.0730 hc        1 DBB      0.014367
     14 HG2         2.7550   -0.9670    1.0090 hc        1 DBB      0.014367
     15 HG3         3.3000   -1.2490   -0.6950 hc        1 DBB      0.014367
@<TRIPOS>BOND
     1    1    2 1   
     2    1    8 1   
     3    1    9 1   
     4    2    3 1   
     5    2    5 1   
     6    2   10 1   
     7    3    4 1   
     8    3    7 1   
     9    5    6 1   
    10    5   11 1   
    11    5   12 1   
    12    6   13 1   
    13    6   14 1   
    14    6   15 1   
@<TRIPOS>SUBSTRUCTURE
     1 DBB         1 TEMP              0 ****  ****    0 ROOT
