@<TRIPOS>MOLECULE
DBC
   20    20     1     0     0
SMALL
bcc


@<TRIPOS>ATOM
      1 O4          0.6360   -0.4790   -0.7960 oh        1 DBC     -0.605800
      2 C5          1.8960    0.0010   -0.4750 c3        1 DBC      0.514700
      3 O3          1.9560    0.1480    0.9300 os        1 DBC     -0.460600
      4 O2          2.8480   -0.9820   -0.8290 os        1 DBC     -0.460600
      5 C2          3.2860   -1.7120    0.3290 c3        1 DBC      0.122600
      6 C1          2.7640   -3.1330    0.2820 c3        1 DBC     -0.013800
      7 S1          3.5470   -4.1320   -0.9410 sh        1 DBC     -0.363400
      8 C3          2.7210   -0.9150    1.5250 c3        1 DBC      0.122600
      9 C4          3.7820   -0.2900    2.4060 c3        1 DBC     -0.013800
     10 S4          4.2810   -1.5140    3.5860 sh        1 DBC     -0.363400
     11 HO4         0.4540   -1.2740   -0.2790 ho        1 DBC      0.416000
     12 H5          2.0740    0.9650   -1.0140 h3        1 DBC      0.148700
     13 H2          4.4090   -1.7000    0.2940 h1        1 DBC      0.095700
     14 H11         1.6580   -3.1260    0.1290 h1        1 DBC      0.082450
     15 H12         2.9860   -3.6410    1.2560 h1        1 DBC      0.082450
     16 HS1         3.3140   -3.3860   -2.0120 hs        1 DBC      0.217800
     17 H3          2.0050   -1.5280    2.1400 h1        1 DBC      0.095700
     18 H41         4.6510    0.0560    1.7970 h1        1 DBC      0.082450
     19 H42         3.3490    0.6030    2.9210 h1        1 DBC      0.082450
     20 HS4         5.1280   -0.7820    4.2890 hs        1 DBC      0.217800
@<TRIPOS>BOND
     1    1    2 1   
     2    1   11 1   
     3    2    3 1   
     4    2    4 1   
     5    2   12 1   
     6    3    8 1   
     7    4    5 1   
     8    5    6 1   
     9    5    8 1   
    10    5   13 1   
    11    6    7 1   
    12    6   14 1   
    13    6   15 1   
    14    7   16 1   
    15    8    9 1   
    16    8   17 1   
    17    9   10 1   
    18    9   18 1   
    19    9   19 1   
    20   10   20 1   
@<TRIPOS>SUBSTRUCTURE
     1 DBC         1 TEMP              0 ****  ****    0 ROOT
