@<TRIPOS>MOLECULE
DBC
   20    20     1     0     0
SMALL
bcc


@<TRIPOS>ATOM
      1 O4          0.5350   -0.5930   -0.7040 oh        1 DBC     -0.605800
      2 C5          1.7940   -0.0660   -0.4610 c3        1 DBC      0.514700
      3 O3          1.9190    0.1240    0.9340 os        1 DBC     -0.460600
      4 O2          2.7570   -1.0310   -0.8340 os        1 DBC     -0.460600
      5 C2          3.2740   -1.7140    0.3200 c3        1 DBC      0.122600
      6 C1          2.7950   -3.1500    0.3400 c3        1 DBC     -0.013800
      7 S1          3.5470   -4.1610   -0.8920 sh        1 DBC     -0.363400
      8 C3          2.7450   -0.8980    1.5200 c3        1 DBC      0.122600
      9 C4          3.8290   -0.2160    2.3290 c3        1 DBC     -0.013800
     10 S4          4.4230   -1.3890    3.5150 sh        1 DBC     -0.363400
     11 HO4         0.4040   -1.3770   -0.1560 ho        1 DBC      0.416000
     12 H5          1.9150    0.8850   -1.0360 h3        1 DBC      0.148700
     13 H2          4.3940   -1.6690    0.2290 h1        1 DBC      0.095700
     14 H11         1.6830   -3.1800    0.2420 h1        1 DBC      0.082450
     15 H12         3.0800   -3.6220    1.3150 h1        1 DBC      0.082450
     16 HS1         3.2390   -3.4550   -1.9700 hs        1 DBC      0.217800
     17 H3          2.0800   -1.5130    2.1870 h1        1 DBC      0.095700
     18 H41         3.3940    0.6790    2.8400 h1        1 DBC      0.082450
     19 H42         4.6550    0.1370    1.6670 h1        1 DBC      0.082450
     20 HS4         5.2830   -0.6120    4.1530 hs        1 DBC      0.217800
@<TRIPOS>BOND
     1    1    2 1   
     2    1   11 1   
     3    2    3 1   
     4    2    4 1   
     5    2   12 1   
     6    3    8 1   
     7    4    5 1   
     8    5    6 1   
     9    5    8 1   
    10    5   13 1   
    11    6    7 1   
    12    6   14 1   
    13    6   15 1   
    14    7   16 1   
    15    8    9 1   
    16    8   17 1   
    17    9   10 1   
    18    9   18 1   
    19    9   19 1   
    20   10   20 1   
@<TRIPOS>SUBSTRUCTURE
     1 DBC         1 TEMP              0 ****  ****    0 ROOT
