@<TRIPOS>MOLECULE
DBC
   20    20     1     0     0
SMALL
bcc


@<TRIPOS>ATOM
      1 O4         -1.7590    1.5170   -1.1590 oh        1 DBC     -0.605800
      2 C5         -0.3580    1.5170   -1.1590 c3        1 DBC      0.515700
      3 O3          0.1770    1.5170    0.3080 os        1 DBC     -0.462100
      4 O2          0.0700    0.4740   -1.6930 os        1 DBC     -0.462100
      5 C2          0.2510   -0.4730   -0.5830 c3        1 DBC      0.118600
      6 C1         -0.7790   -1.4910   -0.6190 c3        1 DBC     -0.018800
      7 S1         -0.8370   -2.2180   -2.2390 sh        1 DBC     -0.351900
      8 C3          0.1290    0.3550    0.6850 c3        1 DBC      0.118600
      9 C4          1.3500    0.0420    1.6700 c3        1 DBC     -0.018800
     10 S4          1.3760    1.2410    2.9790 sh        1 DBC     -0.351900
     11 HO4        -2.0550    2.2890   -1.4840 ho        1 DBC      0.415000
     12 H5         -0.0230    2.3000   -1.6370 h3        1 DBC      0.149700
     13 H2          1.1340   -0.8850   -0.6330 h1        1 DBC      0.087700
     14 H11        -0.5770   -2.1820    0.0400 h1        1 DBC      0.088950
     15 H12        -1.6440   -1.0870   -0.4130 h1        1 DBC      0.088950
     16 HS1        -1.3610   -3.2700   -2.1790 hs        1 DBC      0.210800
     17 H3         -0.7220    0.1760    1.1280 h1        1 DBC      0.087700
     18 H41         2.1890    0.0840    1.1720 h1        1 DBC      0.088950
     19 H42         1.2410   -0.8510    2.0490 h1        1 DBC      0.088950
     20 HS4         2.1990    0.9430    3.7680 hs        1 DBC      0.210800
@<TRIPOS>BOND
     1    1    2 1   
     2    1   11 1   
     3    2    3 1   
     4    2    4 1   
     5    2   12 1   
     6    3    8 1   
     7    4    5 1   
     8    5    6 1   
     9    5    8 1   
    10    5   13 1   
    11    6    7 1   
    12    6   14 1   
    13    6   15 1   
    14    7   16 1   
    15    8    9 1   
    16    8   17 1   
    17    9   10 1   
    18    9   18 1   
    19    9   19 1   
    20   10   20 1   
@<TRIPOS>SUBSTRUCTURE
     1 DBC         1 TEMP              0 ****  ****    0 ROOT
