@<TRIPOS>MOLECULE
DBC
   20    20     1     0     0
SMALL
bcc


@<TRIPOS>ATOM
      1 O4          0.0210    2.5360   -0.8580 oh        1 DBC     -0.605800
      2 C5         -0.3480    1.8910    0.3130 c3        1 DBC      0.514700
      3 O3         -1.2710    0.8760   -0.0280 os        1 DBC     -0.460100
      4 O2          0.7930    1.2470    0.8430 os        1 DBC     -0.460100
      5 C2          0.7860   -0.1510    0.5130 c3        1 DBC      0.121600
      6 C1          1.8820   -0.4290   -0.4960 c3        1 DBC     -0.015800
      7 S1          2.2090   -2.1680   -0.4770 sh        1 DBC     -0.361400
      8 C3         -0.6380   -0.4170   -0.0230 c3        1 DBC      0.121600
      9 C4         -1.4290   -1.3500    0.8690 c3        1 DBC     -0.015800
     10 S4         -2.9830   -1.8270    0.1870 sh        1 DBC     -0.361400
     11 HO4         0.3550    1.8850   -1.4890 ho        1 DBC      0.414000
     12 H5         -0.7750    2.6360    1.0290 h3        1 DBC      0.150700
     13 H2          0.9890   -0.6930    1.4770 h1        1 DBC      0.097200
     14 H11         1.5750   -0.0970   -1.5170 h1        1 DBC      0.082700
     15 H12         2.7940    0.1520   -0.2100 h1        1 DBC      0.082700
     16 HS1         3.3200   -2.1730   -1.1950 hs        1 DBC      0.216300
     17 H3         -0.6330   -0.7860   -1.0840 h1        1 DBC      0.097200
     18 H41        -0.8620   -2.3080    0.9970 h1        1 DBC      0.082700
     19 H42        -1.5690   -0.8810    1.8740 h1        1 DBC      0.082700
     20 HS4        -3.5180   -0.6280    0.0080 hs        1 DBC      0.216300
@<TRIPOS>BOND
     1    1    2 1   
     2    1   11 1   
     3    2    3 1   
     4    2    4 1   
     5    2   12 1   
     6    3    8 1   
     7    4    5 1   
     8    5    6 1   
     9    5    8 1   
    10    5   13 1   
    11    6    7 1   
    12    6   14 1   
    13    6   15 1   
    14    7   16 1   
    15    8    9 1   
    16    8   17 1   
    17    9   10 1   
    18    9   18 1   
    19    9   19 1   
    20   10   20 1   
@<TRIPOS>SUBSTRUCTURE
     1 DBC         1 TEMP              0 ****  ****    0 ROOT
