@<TRIPOS>MOLECULE
DBD
   43    46     1     0     0
SMALL
bcc


@<TRIPOS>ATOM
      1 O1         -0.1750    0.5880    0.1930 os        1 DBD     -0.452600
      2 C2          1.2580    0.6030    0.2530 c3        1 DBD      0.262400
      3 C3          1.8200    0.3600    1.5910 cc        1 DBD     -0.335400
      4 C4          1.0310    0.0430    2.6900 cd        1 DBD      0.004700
      5 C5         -0.4380   -0.0260    2.5620 c3        1 DBD     -0.059100
      6 C6         -0.8110   -0.2930    1.1140 c3        1 DBD      0.143400
      7 S7          3.4500    0.3470    1.9780 ss        1 DBD     -0.005800
      8 C8          3.1570   -0.0810    3.6180 cc        1 DBD      0.148500
      9 C9          1.7820   -0.2190    3.8690 cd        1 DBD     -0.243600
     10 C10         1.1800   -0.6180    5.1880 c         1 DBD      0.936200
     11 O11        -0.0730   -0.8040    5.2620 o         1 DBD     -0.849800
     12 O12         1.9430   -0.7630    6.1890 o         1 DBD     -0.849800
     13 N13         4.1820   -0.2580    4.5180 ns        1 DBD     -0.424100
     14 C14         5.5240   -0.1350    4.1670 c         1 DBD      0.536100
     15 C15         6.6090   -0.3890    5.2590 c         1 DBD      0.898600
     16 O16         7.0470   -1.5610    5.3470 o         1 DBD     -0.800300
     17 O17         6.9710    0.6070    5.9310 o         1 DBD     -0.800300
     18 O18         5.8140    0.1740    2.9870 o         1 DBD     -0.666100
     19 C19         1.6550    1.9980   -0.2660 c3        1 DBD      0.129400
     20 O20         1.8370    1.8080   -1.7020 os        1 DBD     -0.375400
     21 C21         1.7950    2.8730   -2.5070 ce        1 DBD      0.817200
     22 C22         1.9990    2.5990   -3.9730 ca        1 DBD     -0.163900
     23 C23         1.9130    3.8260   -4.6810 ca        1 DBD     -0.288500
     24 S24         1.6050    5.1310   -3.5400 sy        1 DBD      1.465700
     25 N25         1.6000    4.1370   -2.2310 nf        1 DBD     -0.815300
     26 C26         2.2380    1.3960   -4.6040 ca        1 DBD     -0.065000
     27 C27         2.3990    1.4090   -6.0010 ca        1 DBD     -0.106000
     28 C28         2.3180    2.6000   -6.7110 ca        1 DBD     -0.138000
     29 C29         2.0740    3.8170   -6.0500 ca        1 DBD     -0.007000
     30 O30         0.3540    5.7060   -3.8390 o         1 DBD     -0.644300
     31 O31         2.6800    6.0380   -3.5860 o         1 DBD     -0.644300
     32 H2          1.6210   -0.1810   -0.4770 h1        1 DBD      0.036700
     33 H51        -0.8430   -0.8320    3.2360 hc        1 DBD      0.085700
     34 H52        -0.8830    0.9450    2.9060 hc        1 DBD      0.085700
     35 H61        -0.5600   -1.3510    0.8340 h1        1 DBD      0.026200
     36 H62        -1.9040   -0.1060    0.9360 h1        1 DBD      0.026200
     37 H13         3.9080   -0.5000    5.4570 hn        1 DBD      0.380500
     38 H191        0.8520    2.7490   -0.0720 h1        1 DBD      0.089200
     39 H192        2.6420    2.3280    0.1490 h1        1 DBD      0.089200
     40 H26         2.3010    0.4590   -4.0300 ha        1 DBD      0.166000
     41 H27         2.5920    0.4620   -6.5280 ha        1 DBD      0.134000
     42 H28         2.4460    2.5980   -7.8040 ha        1 DBD      0.129000
     43 H29         2.0140    4.7520   -6.6290 ha        1 DBD      0.141000
@<TRIPOS>BOND
     1    1    2 1   
     2    1    6 1   
     3    2    3 1   
     4    2   19 1   
     5    2   32 1   
     6    3    4 2   
     7    3    7 1   
     8    4    5 1   
     9    4    9 1   
    10    5    6 1   
    11    5   33 1   
    12    5   34 1   
    13    6   35 1   
    14    6   36 1   
    15    7    8 1   
    16    8    9 2   
    17    8   13 1   
    18    9   10 1   
    19   10   11 1   
    20   10   12 1   
    21   13   14 1   
    22   13   37 1   
    23   14   15 1   
    24   14   18 2   
    25   15   16 1   
    26   15   17 1   
    27   19   20 1   
    28   19   38 1   
    29   19   39 1   
    30   20   21 1   
    31   21   22 1   
    32   21   25 2   
    33   22   23 ar  
    34   22   26 ar  
    35   23   24 1   
    36   23   29 ar  
    37   24   25 1   
    38   24   30 2   
    39   24   31 2   
    40   26   27 ar  
    41   26   40 1   
    42   27   28 ar  
    43   27   41 1   
    44   28   29 ar  
    45   28   42 1   
    46   29   43 1   
@<TRIPOS>SUBSTRUCTURE
     1 DBD         1 TEMP              0 ****  ****    0 ROOT
