@<TRIPOS>MOLECULE
DBD
   43    46     1     0     0
SMALL
bcc


@<TRIPOS>ATOM
      1 O1         -0.1670    0.5670    0.1800 os        1 DBD     -0.452600
      2 C2          1.2660    0.5950    0.2480 c3        1 DBD      0.262400
      3 C3          1.8220    0.3580    1.5900 cc        1 DBD     -0.335400
      4 C4          1.0290    0.0330    2.6840 cd        1 DBD      0.004700
      5 C5         -0.4380   -0.0490    2.5480 c3        1 DBD     -0.059100
      6 C6         -0.8000   -0.3200    1.0980 c3        1 DBD      0.143400
      7 S7          3.4500    0.3600    1.9870 ss        1 DBD     -0.005800
      8 C8          3.1510   -0.0700    3.6250 cc        1 DBD      0.148500
      9 C9          1.7760   -0.2220    3.8680 cd        1 DBD     -0.243600
     10 C10         1.1700   -0.6260    5.1830 c         1 DBD      0.936200
     11 O11        -0.0820   -0.8240    5.2500 o         1 DBD     -0.849800
     12 O12         1.9280   -0.7640    6.1890 o         1 DBD     -0.849800
     13 N13         4.1720   -0.2370    4.5310 n         1 DBD     -0.424100
     14 C14         5.5150   -0.1010    4.1880 c         1 DBD      0.536100
     15 C15         6.5960   -0.3440    5.2870 c         1 DBD      0.898600
     16 O16         7.0440   -1.5130    5.3780 o         1 DBD     -0.800300
     17 O17         6.9440    0.6550    5.9610 o         1 DBD     -0.800300
     18 O18         5.8090    0.2100    3.0110 o         1 DBD     -0.666100
     19 C19         1.6540    1.9930   -0.2690 c3        1 DBD      0.129400
     20 O20         1.8420    1.8050   -1.7040 os        1 DBD     -0.375400
     21 C21         1.7950    2.8700   -2.5100 ce        1 DBD      0.817200
     22 C22         2.0050    2.5970   -3.9740 ca        1 DBD     -0.163900
     23 C23         1.9130    3.8240   -4.6820 ca        1 DBD     -0.288500
     24 S24         1.5930    5.1270   -3.5420 sy        1 DBD      1.465700
     25 N25         1.5900    4.1330   -2.2330 nf        1 DBD     -0.815300
     26 C26         2.2540    1.3970   -4.6050 ca        1 DBD     -0.065000
     27 C27         2.4190    1.4110   -6.0020 ca        1 DBD     -0.106000
     28 C28         2.3320    2.6010   -6.7120 ca        1 DBD     -0.138000
     29 C29         2.0780    3.8170   -6.0510 ca        1 DBD     -0.007000
     30 O30         0.3390    5.6930   -3.8450 o         1 DBD     -0.644300
     31 O31         2.6620    6.0420   -3.5840 o         1 DBD     -0.644300
     32 H2          1.6400   -0.1870   -0.4790 h1        1 DBD      0.036700
     33 H51        -0.8390   -0.8590    3.2190 hc        1 DBD      0.085700
     34 H52        -0.8940    0.9180    2.8890 hc        1 DBD      0.085700
     35 H61        -0.5370   -1.3760    0.8200 h1        1 DBD      0.026200
     36 H62        -1.8930   -0.1430    0.9130 h1        1 DBD      0.026200
     37 H13         3.8950   -0.4820    5.4690 hn        1 DBD      0.380500
     38 H191        0.8430    2.7380   -0.0770 h1        1 DBD      0.089200
     39 H192        2.6350    2.3310    0.1500 h1        1 DBD      0.089200
     40 H26         2.3220    0.4600   -4.0310 ha        1 DBD      0.166000
     41 H27         2.6200    0.4660   -6.5280 ha        1 DBD      0.134000
     42 H28         2.4640    2.6000   -7.8040 ha        1 DBD      0.129000
     43 H29         2.0130    4.7510   -6.6300 ha        1 DBD      0.141000
@<TRIPOS>BOND
     1    1    2 1   
     2    1    6 1   
     3    2    3 1   
     4    2   19 1   
     5    2   32 1   
     6    3    4 2   
     7    3    7 1   
     8    4    5 1   
     9    4    9 1   
    10    5    6 1   
    11    5   33 1   
    12    5   34 1   
    13    6   35 1   
    14    6   36 1   
    15    7    8 1   
    16    8    9 2   
    17    8   13 1   
    18    9   10 1   
    19   10   11 1   
    20   10   12 1   
    21   13   14 1   
    22   13   37 1   
    23   14   15 1   
    24   14   18 2   
    25   15   16 1   
    26   15   17 1   
    27   19   20 1   
    28   19   38 1   
    29   19   39 1   
    30   20   21 1   
    31   21   22 1   
    32   21   25 2   
    33   22   23 ar  
    34   22   26 ar  
    35   23   24 1   
    36   23   29 ar  
    37   24   25 1   
    38   24   30 2   
    39   24   31 2   
    40   26   27 ar  
    41   26   40 1   
    42   27   28 ar  
    43   27   41 1   
    44   28   29 ar  
    45   28   42 1   
    46   29   43 1   
@<TRIPOS>SUBSTRUCTURE
     1 DBD         1 TEMP              0 ****  ****    0 ROOT
