@<TRIPOS>MOLECULE
DBD
   43    40     1     0     0
SMALL
bcc


@<TRIPOS>ATOM
      1 O1         -2.2970   -0.8170    0.1910 os        1 DBD     -0.309000
      2 C2         -0.9120   -0.8160    0.1970 c3        1 DBD      0.144000
      3 C3         -0.2230   -0.8220    1.6010 c2        1 DBD     -0.598000
      4 C4         -1.1000   -0.9990    2.7930 c1        1 DBD      0.012000
      5 C5         -2.5620   -1.3120    2.5460 c2        1 DBD     -0.145000
      6 C6         -2.9490   -1.5640    1.1670 c3        1 DBD     -0.007000
      7 S7          1.2470   -0.6690    2.1100 ss        1 DBD      0.534000
      8 C8          1.2170   -0.7630    3.6840 c1        1 DBD     -0.114000
      9 C9         -0.1880   -0.9610    4.1000 c1        1 DBD     -0.223000
     10 C10        -0.6840   -1.0730    5.5300 c1        1 DBD      0.385000
     11 O11        -0.6360   -2.1690    6.1230 o         1 DBD     -0.584500
     12 O12        -1.1530   -0.0850    6.0970 o         1 DBD     -0.584500
     13 N13         2.3700   -0.6180    4.5800 n2        1 DBD     -0.278000
     14 C14         3.2350   -1.7080    4.7920 c2        1 DBD      0.230000
     15 C15         4.5200   -1.5280    5.6690 c2        1 DBD      0.368000
     16 O16         5.6210   -1.1620    5.1250 o         1 DBD     -0.535000
     17 O17         4.4720   -1.7400    6.8930 o         1 DBD     -0.535000
     18 O18         3.0210   -2.7930    4.2170 o         1 DBD     -0.427000
     19 C19        -0.4310    0.4450   -0.5710 c3        1 DBD     -0.021000
     20 O20        -0.9210    0.4000   -1.9050 os        1 DBD     -0.170000
     21 C21        -0.0220    0.9600   -2.8760 c2        1 DBD      0.312000
     22 C22        -0.4850    1.1300   -4.3780 c2        1 DBD     -0.080000
     23 C23         0.3690    2.2190   -4.9130 c2        1 DBD     -0.733000
     24 S24         1.4200    2.7090   -3.5290 s4        1 DBD      1.956800
     25 N25         0.9410    1.7680   -2.4900 n1        1 DBD     -0.799000
     26 C26        -1.3760    0.4880   -5.2060 c1        1 DBD     -0.065000
     27 C27        -1.4740    0.8680   -6.5670 c1        1 DBD     -0.122000
     28 C28        -0.6430    1.9250   -7.0840 c1        1 DBD     -0.122000
     29 C29         0.2680    2.5840   -6.2370 c1        1 DBD     -0.007000
     30 O30         2.8780    2.5340   -3.8290 o         1 DBD     -0.531900
     31 O31         1.1580    4.0490   -3.1510 o         1 DBD     -0.531900
     32 H2         -0.6170   -1.5780   -0.2760 h1        1 DBD      0.076000
     33 H51        -3.0640   -0.5970    2.8610 ha        1 DBD      0.125000
     34 H52        -2.7850   -2.0740    3.0540 ha        1 DBD      0.125000
     35 H61        -2.7450   -2.5180    0.9840 h1        1 DBD      0.065500
     36 H62        -3.9390   -1.3440    1.0950 h1        1 DBD      0.065500
     37 H13         2.5710    0.2270    4.9610 hn        1 DBD      0.294000
     38 H191       -0.7680    1.2400   -0.1300 h1        1 DBD      0.128500
     39 H192        0.5780    0.4690   -0.5830 h1        1 DBD      0.128500
     40 H26        -1.9200   -0.2040   -4.8680 ha        1 DBD      0.166000
     41 H27        -2.1100    0.4090   -7.1600 ha        1 DBD      0.131500
     42 H28        -0.7120    2.1870   -8.0240 ha        1 DBD      0.131500
     43 H29         0.8300    3.3040   -6.5910 ha        1 DBD      0.141000
@<TRIPOS>BOND
     1    1    2 1   
     2    1    6 1   
     3    2    3 1   
     4    2   19 1   
     5    2   32 1   
     6    3    4 1   
     7    3    7 1   
     8    4    9 1   
     9    5    6 1   
    10    5   33 1   
    11    5   34 1   
    12    6   35 1   
    13    6   36 1   
    14    7    8 1   
    15    8    9 1   
    16   10   11 1   
    17   10   12 1   
    18   13   14 1   
    19   13   37 1   
    20   14   15 1   
    21   14   18 1   
    22   15   16 1   
    23   15   17 1   
    24   19   20 1   
    25   19   38 1   
    26   19   39 1   
    27   20   21 1   
    28   21   22 1   
    29   21   25 1   
    30   22   23 1   
    31   22   26 1   
    32   23   24 1   
    33   23   29 1   
    34   24   30 1   
    35   24   31 1   
    36   26   40 1   
    37   27   28 1   
    38   27   41 1   
    39   28   42 1   
    40   29   43 1   
@<TRIPOS>SUBSTRUCTURE
     1 DBD         1 TEMP              0 ****  ****    0 ROOT
