@<TRIPOS>MOLECULE
DBD
   44    47     1     0     0
SMALL
bcc


@<TRIPOS>ATOM
      1 O1         -0.2510    0.5440    0.2990 os        1 DBD     -0.423600
      2 C2          1.1800    0.5550    0.3210 c3        1 DBD      0.225400
      3 C3          1.7380    0.3050    1.6710 cc        1 DBD     -0.196400
      4 C4          0.9520   -0.1720    2.7120 cd        1 DBD     -0.040300
      5 C5         -0.4950   -0.4000    2.5490 c3        1 DBD     -0.058100
      6 C6         -0.8450   -0.4960    1.0730 c3        1 DBD      0.132400
      7 S7          3.3350    0.4760    2.1170 ss        1 DBD      0.066200
      8 C8          3.0470   -0.0750    3.6970 cc        1 DBD     -0.033500
      9 C9          1.7060   -0.4040    3.9030 cd        1 DBD     -0.108600
     10 C10         1.1370   -0.9540    5.1970 c         1 DBD      0.929200
     11 O11         1.9250   -1.0330    6.1900 o         1 DBD     -0.804300
     12 O12        -0.0650   -1.3130    5.2210 o         1 DBD     -0.804300
     13 N13         4.0580   -0.2070    4.7070 n4        1 DBD     -0.542200
     14 C14         5.1430    0.8640    4.6650 c         1 DBD      0.384100
     15 C15         6.4810    0.3940    3.9160 c         1 DBD      0.909600
     16 O16         7.0380    1.2940    3.2730 o         1 DBD     -0.721800
     17 O17         6.7500   -0.8100    4.0910 o         1 DBD     -0.721800
     18 O18         4.9060    1.9040    5.2530 o         1 DBD     -0.469100
     19 C19         1.5720    1.9410   -0.2140 c3        1 DBD      0.134400
     20 O20         1.8090    1.7280   -1.6300 os        1 DBD     -0.384400
     21 C21         1.8730    2.8160   -2.4220 ce        1 DBD      0.804200
     22 C22         2.1140    2.5660   -3.8820 ca        1 DBD     -0.163900
     23 C23         2.1440    3.8190   -4.5510 ca        1 DBD     -0.296500
     24 S24         1.8870    5.1120   -3.3930 sy        1 DBD      1.473700
     25 N25         1.7570    4.0750   -2.1060 nf        1 DBD     -0.800300
     26 C26         2.2890    1.3700   -4.5450 ca        1 DBD     -0.066000
     27 C27         2.5050    1.4150   -5.9340 ca        1 DBD     -0.101000
     28 C28         2.5390    2.6290   -6.6060 ca        1 DBD     -0.129000
     29 C29         2.3570    3.8410   -5.9120 ca        1 DBD      0.001000
     30 O30         0.6880    5.7740   -3.7030 o         1 DBD     -0.631300
     31 O31         3.0280    5.9290   -3.3510 o         1 DBD     -0.631300
     32 H2          1.5400   -0.2470   -0.3900 h1        1 DBD      0.061700
     33 H51        -0.8010   -1.3370    3.0930 hc        1 DBD      0.096700
     34 H52        -1.0530    0.4480    3.0300 hc        1 DBD      0.096700
     35 H61        -1.9450   -0.3440    0.9080 h1        1 DBD      0.045200
     36 H62        -0.5320   -1.4900    0.6560 h1        1 DBD      0.045200
     37 H13         3.5640   -0.2270    5.6350 hn        1 DBD      0.478800
     38 H191        0.7420    2.6780   -0.0650 h1        1 DBD      0.090200
     39 H192        2.5270    2.3110    0.2410 h1        1 DBD      0.090200
     40 H26         2.2620    0.4120   -4.0050 ha        1 DBD      0.160000
     41 H27         2.6490    0.4730   -6.4860 ha        1 DBD      0.140000
     42 H28         2.7090    2.6520   -7.6930 ha        1 DBD      0.138000
     43 H29         2.3880    4.7950   -6.4630 ha        1 DBD      0.148000
     44 H132        4.5360   -1.1120    4.5810 hn        1 DBD      0.478800
@<TRIPOS>BOND
     1    1    2 1   
     2    1    6 1   
     3    2    3 1   
     4    2   19 1   
     5    2   32 1   
     6    3    4 2   
     7    3    7 1   
     8    4    5 1   
     9    4    9 1   
    10    5    6 1   
    11    5   33 1   
    12    5   34 1   
    13    6   35 1   
    14    6   36 1   
    15    7    8 1   
    16    8    9 2   
    17    8   13 1   
    18    9   10 1   
    19   10   11 1   
    20   10   12 1   
    21   13   14 1   
    22   13   37 1   
    23   13   44 1   
    24   14   15 1   
    25   14   18 2   
    26   15   16 1   
    27   15   17 1   
    28   19   20 1   
    29   19   38 1   
    30   19   39 1   
    31   20   21 1   
    32   21   22 1   
    33   21   25 2   
    34   22   23 ar  
    35   22   26 ar  
    36   23   24 1   
    37   23   29 ar  
    38   24   25 1   
    39   24   30 2   
    40   24   31 2   
    41   26   27 ar  
    42   26   40 1   
    43   27   28 ar  
    44   27   41 1   
    45   28   29 ar  
    46   28   42 1   
    47   29   43 1   
@<TRIPOS>SUBSTRUCTURE
     1 DBD         1 TEMP              0 ****  ****    0 ROOT
