@<TRIPOS>MOLECULE
DBD
   43    46     1     0     0
SMALL
bcc


@<TRIPOS>ATOM
      1 O1         -2.8130    0.5810   -0.4930 os        1 DBD     -0.452600
      2 C2         -1.5850   -0.1010   -0.1990 c3        1 DBD      0.262400
      3 C3         -1.1870   -0.0680    1.2170 cc        1 DBD     -0.335400
      4 C4         -1.9850    0.4910    2.2080 cd        1 DBD      0.004700
      5 C5         -3.2730    1.1230    1.8640 c3        1 DBD     -0.059100
      6 C6         -3.7830    0.5570    0.5500 c3        1 DBD      0.143400
      7 S7          0.2050   -0.7480    1.8560 ss        1 DBD     -0.005800
      8 C8         -0.2100   -0.3180    3.4690 cc        1 DBD      0.148500
      9 C9         -1.4420    0.3550    3.5150 cd        1 DBD     -0.243600
     10 C10        -2.1150    0.8400    4.7700 c         1 DBD      0.936200
     11 O11        -3.2750    1.3490    4.6880 o         1 DBD     -0.849800
     12 O12        -1.5070    0.7230    5.8750 o         1 DBD     -0.849800
     13 N13         0.6010   -0.6310    4.5360 n         1 DBD     -0.424100
     14 C14         1.7930   -1.3370    4.3970 c         1 DBD      0.536100
     15 C15         2.6200   -1.6660    5.6780 c         1 DBD      0.898600
     16 O16         2.3780   -2.7670    6.2300 o         1 DBD     -0.800300
     17 O17         3.4770   -0.8170    6.0250 o         1 DBD     -0.800300
     18 O18         2.1590   -1.6840    3.2500 o         1 DBD     -0.666100
     19 C19        -0.5320    0.5930   -1.0830 c3        1 DBD      0.129400
     20 O20        -0.5300   -0.1850   -2.3170 os        1 DBD     -0.375400
     21 C21        -0.0350    0.3630   -3.4300 ce        1 DBD      0.817200
     22 C22        -0.0590   -0.5050   -4.6600 ca        1 DBD     -0.163900
     23 C23         0.4880    0.2300   -5.7440 ca        1 DBD     -0.288500
     24 S24         0.9540    1.8310   -5.1820 sy        1 DBD      1.465700
     25 N25         0.4740    1.5510   -3.6340 nf        1 DBD     -0.815300
     26 C26        -0.5120   -1.8000   -4.7970 ca        1 DBD     -0.065000
     27 C27        -0.4190   -2.3960   -6.0670 ca        1 DBD     -0.106000
     28 C28         0.1130   -1.6930   -7.1410 ca        1 DBD     -0.138000
     29 C29         0.5700   -0.3720   -6.9820 ca        1 DBD     -0.007000
     30 O30         0.1820    2.7920   -5.8650 o         1 DBD     -0.644300
     31 O31         2.3430    1.9860   -5.3480 o         1 DBD     -0.644300
     32 H2         -1.7170   -1.1690   -0.5480 h1        1 DBD      0.036700
     33 H51        -3.1270    2.2330    1.7790 hc        1 DBD      0.085700
     34 H52        -4.0170    0.9500    2.6910 hc        1 DBD      0.085700
     35 H61        -4.6200    1.1820    0.1370 h1        1 DBD      0.026200
     36 H62        -4.1370   -0.4990    0.6910 h1        1 DBD      0.026200
     37 H13         0.2750   -0.3290    5.4410 hn        1 DBD      0.380500
     38 H191       -0.8120    1.6540   -1.2940 h1        1 DBD      0.089200
     39 H192        0.4940    0.5140   -0.6430 h1        1 DBD      0.089200
     40 H26        -0.9300   -2.3470   -3.9380 ha        1 DBD      0.166000
     41 H27        -0.7720   -3.4290   -6.2020 ha        1 DBD      0.134000
     42 H28         0.1810   -2.1710   -8.1300 ha        1 DBD      0.129000
     43 H29         0.9900    0.1690   -7.8440 ha        1 DBD      0.141000
@<TRIPOS>BOND
     1    1    2 1   
     2    1    6 1   
     3    2    3 1   
     4    2   19 1   
     5    2   32 1   
     6    3    4 2   
     7    3    7 1   
     8    4    5 1   
     9    4    9 1   
    10    5    6 1   
    11    5   33 1   
    12    5   34 1   
    13    6   35 1   
    14    6   36 1   
    15    7    8 1   
    16    8    9 2   
    17    8   13 1   
    18    9   10 1   
    19   10   11 1   
    20   10   12 1   
    21   13   14 1   
    22   13   37 1   
    23   14   15 1   
    24   14   18 2   
    25   15   16 1   
    26   15   17 1   
    27   19   20 1   
    28   19   38 1   
    29   19   39 1   
    30   20   21 1   
    31   21   22 1   
    32   21   25 2   
    33   22   23 ar  
    34   22   26 ar  
    35   23   24 1   
    36   23   29 ar  
    37   24   25 1   
    38   24   30 2   
    39   24   31 2   
    40   26   27 ar  
    41   26   40 1   
    42   27   28 ar  
    43   27   41 1   
    44   28   29 ar  
    45   28   42 1   
    46   29   43 1   
@<TRIPOS>SUBSTRUCTURE
     1 DBD         1 TEMP              0 ****  ****    0 ROOT
