@<TRIPOS>MOLECULE
DBE
   26    27     1     0     0
SMALL
bcc


@<TRIPOS>ATOM
      1 C5          0.0780   -0.0240   -0.1200 ca        1 DBE     -0.200000
      2 C4          1.4300    0.2960   -0.0920 ca        1 DBE     -0.049000
      3 C10         1.5040   -0.1330    2.2910 ca        1 DBE     -0.049000
      4 C1          0.1540   -0.4670    2.2820 ca        1 DBE     -0.200000
      5 C6         -0.5570   -0.4120    1.0730 ca        1 DBE      0.149100
      6 C12         2.1550    0.2390    1.1060 ca        1 DBE     -0.205600
      7 O10         4.0740    1.1220    2.1770 o         1 DBE     -0.539100
      8 C11         3.5860    0.6030    1.1610 c         1 DBE      0.597300
      9 C13         4.4190    0.3310   -0.0290 ca        1 DBE     -0.205600
     10 C18         4.1660   -0.7650   -0.8650 ca        1 DBE     -0.049000
     11 C17         4.9770   -1.0210   -1.9640 ca        1 DBE     -0.200000
     12 C16         6.0560   -0.1610   -2.2320 ca        1 DBE      0.149100
     13 C15         6.3250    0.9370   -1.4010 ca        1 DBE     -0.200000
     14 C14         5.5090    1.1700   -0.2990 ca        1 DBE     -0.049000
     15 O23        -1.8910   -0.7250    0.9830 oh        1 DBE     -0.493100
     16 O24         6.8160   -0.4580   -3.3370 oh        1 DBE     -0.493100
     17 H1         -0.3510   -0.7650    3.2110 ha        1 DBE      0.147000
     18 H10         2.0750   -0.1510    3.2340 ha        1 DBE      0.150000
     19 H4          1.9340    0.6070   -1.0220 ha        1 DBE      0.150000
     20 H5         -0.5010    0.0230   -1.0520 ha        1 DBE      0.147000
     21 H23        -2.2060   -0.9580    1.8690 ho        1 DBE      0.423000
     22 H14         5.7170    2.0150    0.3780 ha        1 DBE      0.150000
     23 H18         3.3210   -1.4380   -0.6440 ha        1 DBE      0.150000
     24 H15         7.1750    1.6000   -1.6140 ha        1 DBE      0.147000
     25 H17         4.7910   -1.8810   -2.6240 ha        1 DBE      0.147000
     26 H24         7.5280    0.1960   -3.3980 ho        1 DBE      0.423000
@<TRIPOS>BOND
     1    1    2 ar  
     2    1    5 ar  
     3    1   20 1   
     4    2    6 ar  
     5    2   19 1   
     6    3    4 ar  
     7    3    6 ar  
     8    3   18 1   
     9    4    5 ar  
    10    4   17 1   
    11    5   15 1   
    12    6    8 1   
    13    7    8 2   
    14    8    9 1   
    15    9   10 ar  
    16    9   14 ar  
    17   10   11 ar  
    18   10   23 1   
    19   11   12 ar  
    20   11   25 1   
    21   12   13 ar  
    22   12   16 1   
    23   13   14 ar  
    24   13   24 1   
    25   14   22 1   
    26   15   21 1   
    27   16   26 1   
@<TRIPOS>SUBSTRUCTURE
     1 DBE         1 TEMP              0 ****  ****    0 ROOT
