@<TRIPOS>MOLECULE
DBE
   26    27     1     0     0
SMALL
bcc


@<TRIPOS>ATOM
      1 C5         34.4150   55.1900   32.3040 ca        1 DBE     -0.200000
      2 C4         33.8810   53.9790   31.8760 ca        1 DBE     -0.049000
      3 C10        35.9060   53.5140   30.6310 ca        1 DBE     -0.049000
      4 C1         36.4610   54.7130   31.0570 ca        1 DBE     -0.200000
      5 C6         35.7080   55.5520   31.8970 ca        1 DBE      0.149100
      6 C12        34.6200   53.1300   31.0450 ca        1 DBE     -0.204600
      7 O10        34.3720   51.4080   29.4380 o         1 DBE     -0.535100
      8 C11        34.0630   51.8530   30.5520 c         1 DBE      0.596300
      9 C13        33.1240   51.1220   31.4310 ca        1 DBE     -0.204600
     10 C18        33.2460   51.1620   32.8240 ca        1 DBE     -0.049000
     11 C17        32.3680   50.4430   33.6300 ca        1 DBE     -0.200000
     12 C16        31.3550   49.6800   33.0320 ca        1 DBE      0.149100
     13 C15        31.2240   49.6250   31.6330 ca        1 DBE     -0.200000
     14 C14        32.1160   50.3400   30.8450 ca        1 DBE     -0.049000
     15 O23        36.3060   56.7260   32.2850 oh        1 DBE     -0.492100
     16 O24        30.4470   48.9520   33.7610 oh        1 DBE     -0.492100
     17 H1         37.4700   55.0200   30.7450 ha        1 DBE      0.147000
     18 H10        36.4710   52.8500   29.9550 ha        1 DBE      0.150000
     19 H4         32.8640   53.6910   32.1880 ha        1 DBE      0.150000
     20 H5         33.8300   55.8580   32.9520 ha        1 DBE      0.147000
     21 H23        35.6800   57.2140   32.8410 ho        1 DBE      0.422000
     22 H14        32.0440   50.2950   29.7450 ha        1 DBE      0.150000
     23 H18        34.0480   51.7590   33.2880 ha        1 DBE      0.150000
     24 H15        30.4270   49.0150   31.1850 ha        1 DBE      0.147000
     25 H17        32.4700   50.4700   34.7240 ha        1 DBE      0.147000
     26 H24        30.6580   49.0600   34.7000 ho        1 DBE      0.422000
@<TRIPOS>BOND
     1    1    2 ar  
     2    1    5 ar  
     3    1   20 1   
     4    2    6 ar  
     5    2   19 1   
     6    3    4 ar  
     7    3    6 ar  
     8    3   18 1   
     9    4    5 ar  
    10    4   17 1   
    11    5   15 1   
    12    6    8 1   
    13    7    8 2   
    14    8    9 1   
    15    9   10 ar  
    16    9   14 ar  
    17   10   11 ar  
    18   10   23 1   
    19   11   12 ar  
    20   11   25 1   
    21   12   13 ar  
    22   12   16 1   
    23   13   14 ar  
    24   13   24 1   
    25   14   22 1   
    26   15   21 1   
    27   16   26 1   
@<TRIPOS>SUBSTRUCTURE
     1 DBE         1 TEMP              0 ****  ****    0 ROOT
