@<TRIPOS>MOLECULE
DBE
   26    21     1     0     0
SMALL
bcc


@<TRIPOS>ATOM
      1 C5         -2.8740   -1.3240   -1.7910 c1        1 DBE     -0.200000
      2 C4         -1.5190   -1.1120   -1.5870 c1        1 DBE     -0.038000
      3 C10        -2.0190    0.2410    0.3320 c1        1 DBE     -0.116000
      4 C1         -3.3740    0.0290    0.1280 c1        1 DBE     -0.116000
      5 C6         -3.8010   -0.7540   -0.9330 c1        1 DBE      0.104000
      6 C12        -1.0920   -0.3300   -0.5260 c1        1 DBE     -0.185000
      7 O10         0.2630    0.7900   -2.1120 o         1 DBE     -0.300000
      8 C11         0.1850    0.3390   -0.9860 c1        1 DBE      0.317000
      9 C13         1.3570    0.4680   -0.0370 c2        1 DBE     -0.185000
     10 C18         1.6490    1.6940    0.5390 c1        1 DBE     -0.060000
     11 C17         2.7600    1.8280    1.3580 c1        1 DBE     -0.200000
     12 C16         3.5780    0.7350    1.6000 c1        1 DBE      0.104000
     13 C15         3.2860   -0.4910    1.0230 c1        1 DBE     -0.228000
     14 C14         2.1750   -0.6240    0.2050 c2        1 DBE     -0.038000
     15 O23        -5.1780   -0.9330   -1.1660 oh        1 DBE     -0.247000
     16 O24         4.7290    0.8810    2.3950 oh        1 DBE     -0.247000
     17 H1         -4.0270    0.4310    0.7330 ha        1 DBE      0.150500
     18 H10        -1.7190    0.7920    1.0790 ha        1 DBE      0.150500
     19 H4         -0.8660   -1.5140   -2.1920 ha        1 DBE      0.154000
     20 H5         -3.1750   -1.8760   -2.5380 ha        1 DBE      0.147000
     21 H23        -5.3880   -1.7900   -1.0570 ho        1 DBE      0.222000
     22 H14         1.9690   -1.4880   -0.2010 ha        1 DBE      0.154000
     23 H18         1.0730    2.4630    0.3690 ha        1 DBE      0.146000
     24 H15         3.8620   -1.2600    1.1940 ha        1 DBE      0.139000
     25 H17         2.9660    2.6910    1.7640 ha        1 DBE      0.147000
     26 H24         5.1800    0.1150    2.4070 ho        1 DBE      0.222000
@<TRIPOS>BOND
     1    1    5 1   
     2    1   20 1   
     3    2    6 1   
     4    2   19 1   
     5    3    4 1   
     6    3   18 1   
     7    4   17 1   
     8    5   15 1   
     9    7    8 1   
    10    8    9 1   
    11    9   10 1   
    12    9   14 1   
    13   10   23 1   
    14   11   12 1   
    15   11   25 1   
    16   12   16 1   
    17   13   14 1   
    18   13   24 1   
    19   14   22 1   
    20   15   21 1   
    21   16   26 1   
@<TRIPOS>SUBSTRUCTURE
     1 DBE         1 TEMP              0 ****  ****    0 ROOT
