@<TRIPOS>MOLECULE
DBE
   26    27     1     0     0
SMALL
bcc


@<TRIPOS>ATOM
      1 C5          0.0780   -0.0130   -0.1170 ca        1 DBE     -0.200000
      2 C4          1.4310    0.3020   -0.0890 ca        1 DBE     -0.049000
      3 C10         1.5060   -0.1430    2.2920 ca        1 DBE     -0.049000
      4 C1          0.1550   -0.4730    2.2810 ca        1 DBE     -0.200000
      5 C6         -0.5570   -0.4070    1.0740 ca        1 DBE      0.149100
      6 C12         2.1570    0.2340    1.1090 ca        1 DBE     -0.205600
      7 O10         4.0800    1.1030    2.1830 o         1 DBE     -0.539100
      8 C11         3.5900    0.5930    1.1650 c         1 DBE      0.597300
      9 C13         4.4200    0.3260   -0.0280 ca        1 DBE     -0.205600
     10 C18         4.1630   -0.7640   -0.8710 ca        1 DBE     -0.049000
     11 C17         4.9710   -1.0150   -1.9730 ca        1 DBE     -0.200000
     12 C16         6.0530   -0.1560   -2.2360 ca        1 DBE      0.149100
     13 C15         6.3270    0.9350   -1.3980 ca        1 DBE     -0.200000
     14 C14         5.5130    1.1630   -0.2930 ca        1 DBE     -0.049000
     15 O23        -1.8920   -0.7160    0.9830 oh        1 DBE     -0.493100
     16 O24         6.8110   -0.4480   -3.3440 oh        1 DBE     -0.493100
     17 H1         -0.3510   -0.7750    3.2090 ha        1 DBE      0.147000
     18 H10         2.0770   -0.1700    3.2340 ha        1 DBE      0.150000
     19 H4          1.9350    0.6170   -1.0160 ha        1 DBE      0.150000
     20 H5         -0.5020    0.0410   -1.0490 ha        1 DBE      0.147000
     21 H23        -2.2080   -0.9530    1.8670 ho        1 DBE      0.423000
     22 H14         5.7240    2.0030    0.3880 ha        1 DBE      0.150000
     23 H18         3.3170   -1.4350   -0.6540 ha        1 DBE      0.150000
     24 H15         7.1790    1.5970   -1.6070 ha        1 DBE      0.147000
     25 H17         4.7830   -1.8690   -2.6380 ha        1 DBE      0.147000
     26 H24         7.5250    0.2040   -3.4010 ho        1 DBE      0.423000
@<TRIPOS>BOND
     1    1    2 ar  
     2    1    5 ar  
     3    1   20 1   
     4    2    6 ar  
     5    2   19 1   
     6    3    4 ar  
     7    3    6 ar  
     8    3   18 1   
     9    4    5 ar  
    10    4   17 1   
    11    5   15 1   
    12    6    8 1   
    13    7    8 2   
    14    8    9 1   
    15    9   10 ar  
    16    9   14 ar  
    17   10   11 ar  
    18   10   23 1   
    19   11   12 ar  
    20   11   25 1   
    21   12   13 ar  
    22   12   16 1   
    23   13   14 ar  
    24   13   24 1   
    25   14   22 1   
    26   15   21 1   
    27   16   26 1   
@<TRIPOS>SUBSTRUCTURE
     1 DBE         1 TEMP              0 ****  ****    0 ROOT
