@<TRIPOS>MOLECULE
DBF
   25    27     1     0     0
SMALL
bcc


@<TRIPOS>ATOM
      1 C1         -0.8750    0.0410    3.3960 ca        1 DBF     -0.119000
      2 C2          0.1730   -0.0200    2.4660 ca        1 DBF     -0.084600
      3 C3         -0.2040   -0.0140    1.1230 ca        1 DBF      0.106100
      4 C4         -1.5800    0.0520    0.7230 cp        1 DBF     -0.102000
      5 C5         -2.5860    0.1110    1.6760 ca        1 DBF     -0.128000
      6 C6         -2.2190    0.1040    3.0210 ca        1 DBF     -0.183000
      7 O           0.6430   -0.0660    0.0020 os        1 DBF     -0.152200
      8 C7          0.1790   -0.0650   -2.4630 ca        1 DBF     -0.084600
      9 C8         -0.2010   -0.0340   -1.1210 ca        1 DBF      0.106100
     10 C9         -1.5780    0.0380   -0.7260 cp        1 DBF     -0.102000
     11 C10        -2.5820    0.0800   -1.6830 ca        1 DBF     -0.128000
     12 C11        -2.2110    0.0490   -3.0260 ca        1 DBF     -0.183000
     13 C12        -0.8660   -0.0210   -3.3970 ca        1 DBF     -0.119000
     14 O1          2.1730    1.0040    3.2770 o         1 DBF     -0.827300
     15 C13         1.5900   -0.0860    3.0270 c         1 DBF      0.926200
     16 O2          2.0610   -1.2250    3.2970 o         1 DBF     -0.827300
     17 O3          2.0700   -1.2850   -3.2670 o         1 DBF     -0.827300
     18 C14         1.5980   -0.1410   -3.0190 c         1 DBF      0.926200
     19 O4          2.1810    0.9450   -3.2870 o         1 DBF     -0.827300
     20 H1         -0.6120    0.0370    4.4650 ha        1 DBF      0.123000
     21 H5         -3.6400    0.1610    1.3740 ha        1 DBF      0.102000
     22 H6         -2.9970    0.1500    3.7950 ha        1 DBF      0.092000
     23 H10        -3.6360    0.1360   -1.3850 ha        1 DBF      0.102000
     24 H11        -2.9870    0.0810   -3.8040 ha        1 DBF      0.092000
     25 H12        -0.6000   -0.0440   -4.4650 ha        1 DBF      0.123000
@<TRIPOS>BOND
     1    1    2 ar  
     2    1    6 ar  
     3    1   20 1   
     4    2    3 ar  
     5    2   15 1   
     6    3    4 ar  
     7    3    7 1   
     8    4    5 ar  
     9    4   10 1   
    10    5    6 ar  
    11    5   21 1   
    12    6   22 1   
    13    7    9 1   
    14    8    9 ar  
    15    8   13 ar  
    16    8   18 1   
    17    9   10 ar  
    18   10   11 ar  
    19   11   12 ar  
    20   11   23 1   
    21   12   13 ar  
    22   12   24 1   
    23   13   25 1   
    24   14   15 1   
    25   15   16 1   
    26   17   18 1   
    27   18   19 1   
@<TRIPOS>SUBSTRUCTURE
     1 DBF         1 TEMP              0 ****  ****    0 ROOT
