@<TRIPOS>MOLECULE
DBF
   25    27     1     0     0
SMALL
bcc


@<TRIPOS>ATOM
      1 C1          0.0390    0.1380    0.0190 ca        1 DBF     -0.119000
      2 C2          1.4410    0.1030   -0.0180 ca        1 DBF     -0.084600
      3 C3          2.0810    0.0550    1.2200 ca        1 DBF      0.106100
      4 C4          1.3480    0.0410    2.4530 cp        1 DBF     -0.102000
      5 C5         -0.0390    0.0760    2.4450 ca        1 DBF     -0.128000
      6 C6         -0.6880    0.1250    1.2120 ca        1 DBF     -0.183000
      7 O           3.4660    0.0140    1.4590 os        1 DBF     -0.152200
      8 C7          4.8100   -0.0760    3.5760 ca        1 DBF     -0.084600
      9 C8          3.6150   -0.0270    2.8570 ca        1 DBF      0.106100
     10 C9          2.3380   -0.0120    3.5090 cp        1 DBF     -0.102000
     11 C10         2.2560   -0.0460    4.8940 ca        1 DBF     -0.128000
     12 C11         3.4440   -0.0950    5.6210 ca        1 DBF     -0.183000
     13 C12         4.6820   -0.1090    4.9720 ca        1 DBF     -0.119000
     14 O1          2.3310    1.2480   -1.9170 o         1 DBF     -0.827300
     15 C13         2.0950    0.1230   -1.3960 c         1 DBF      0.926200
     16 O2          2.2750   -0.9830   -1.9750 o         1 DBF     -0.827300
     17 O3          6.8170    1.0090    2.8690 o         1 DBF     -0.827300
     18 C14         6.2270   -0.0970    3.0120 c         1 DBF      0.926200
     19 O4          6.7610   -1.2220    2.8100 o         1 DBF     -0.827300
     20 H1         -0.4980    0.1770   -0.9410 ha        1 DBF      0.123000
     21 H5         -0.6040    0.0660    3.3850 ha        1 DBF      0.102000
     22 H6         -1.7860    0.1530    1.1780 ha        1 DBF      0.092000
     23 H10         1.2820   -0.0350    5.3960 ha        1 DBF      0.102000
     24 H11         3.4080   -0.1230    6.7180 ha        1 DBF      0.092000
     25 H12         5.6050   -0.1480    5.5700 ha        1 DBF      0.123000
@<TRIPOS>BOND
     1    1    2 ar  
     2    1    6 ar  
     3    1   20 1   
     4    2    3 ar  
     5    2   15 1   
     6    3    4 ar  
     7    3    7 1   
     8    4    5 ar  
     9    4   10 1   
    10    5    6 ar  
    11    5   21 1   
    12    6   22 1   
    13    7    9 1   
    14    8    9 ar  
    15    8   13 ar  
    16    8   18 1   
    17    9   10 ar  
    18   10   11 ar  
    19   11   12 ar  
    20   11   23 1   
    21   12   13 ar  
    22   12   24 1   
    23   13   25 1   
    24   14   15 1   
    25   15   16 1   
    26   17   18 1   
    27   18   19 1   
@<TRIPOS>SUBSTRUCTURE
     1 DBF         1 TEMP              0 ****  ****    0 ROOT
