@<TRIPOS>MOLECULE
DBH
   16    16     1     0     0
SMALL
bcc


@<TRIPOS>ATOM
      1 O17         0.1880    0.2340    0.0190 o         1 DBH     -0.831300
      2 C21         1.4460    0.1540    0.0200 c         1 DBH      0.917200
      3 O9          2.1400    0.1440    1.0850 o         1 DBH     -0.831300
      4 C18         2.1660    0.0650   -1.3120 ca        1 DBH     -0.179600
      5 C15         1.4120    0.0750   -2.4920 ca        1 DBH     -0.100000
      6 C12         2.0190   -0.0050   -3.7410 ca        1 DBH     -0.177000
      7 C3          3.5620   -0.0280   -1.4110 ca        1 DBH      0.105100
      8 O3          4.4270   -0.0480   -0.3460 oh        1 DBH     -0.574100
      9 C6          4.1780   -0.1080   -2.6850 ca        1 DBH      0.051100
     10 C9          3.4070   -0.0970   -3.8490 ca        1 DBH     -0.151000
     11 O6          5.5510   -0.2010   -2.8310 oh        1 DBH     -0.528100
     12 HC15        0.3160    0.1480   -2.3960 ha        1 DBH      0.153000
     13 HC12        1.4070    0.0050   -4.6530 ha        1 DBH      0.108000
     14 HO3         3.9030    0.0120    0.4830 ho        1 DBH      0.491000
     15 HC9         3.9010   -0.1600   -4.8270 ha        1 DBH      0.121000
     16 HO6         5.9320   -0.1960   -1.9410 ho        1 DBH      0.427000
@<TRIPOS>BOND
     1    1    2 1   
     2    2    3 1   
     3    2    4 1   
     4    4    5 ar  
     5    4    7 ar  
     6    5    6 ar  
     7    5   12 1   
     8    6   10 ar  
     9    6   13 1   
    10    7    8 1   
    11    7    9 ar  
    12    8   14 1   
    13    9   10 ar  
    14    9   11 1   
    15   10   15 1   
    16   11   16 1   
@<TRIPOS>SUBSTRUCTURE
     1 DBH         1 TEMP              0 ****  ****    0 ROOT
