@<TRIPOS>MOLECULE
DBH
   16    16     1     0     0
SMALL
bcc


@<TRIPOS>ATOM
      1 O17         0.1850    0.1760    0.0210 o         1 DBH     -0.831300
      2 C21         1.4440    0.1170    0.0210 c         1 DBH      0.917200
      3 O9          2.1390    0.1110    1.0860 o         1 DBH     -0.831300
      4 C18         2.1650    0.0490   -1.3110 ca        1 DBH     -0.179600
      5 C15         1.4110    0.0550   -2.4910 ca        1 DBH     -0.100000
      6 C12         2.0180   -0.0050   -3.7410 ca        1 DBH     -0.177000
      7 C3          3.5620   -0.0200   -1.4120 ca        1 DBH      0.105100
      8 O3          4.4280   -0.0350   -0.3470 oh        1 DBH     -0.574100
      9 C6          4.1790   -0.0820   -2.6860 ca        1 DBH      0.051100
     10 C9          3.4080   -0.0740   -3.8500 ca        1 DBH     -0.151000
     11 O6          5.5530   -0.1510   -2.8330 oh        1 DBH     -0.528100
     12 HC15        0.3140    0.1100   -2.3940 ha        1 DBH      0.153000
     13 HC12        1.4060    0.0010   -4.6520 ha        1 DBH      0.108000
     14 HO3         3.9040    0.0110    0.4820 ho        1 DBH      0.491000
     15 HC9         3.9020   -0.1220   -4.8280 ha        1 DBH      0.121000
     16 HO6         5.9350   -0.1470   -1.9430 ho        1 DBH      0.427000
@<TRIPOS>BOND
     1    1    2 1   
     2    2    3 1   
     3    2    4 1   
     4    4    5 ar  
     5    4    7 ar  
     6    5    6 ar  
     7    5   12 1   
     8    6   10 ar  
     9    6   13 1   
    10    7    8 1   
    11    7    9 ar  
    12    8   14 1   
    13    9   10 ar  
    14    9   11 1   
    15   10   15 1   
    16   11   16 1   
@<TRIPOS>SUBSTRUCTURE
     1 DBH         1 TEMP              0 ****  ****    0 ROOT
