@<TRIPOS>MOLECULE
DBH
   16    16     1     0     0
SMALL
bcc


@<TRIPOS>ATOM
      1 O17        -0.6820    0.0570    2.8620 o         1 DBH     -0.831300
      2 C21         0.1720    0.1420    1.9400 c         1 DBH      0.917200
      3 O9          1.4190    0.2630    2.1580 o         1 DBH     -0.831300
      4 C18        -0.3080    0.1000    0.5020 ca        1 DBH     -0.179600
      5 C15        -1.6790   -0.0330    0.2490 ca        1 DBH     -0.100000
      6 C12        -2.1760   -0.0780   -1.0490 ca        1 DBH     -0.177000
      7 C3          0.5680    0.1880   -0.5900 ca        1 DBH      0.105100
      8 O3          1.9310    0.3200   -0.4970 oh        1 DBH     -0.574100
      9 C6          0.0590    0.1420   -1.9120 ca        1 DBH      0.051100
     10 C9         -1.3120    0.0090   -2.1410 ca        1 DBH     -0.151000
     11 O6          0.8850    0.2250   -3.0180 oh        1 DBH     -0.528100
     12 HC15       -2.3530   -0.1010    1.1190 ha        1 DBH      0.153000
     13 HC12       -3.2550   -0.1820   -1.2230 ha        1 DBH      0.108000
     14 HO3         2.1780    0.3410    0.4540 ho        1 DBH      0.491000
     15 HC9        -1.6880   -0.0240   -3.1710 ha        1 DBH      0.121000
     16 HO6         1.7920    0.3120   -2.6910 ho        1 DBH      0.427000
@<TRIPOS>BOND
     1    1    2 1   
     2    2    3 1   
     3    2    4 1   
     4    4    5 ar  
     5    4    7 ar  
     6    5    6 ar  
     7    5   12 1   
     8    6   10 ar  
     9    6   13 1   
    10    7    8 1   
    11    7    9 ar  
    12    8   14 1   
    13    9   10 ar  
    14    9   11 1   
    15   10   15 1   
    16   11   16 1   
@<TRIPOS>SUBSTRUCTURE
     1 DBH         1 TEMP              0 ****  ****    0 ROOT
