@<TRIPOS>MOLECULE
DBH
   16    14     1     0     0
SMALL
bcc


@<TRIPOS>ATOM
      1 O17        -1.6890    1.0300    2.6030 o         1 DBH     -0.566000
      2 C21        -1.5450   -0.0260    1.9320 c2        1 DBH      0.366000
      3 O9         -2.0100   -1.1130    2.3630 o         1 DBH     -0.566000
      4 C18        -0.7920    0.0080    0.6200 c2        1 DBH     -0.159000
      5 C15        -1.4880    0.0530   -0.5770 c2        1 DBH     -0.100000
      6 C12        -0.7990    0.0690   -1.7800 c1        1 DBH     -0.177000
      7 C3          0.5940   -0.0210    0.6150 c1        1 DBH      0.060000
      8 O3          1.3000   -0.0670    1.8310 o         1 DBH     -0.328000
      9 C6          1.2830   -0.0050   -0.5870 c2        1 DBH      0.006000
     10 C9          0.5870    0.0400   -1.7850 c1        1 DBH     -0.151000
     11 O6          2.6890   -0.0440   -0.5920 oh        1 DBH     -0.282000
     12 HC15       -2.4640    0.0740   -0.5740 ha        1 DBH      0.153000
     13 HC12       -1.2890    0.1000   -2.6230 ha        1 DBH      0.108000
     14 HO3         1.5450   -0.9050    2.0000 ho        1 DBH      0.290000
     15 HC9         1.0720    0.0510   -2.6310 ha        1 DBH      0.121000
     16 HO6         3.0070    0.7570   -0.8150 ho        1 DBH      0.226000
@<TRIPOS>BOND
     1    1    2 1   
     2    2    3 1   
     3    2    4 1   
     4    4    5 1   
     5    4    7 1   
     6    5    6 1   
     7    5   12 1   
     8    6   13 1   
     9    7    9 1   
    10    8   14 1   
    11    9   10 1   
    12    9   11 1   
    13   10   15 1   
    14   11   16 1   
@<TRIPOS>SUBSTRUCTURE
     1 DBH         1 TEMP              0 ****  ****    0 ROOT
