@<TRIPOS>MOLECULE
DBI
   41    43     1     0     0
SMALL
bcc


@<TRIPOS>ATOM
      1 P           0.5640   -1.7860   -3.7260 p5        1 DBI      1.316900
      2 O1P         1.2340   -0.6550   -4.4650 o         1 DBI     -0.911833
      3 O2P         1.2680   -3.1000   -3.6640 o         1 DBI     -0.911833
      4 O3'         0.6770   -1.1180   -2.0990 os        1 DBI     -0.557200
      5 C5'         1.7460    2.2490   -2.2130 c3        1 DBI      0.160400
      6 C4'         1.2940    1.0800   -1.3430 c3        1 DBI      0.057100
      7 O4'         0.6600    1.6130   -0.1600 os        1 DBI     -0.453600
      8 C1'        -0.5400    0.8760    0.1280 c3        1 DBI      0.232800
      9 N1         -0.2950   -0.1380    1.1300 na        1 DBI     -0.157300
     10 C8         -0.3780    0.0310    2.5160 ca        1 DBI     -0.072200
     11 C7         -0.7280    1.1070    3.3320 ca        1 DBI     -0.120000
     12 C6         -0.7240    0.9230    4.7140 ca        1 DBI     -0.105300
     13 C11        -1.0910    2.0540    5.5990 c3        1 DBI     -0.031800
     14 C5         -0.3740   -0.3230    5.2830 ca        1 DBI     -0.127300
     15 C4         -0.0200   -1.4080    4.4820 ca        1 DBI     -0.092000
     16 C9         -0.0110   -1.2590    3.0940 ca        1 DBI      0.078400
     17 N3          0.2970   -2.1610    2.0580 nc        1 DBI     -0.636100
     18 C2          0.1270   -1.4680    0.9150 cd        1 DBI      0.505700
     19 C2'        -1.0400    0.3510   -1.2550 c3        1 DBI      0.118100
     20 O2'        -1.8040   -0.8140   -1.1780 oh        1 DBI     -0.653800
     21 C3'         0.2660    0.1870   -2.0820 c3        1 DBI      0.166100
     22 O3P        -0.9430   -1.7900   -3.7470 o         1 DBI     -0.911833
     23 HO5         2.1760    1.0390   -3.6950 ho        1 DBI      0.493000
     24 H5'1        0.8500    2.7910   -2.6210 h1        1 DBI      0.007700
     25 H5'2        2.3610    2.9700   -1.6110 h1        1 DBI      0.007700
     26 H4'         2.1760    0.4720   -1.0110 h1        1 DBI      0.074700
     27 H1'        -1.2420    1.6330    0.5830 h2        1 DBI      0.052700
     28 H7         -0.9950    2.0790    2.8940 ha        1 DBI      0.127000
     29 H111       -1.9780    1.7870    6.2270 hc        1 DBI      0.024033
     30 H112       -0.2440    2.3020    6.2870 hc        1 DBI      0.024033
     31 H113       -1.3420    2.9690    5.0080 hc        1 DBI      0.024033
     32 H101        0.3290    0.2440    7.2310 hc        1 DBI      0.022367
     33 H102       -1.4040   -0.2720    7.1670 hc        1 DBI      0.022367
     34 H103       -0.0860   -1.5120    7.0600 hc        1 DBI      0.022367
     35 H4          0.2520   -2.3720    4.9340 ha        1 DBI      0.125000
     36 H2          0.2740   -1.8350   -0.1310 h5        1 DBI      0.156800
     37 H2'        -1.6800    1.1730   -1.6820 h1        1 DBI      0.019700
     38 HO21       -1.5190   -1.3880   -1.9460 ho        1 DBI      0.506000
     39 H3'         0.0870    0.5760   -3.1280 h1        1 DBI      0.088700
     40 C10        -0.3830   -0.4780    6.7580 c3        1 DBI     -0.029800
     41 O5'         2.5780    1.8310   -3.2690 oh        1 DBI     -0.657800
@<TRIPOS>BOND
     1    1    2 1   
     2    1    3 1   
     3    1    4 1   
     4    1   22 1   
     5    4   21 1   
     6    5    6 1   
     7    5   24 1   
     8    5   25 1   
     9    5   41 1   
    10    6    7 1   
    11    6   21 1   
    12    6   26 1   
    13    7    8 1   
    14    8    9 1   
    15    8   19 1   
    16    8   27 1   
    17    9   10 1   
    18    9   18 1   
    19   10   11 ar  
    20   10   16 ar  
    21   11   12 ar  
    22   11   28 1   
    23   12   13 1   
    24   12   14 ar  
    25   13   29 1   
    26   13   30 1   
    27   13   31 1   
    28   14   15 ar  
    29   14   40 1   
    30   15   16 ar  
    31   15   35 1   
    32   16   17 1   
    33   17   18 2   
    34   18   36 1   
    35   19   20 1   
    36   19   21 1   
    37   19   37 1   
    38   20   38 1   
    39   21   39 1   
    40   23   41 1   
    41   32   40 1   
    42   33   40 1   
    43   34   40 1   
@<TRIPOS>SUBSTRUCTURE
     1 DBI         1 TEMP              0 ****  ****    0 ROOT
