@<TRIPOS>MOLECULE
DBI
   41    37     1     0     0
SMALL
bcc


@<TRIPOS>ATOM
      1 P           1.5280   -3.0600    4.3590 p3        1 DBI      2.509000
      2 O1P         2.8130   -3.5220    3.7160 o         1 DBI     -1.241500
      3 O2P         1.7350   -2.9100    5.8470 os        1 DBI     -1.211000
      4 O3'         1.1010   -1.6680    3.7440 os        1 DBI     -0.719000
      5 O5'         4.2520    0.9220    1.5750 oh        1 DBI     -0.385000
      6 C5'         3.6350   -0.2700    2.0080 c3        1 DBI      0.010000
      7 C4'         2.3040   -0.0200    2.3040 c3        1 DBI     -0.054000
      8 O4'         1.6600    0.8130    1.1920 os        1 DBI     -0.310000
      9 C1'         0.8690   -0.0220    0.5560 c3        1 DBI      0.141000
     10 N1         -0.2730    0.6550    0.0900 n3        1 DBI     -0.183000
     11 C8         -0.9690    0.8040   -1.0640 c1        1 DBI     -0.027000
     12 C7         -1.0460    0.0160   -2.2280 c1        1 DBI     -0.120000
     13 C6         -1.8550    0.4120   -3.2810 c1        1 DBI     -0.098000
     14 C11        -1.8680   -0.4770   -4.5050 c2        1 DBI     -0.157000
     15 C10        -3.5450    2.2000   -4.1870 c3        1 DBI     -0.155000
     16 C5         -2.5880    1.5840   -3.1890 c2        1 DBI     -0.120000
     17 C4         -2.5130    2.3610   -2.0430 c1        1 DBI     -0.092000
     18 C9         -1.6910    1.9580   -0.9730 c1        1 DBI     -0.061000
     19 N3         -1.4370    2.5160    0.2370 n1        1 DBI     -0.209000
     20 C2         -0.5610    1.7120    0.8950 c1        1 DBI      0.050000
     21 C2'         0.4460   -1.1470    1.6240 c3        1 DBI      0.007000
     22 O2'        -0.6540   -0.6610    2.4570 oh        1 DBI     -0.381000
     23 C3'         1.4970   -1.3620    2.3550 c3        1 DBI      0.055000
     24 O3P         0.4430   -4.0780    4.1020 o         1 DBI     -1.241500
     25 HO5         5.1270    0.8750    1.7270 ho        1 DBI      0.292000
     26 H5'1        3.6910   -0.9440    1.2970 h1        1 DBI      0.047000
     27 H5'2        4.0920   -0.6020    2.8100 h1        1 DBI      0.047000
     28 H4'         2.2320    0.4480    3.1590 h1        1 DBI      0.114000
     29 H1'         1.3460   -0.4330   -0.1930 h2        1 DBI      0.092000
     30 H7         -0.5470   -0.8210   -2.2840 ha        1 DBI      0.127000
     31 H111       -1.7090    0.0660   -5.3050 ha        1 DBI      0.063333
     32 H112       -2.7390   -0.9210   -4.5780 ha        1 DBI      0.063333
     33 H113       -1.1630   -1.1540   -4.4240 ha        1 DBI      0.063333
     34 H101       -4.2920    1.5860   -4.3450 hc        1 DBI      0.061667
     35 H102       -3.8870    3.0470   -3.8310 hc        1 DBI      0.061667
     36 H103       -3.0740    2.3660   -5.0300 hc        1 DBI      0.061667
     37 H4         -3.0450    3.1760   -1.9700 ha        1 DBI      0.125000
     38 H2         -0.2060    1.8640    1.7910 DU        1 DBI      0.286000
     39 H2'         0.1830   -1.9680    1.1620 h1        1 DBI      0.059000
     40 HO21       -1.3200   -1.2500    2.4420 ho        1 DBI      0.305000
     41 H3'         2.0280   -2.0930    1.9810 h1        1 DBI      0.128000
@<TRIPOS>BOND
     1    1    2 1   
     2    1    4 1   
     3    1   24 1   
     4    4   23 1   
     5    5    6 1   
     6    5   25 1   
     7    6    7 1   
     8    6   26 1   
     9    6   27 1   
    10    7    8 1   
    11    7   23 1   
    12    7   28 1   
    13    8    9 1   
    14    9   10 1   
    15    9   21 1   
    16    9   29 1   
    17   10   11 1   
    18   10   20 1   
    19   11   18 1   
    20   12   13 1   
    21   12   30 1   
    22   13   16 1   
    23   14   31 1   
    24   14   32 1   
    25   14   33 1   
    26   15   16 1   
    27   15   34 1   
    28   15   35 1   
    29   15   36 1   
    30   16   17 1   
    31   17   37 1   
    32   19   20 1   
    33   21   22 1   
    34   21   23 1   
    35   21   39 1   
    36   22   40 1   
    37   23   41 1   
@<TRIPOS>SUBSTRUCTURE
     1 DBI         1 TEMP              0 ****  ****    0 ROOT
