@<TRIPOS>MOLECULE
DBJ
   22    23     1     0     0
SMALL
bcc


@<TRIPOS>ATOM
      1 O1          0.0180    0.1200   -0.0360 oh        1 DBJ     -0.602800
      2 C2          1.4320   -0.0130   -0.0030 c3        1 DBJ      0.183700
      3 C3          1.8970   -0.0080    1.4140 ca        1 DBJ     -0.076300
      4 C4          3.2800    0.0090    1.6710 ca        1 DBJ      0.051100
      5 O5          4.1370    0.0050    0.5800 os        1 DBJ     -0.321900
      6 C5          5.4790    0.3780    0.9120 c3        1 DBJ      0.091400
      7 C7          5.9440   -0.3150    2.1820 c3        1 DBJ      0.091400
      8 O8          5.1100    0.0300    3.2920 os        1 DBJ     -0.316900
      9 C9          3.7560   -0.0080    2.9940 ca        1 DBJ      0.054100
     10 C10         2.8610   -0.0240    4.0710 ca        1 DBJ     -0.120000
     11 C11         1.4940   -0.0300    3.8080 ca        1 DBJ     -0.134000
     12 C12         1.0160   -0.0290    2.4970 ca        1 DBJ     -0.106000
     13 H1         -0.2260    0.1290   -0.9690 ho        1 DBJ      0.404000
     14 H2          1.9120    0.8390   -0.5600 h1        1 DBJ      0.040200
     15 H3          1.7360   -0.9800   -0.4930 h1        1 DBJ      0.040200
     16 H4          5.5240    1.4920    1.0290 h1        1 DBJ      0.068700
     17 H5          6.0780    0.0510    0.0230 h1        1 DBJ      0.068700
     18 H6          6.9640    0.0340    2.4900 h1        1 DBJ      0.069700
     19 H7          5.9310   -1.4290    2.0530 h1        1 DBJ      0.069700
     20 H8          3.2490   -0.0290    5.0990 ha        1 DBJ      0.150000
     21 H9          0.7810   -0.0410    4.6460 ha        1 DBJ      0.137000
     22 H10        -0.0680   -0.0380    2.3000 ha        1 DBJ      0.158000
@<TRIPOS>BOND
     1    1    2 1   
     2    1   13 1   
     3    2    3 1   
     4    2   14 1   
     5    2   15 1   
     6    3    4 ar  
     7    3   12 ar  
     8    4    5 1   
     9    4    9 ar  
    10    5    6 1   
    11    6    7 1   
    12    6   16 1   
    13    6   17 1   
    14    7    8 1   
    15    7   18 1   
    16    7   19 1   
    17    8    9 1   
    18    9   10 ar  
    19   10   11 ar  
    20   10   20 1   
    21   11   12 ar  
    22   11   21 1   
    23   12   22 1   
@<TRIPOS>SUBSTRUCTURE
     1 DBJ         1 TEMP              0 ****  ****    0 ROOT
