@<TRIPOS>MOLECULE
DBJ
   22    23     1     0     0
SMALL
bcc


@<TRIPOS>ATOM
      1 O1         -3.4670   -0.9300   -0.0770 oh        1 DBJ     -0.602800
      2 C2         -2.1060   -1.3130    0.0620 c3        1 DBJ      0.183700
      3 C3         -1.2420   -0.0980    0.0220 ca        1 DBJ     -0.076300
      4 C4          0.1550   -0.2630    0.0040 ca        1 DBJ      0.051100
      5 O5          0.6500   -1.5580    0.0380 os        1 DBJ     -0.321900
      6 C5          2.0290   -1.6490   -0.3380 c3        1 DBJ      0.091400
      7 C7          2.8510   -0.5560    0.3240 c3        1 DBJ      0.091400
      8 O8          2.3820    0.7420   -0.0530 os        1 DBJ     -0.316900
      9 C9          1.0000    0.8600   -0.0120 ca        1 DBJ      0.054100
     10 C10         0.4650    2.1540   -0.0270 ca        1 DBJ     -0.120000
     11 C11        -0.9190    2.3080   -0.0190 ca        1 DBJ     -0.134000
     12 C12        -1.7630    1.1970    0.0110 ca        1 DBJ     -0.106000
     13 H1         -3.9770   -1.7480   -0.0630 ho        1 DBJ      0.404000
     14 H2         -1.9580   -1.8460    1.0420 h1        1 DBJ      0.040200
     15 H3         -1.8160   -2.0100   -0.7730 h1        1 DBJ      0.040200
     16 H4          2.3390   -2.6670    0.0140 h1        1 DBJ      0.068700
     17 H5          2.1020   -1.5790   -1.4550 h1        1 DBJ      0.068700
     18 H6          2.8060   -0.6460    1.4400 h1        1 DBJ      0.069700
     19 H7          3.9150   -0.5730   -0.0290 h1        1 DBJ      0.069700
     20 H8          1.1400    3.0200   -0.0470 ha        1 DBJ      0.150000
     21 H9         -1.3510    3.3190   -0.0330 ha        1 DBJ      0.137000
     22 H10        -2.8570    1.3300    0.0210 ha        1 DBJ      0.158000
@<TRIPOS>BOND
     1    1    2 1   
     2    1   13 1   
     3    2    3 1   
     4    2   14 1   
     5    2   15 1   
     6    3    4 ar  
     7    3   12 ar  
     8    4    5 1   
     9    4    9 ar  
    10    5    6 1   
    11    6    7 1   
    12    6   16 1   
    13    6   17 1   
    14    7    8 1   
    15    7   18 1   
    16    7   19 1   
    17    8    9 1   
    18    9   10 ar  
    19   10   11 ar  
    20   10   20 1   
    21   11   12 ar  
    22   11   21 1   
    23   12   22 1   
@<TRIPOS>SUBSTRUCTURE
     1 DBJ         1 TEMP              0 ****  ****    0 ROOT
