@<TRIPOS>MOLECULE
DBJ
   22    21     1     0     0
SMALL
bcc


@<TRIPOS>ATOM
      1 O1         -0.2800    1.6250   -2.8790 oh        1 DBJ     -0.324000
      2 C2         -1.2080    1.0100   -2.0040 c3        1 DBJ      0.021000
      3 C3         -0.6390    1.0200   -0.5440 c2        1 DBJ     -0.112000
      4 C4          0.0070   -0.1050   -0.0520 c1        1 DBJ      0.015000
      5 O5          0.3210   -1.2780   -0.8930 o         1 DBJ     -0.202000
      6 C5          1.1030   -2.1880   -0.3750 c3        1 DBJ     -0.060000
      7 C7          0.9610   -2.4440    1.0600 c3        1 DBJ     -0.060000
      8 O8          1.0340   -1.4220    1.8360 os        1 DBJ     -0.199000
      9 C9          0.4440   -0.1460    1.3350 c2        1 DBJ      0.010000
     10 C10         0.2190    0.9270    2.1570 c1        1 DBJ     -0.118000
     11 C11        -0.4400    2.0790    1.6600 c1        1 DBJ     -0.130000
     12 C12        -0.8700    2.1220    0.3010 c2        1 DBJ     -0.124000
     13 H1         -0.5680    1.5730   -3.6790 ho        1 DBJ      0.199000
     14 H2         -1.9770    1.4560   -2.0270 h1        1 DBJ      0.102500
     15 H3         -1.3640    0.0470   -2.2970 h1        1 DBJ      0.102500
     16 H4          0.9520   -3.0260   -0.8480 h1        1 DBJ      0.109500
     17 H5          2.0110   -1.9150   -0.5330 h1        1 DBJ      0.109500
     18 H6          0.0270   -2.8800    1.2100 h1        1 DBJ      0.110000
     19 H7          1.6570   -3.0440    1.3090 h1        1 DBJ      0.110000
     20 H8          0.5060    0.8990    3.0610 ha        1 DBJ      0.151000
     21 H9         -0.5940    2.8150    2.2280 ha        1 DBJ      0.138000
     22 H10        -1.3010    2.8750   -0.0270 ha        1 DBJ      0.149000
@<TRIPOS>BOND
     1    1    2 1   
     2    1   13 1   
     3    2    3 1   
     4    2   14 1   
     5    2   15 1   
     6    3    4 1   
     7    3   12 1   
     8    4    9 1   
     9    5    6 1   
    10    6    7 1   
    11    6   16 1   
    12    6   17 1   
    13    7    8 1   
    14    7   18 1   
    15    7   19 1   
    16    8    9 1   
    17    9   10 1   
    18   10   20 1   
    19   11   12 1   
    20   11   21 1   
    21   12   22 1   
@<TRIPOS>SUBSTRUCTURE
     1 DBJ         1 TEMP              0 ****  ****    0 ROOT
