@<TRIPOS>MOLECULE
DBM
   36    34     1     0     0
SMALL
bcc


@<TRIPOS>ATOM
      1 O5'        -4.0000   -1.5260    1.8190 oh        1 DBM     -0.618800
      2 C5'        -2.6630   -1.3450    2.1490 c3        1 DBM      0.124100
      3 C6'        -2.5340   -1.1500    3.6370 c3        1 DBM     -0.131100
      4 C4'        -2.1050   -0.0910    1.4070 c3        1 DBM      0.093100
      5 O4'        -0.8170   -0.1920    1.2630 os        1 DBM     -0.405600
      6 C1'        -0.4670    0.5050   -0.1200 c3        1 DBM      0.206800
      7 N9          0.7490   -0.0100   -0.6170 n3        1 DBM     -0.124400
      8 C8          1.1700   -1.2790   -0.5640 c1        1 DBM      0.179400
      9 N7          2.4730   -1.3030   -0.9140 ne        1 DBM     -0.380400
     10 C5          2.8520   -0.0560   -1.1800 cg        1 DBM     -0.128000
     11 C4          1.7860    0.7530   -0.9970 c1        1 DBM      0.318500
     12 N3          1.9150    2.1020   -1.1940 n1        1 DBM     -0.486800
     13 C2          3.1570    2.6400   -1.5850 c1        1 DBM      0.370300
     14 N1          4.2280    1.8190   -1.7670 n1        1 DBM     -0.516800
     15 C6          4.1030    0.4930   -1.5740 c1        1 DBM      0.120900
     16 C7          5.5490    0.0060   -1.8490 c3        1 DBM     -0.088000
     17 C2'        -1.4630    0.2100   -0.9480 c3        1 DBM      0.126100
     18 O2'        -1.7180    1.3490   -1.8680 oh        1 DBM     -0.564800
     19 C3'        -2.6760   -0.0140   -0.0400 c3        1 DBM      0.086100
     20 O3'        -3.5520    1.0300   -0.1470 oh        1 DBM     -0.591800
     21 H5'        -4.2320   -2.3740    1.9710 ho        1 DBM      0.415000
     22 H1         -2.1810   -2.0910    1.8960 h1        1 DBM      0.044700
     23 H6'1       -3.0090   -0.3140    3.9040 hc        1 DBM      0.054033
     24 H6'2       -1.5620   -1.0770    3.8840 hc        1 DBM      0.054033
     25 H6'3       -2.9440   -1.9350    4.1150 hc        1 DBM      0.054033
     26 H4'        -2.3290    0.7310    1.9070 h1        1 DBM      0.090700
     27 H1'        -0.3980    1.5070    0.0000 h2        1 DBM      0.135700
     28 H8          0.6760   -1.9980   -0.2870 DU        1 DBM      0.201000
     29 H2          3.2510    3.6110   -1.7260 ha        1 DBM      0.136500
     30 H71         6.1650    0.5450   -1.3610 hc        1 DBM      0.065033
     31 H72         5.7270    0.0750   -2.7510 hc        1 DBM      0.065033
     32 H73         5.6400   -0.9380   -1.5640 hc        1 DBM      0.065033
     33 H2'        -1.2470   -0.6410   -1.4790 h1        1 DBM      0.100700
     34 H3         -2.0930    1.0530   -2.6010 ho        1 DBM      0.427000
     35 H3'        -3.1060   -0.8290   -0.2650 h1        1 DBM      0.076700
     36 H4         -4.3440    0.7340   -0.5550 ho        1 DBM      0.426000
@<TRIPOS>BOND
     1    1    2 1   
     2    1   21 1   
     3    2    3 1   
     4    2    4 1   
     5    2   22 1   
     6    3   23 1   
     7    3   24 1   
     8    3   25 1   
     9    4    5 1   
    10    4   19 1   
    11    4   26 1   
    12    5    6 1   
    13    6    7 1   
    14    6   17 1   
    15    6   27 1   
    16    7    8 2   
    17    7   11 1   
    18    8    9 2   
    19    9   10 1   
    20   10   15 3   
    21   11   12 3   
    22   13   14 3   
    23   13   29 1   
    24   15   16 1   
    25   16   30 1   
    26   16   31 1   
    27   16   32 1   
    28   17   18 1   
    29   17   19 1   
    30   17   33 1   
    31   18   34 1   
    32   19   20 1   
    33   19   35 1   
    34   20   36 1   
@<TRIPOS>SUBSTRUCTURE
     1 DBM         1 TEMP              0 ****  ****    0 ROOT
