@<TRIPOS>MOLECULE
DBM
   36    38     1     0     0
SMALL
bcc


@<TRIPOS>ATOM
      1 O5'         2.1000   -0.5860    2.4110 oh        1 DBM     -0.604800
      2 C5'         1.5880    0.5210    3.1340 c3        1 DBM      0.130100
      3 C6'         1.6460    0.2970    4.6320 c3        1 DBM     -0.136100
      4 C4'         0.1550    0.8780    2.7120 c3        1 DBM      0.069100
      5 O4'         0.2000    1.5290    1.4320 os        1 DBM     -0.401600
      6 C1'        -0.6460    0.8790    0.4790 c3        1 DBM      0.232800
      7 N9          0.1390    0.3050   -0.5870 na        1 DBM     -0.295000
      8 C8          1.5160   -0.0240   -0.6100 cc        1 DBM      0.452700
      9 N7          1.9500   -0.4480   -1.8060 nd        1 DBM     -0.552100
     10 C5          0.8270   -0.4000   -2.6490 ca        1 DBM     -0.157200
     11 C4         -0.3330    0.0830   -1.8930 ca        1 DBM      0.412800
     12 N3         -1.5750    0.2330   -2.4330 nb        1 DBM     -0.708000
     13 C2         -1.6190   -0.1040   -3.7440 ca        1 DBM      0.644900
     14 N1         -0.6150   -0.5600   -4.5520 nb        1 DBM     -0.716000
     15 C6          0.6150   -0.7140   -4.0160 ca        1 DBM      0.512600
     16 C7          1.7580   -1.2070   -4.8350 c3        1 DBM     -0.154400
     17 C2'        -1.5140   -0.1670    1.2540 c3        1 DBM      0.077100
     18 O2'        -2.8020    0.3710    1.4720 oh        1 DBM     -0.597800
     19 C3'        -0.8210   -0.3120    2.6260 c3        1 DBM      0.134100
     20 O3'        -1.7080   -0.3450    3.7150 oh        1 DBM     -0.578800
     21 H5'         1.8060   -1.3940    2.8480 ho        1 DBM      0.405000
     22 H1          2.2640    1.3730    2.8260 h1        1 DBM      0.092700
     23 H6'1        2.6480   -0.1040    4.9170 hc        1 DBM      0.054367
     24 H6'2        1.4760    1.2590    5.1710 hc        1 DBM      0.054367
     25 H6'3        0.8600   -0.4330    4.9470 hc        1 DBM      0.054367
     26 H4'        -0.2440    1.6530    3.4270 h1        1 DBM      0.080700
     27 H1'        -1.3010    1.6940    0.0420 h2        1 DBM      0.108700
     28 H8          2.1260    0.0680    0.3050 h5        1 DBM      0.106800
     29 H2         -2.6100    0.0050   -4.2340 h5        1 DBM      0.054100
     30 H71         2.1740   -2.1320   -4.3630 hc        1 DBM      0.065033
     31 H72         1.4590   -1.4380   -5.8860 hc        1 DBM      0.065033
     32 H73         2.5600   -0.4270   -4.8480 hc        1 DBM      0.065033
     33 H2'        -1.5800   -1.1520    0.7250 h1        1 DBM      0.080700
     34 H3         -3.2900    0.2820    0.6430 ho        1 DBM      0.431000
     35 H3'        -0.2750   -1.2940    2.6770 h1        1 DBM      0.086700
     36 H4         -2.3550    0.3660    3.6030 ho        1 DBM      0.428000
@<TRIPOS>BOND
     1    1    2 1   
     2    1   21 1   
     3    2    3 1   
     4    2    4 1   
     5    2   22 1   
     6    3   23 1   
     7    3   24 1   
     8    3   25 1   
     9    4    5 1   
    10    4   19 1   
    11    4   26 1   
    12    5    6 1   
    13    6    7 1   
    14    6   17 1   
    15    6   27 1   
    16    7    8 1   
    17    7   11 1   
    18    8    9 2   
    19    8   28 1   
    20    9   10 1   
    21   10   11 ar  
    22   10   15 ar  
    23   11   12 ar  
    24   12   13 ar  
    25   13   14 ar  
    26   13   29 1   
    27   14   15 ar  
    28   15   16 1   
    29   16   30 1   
    30   16   31 1   
    31   16   32 1   
    32   17   18 1   
    33   17   19 1   
    34   17   33 1   
    35   18   34 1   
    36   19   20 1   
    37   19   35 1   
    38   20   36 1   
@<TRIPOS>SUBSTRUCTURE
     1 DBM         1 TEMP              0 ****  ****    0 ROOT
