@<TRIPOS>MOLECULE
DBN
   50    45     1     0     0
SMALL
bcc


@<TRIPOS>ATOM
      1 C27        -2.4030   -1.2560   -9.2160 c3        1 DBN     -0.111500
      2 C28        -3.5470   -2.1880   -8.5790 c3        1 DBN     -0.128500
      3 C29         5.2030    2.1800    7.7290 c3        1 DBN     -0.111500
      4 C30         4.1230    1.4060    8.6600 c3        1 DBN     -0.128500
      5 C1          0.1000   -0.2880    2.3850 c2        1 DBN     -0.359000
      6 S2          0.3160   -0.1980    0.8420 ss        1 DBN      0.708000
      7 C3         -0.8800   -0.8980    0.1590 c2        1 DBN     -0.363000
      8 C4         -1.7660   -1.3830    1.2030 c1        1 DBN     -0.142000
      9 C5         -1.1350   -0.9910    2.6180 c1        1 DBN     -0.146000
     10 C6         -1.1350   -0.9410   -1.2430 c2        1 DBN      0.098000
     11 N7         -2.0520    0.0020   -1.5380 n2        1 DBN     -0.151000
     12 C8         -2.2800   -0.0380   -2.8710 c1        1 DBN     -0.050000
     13 C9         -1.4990   -1.0120   -3.3990 c1        1 DBN     -0.041000
     14 N10        -0.7930   -1.5690   -2.3920 n1        1 DBN     -0.224000
     15 C11        -3.0950    0.7460   -3.7140 c1        1 DBN     -0.084000
     16 C12        -3.0960    0.5200   -5.0760 c1        1 DBN     -0.108500
     17 C13        -2.2960   -0.4780   -5.6160 c1        1 DBN     -0.036500
     18 C14        -1.5030   -1.2410   -4.7960 c1        1 DBN     -0.088000
     19 C15         0.9050    0.2430    3.3320 c1        1 DBN      0.007000
     20 C16         1.9970   -0.4910    3.8150 c1        1 DBN     -0.105000
     21 C17         2.7840    0.0250    4.8580 c1        1 DBN     -0.105000
     22 C18         2.4740    1.2800    5.4160 c1        1 DBN     -0.036500
     23 C19         1.3830    2.0110    4.9330 c1        1 DBN     -0.108500
     24 C20         0.5980    1.4950    3.8920 c1        1 DBN     -0.139000
     25 C21        -2.7670   -0.7350   -7.0520 c2        1 DBN      0.063500
     26 N22        -1.9930   -0.3620   -8.0870 n3        1 DBN     -0.290500
     27 N23        -3.5960   -1.6910   -7.3000 n2        1 DBN     -0.192500
     28 C24         3.2490    1.7870    6.5890 c2        1 DBN      0.063500
     29 N25         4.4780    2.3600    6.4050 n3        1 DBN     -0.290500
     30 N26         3.0450    1.2860    7.7730 n2        1 DBN     -0.192500
     31 H271       -1.6680   -1.8130   -9.4060 h1        1 DBN      0.093000
     32 H272       -2.8250   -0.7040   -9.8710 h1        1 DBN      0.093000
     33 H281       -4.3090   -2.2430   -9.1630 h1        1 DBN      0.108000
     34 H282       -3.2980   -3.1150   -8.5050 h1        1 DBN      0.108000
     35 H291        5.3240    3.0660    8.1090 h1        1 DBN      0.093000
     36 H292        5.9510    1.5510    7.5680 h1        1 DBN      0.093000
     37 H301        4.3230    0.5350    9.0480 h1        1 DBN      0.108000
     38 H302        3.9460    1.9690    9.4880 h1        1 DBN      0.108000
     39 H4         -2.5910   -1.8580    1.0660 DU        1 DBN      0.189667
     40 H5         -1.5090   -1.1870    3.4660 DU        1 DBN      0.189667
     41 H10        -0.2290   -2.2340   -2.4650 DU        1 DBN      0.189667
     42 H11        -3.6390    1.4240   -3.3470 ha        1 DBN      0.151000
     43 H12        -3.6690    1.0720   -5.6700 ha        1 DBN      0.151000
     44 H14        -0.9460   -1.9350   -5.1730 ha        1 DBN      0.156000
     45 H16         2.2140   -1.3750    3.4200 ha        1 DBN      0.147000
     46 H17         3.5480   -0.4880    5.1960 ha        1 DBN      0.147000
     47 H19         1.1650    2.8950    5.3270 ha        1 DBN      0.151000
     48 H20        -0.1670    2.0090    3.5540 ha        1 DBN      0.138000
     49 H22        -1.2340    0.0930   -8.0330 hn        1 DBN      0.188000
     50 H25         4.7920    2.7580    5.6580 hn        1 DBN      0.188000
@<TRIPOS>BOND
     1    1    2 1   
     2    1   26 1   
     3    1   31 1   
     4    1   32 1   
     5    2   27 1   
     6    2   33 1   
     7    2   34 1   
     8    3    4 1   
     9    3   29 1   
    10    3   35 1   
    11    3   36 1   
    12    4   30 1   
    13    4   37 1   
    14    4   38 1   
    15    5    6 1   
    16    5    9 1   
    17    5   19 1   
    18    6    7 1   
    19    7    8 1   
    20    7   10 1   
    21    8    9 1   
    22   10   11 1   
    23   10   14 1   
    24   11   12 1   
    25   12   15 1   
    26   13   18 1   
    27   15   42 1   
    28   16   17 1   
    29   16   43 1   
    30   17   25 1   
    31   18   44 1   
    32   19   24 1   
    33   20   21 1   
    34   20   45 1   
    35   21   46 1   
    36   22   23 1   
    37   22   28 1   
    38   23   47 1   
    39   24   48 1   
    40   25   26 1   
    41   25   27 1   
    42   26   49 1   
    43   28   29 1   
    44   28   30 1   
    45   29   50 1   
@<TRIPOS>SUBSTRUCTURE
     1 DBN         1 TEMP              0 ****  ****    0 ROOT
