@<TRIPOS>MOLECULE
DBN
   50    55     1     0     0
SMALL
bcc


@<TRIPOS>ATOM
      1 C27         9.3910   -1.7460    0.4290 c3        1 DBN      0.125800
      2 C28         8.6330   -2.7230   -0.5330 c3        1 DBN      0.075800
      3 C29        -9.6700   -1.1920   -0.6760 c3        1 DBN      0.124800
      4 C30        -9.3960   -1.8840    0.7020 c3        1 DBN      0.074800
      5 C1         -2.1510    1.1880   -0.0180 cc        1 DBN     -0.040100
      6 S2         -0.8090    0.1720    0.0690 ss        1 DBN      0.018200
      7 C3          0.2960    1.4380   -0.0260 cc        1 DBN     -0.155000
      8 C4         -0.3470    2.6630   -0.1190 cd        1 DBN     -0.094000
      9 C5         -1.7640    2.5150   -0.1160 cd        1 DBN     -0.152000
     10 C6          1.7300    1.2710   -0.0050 cc        1 DBN      0.509400
     11 N7          2.6410    2.2710    0.1010 nd        1 DBN     -0.556100
     12 C8          3.8960    1.6410    0.0710 ca        1 DBN      0.084400
     13 C9          3.7170    0.2040   -0.0550 ca        1 DBN     -0.082200
     14 N10         2.3370   -0.0090   -0.0870 na        1 DBN     -0.283300
     15 C11         5.1960    2.1640    0.1370 ca        1 DBN     -0.081000
     16 C12         6.2670    1.2860    0.0840 ca        1 DBN     -0.124000
     17 C13         6.0810   -0.1090   -0.0300 ca        1 DBN     -0.113900
     18 C14         4.8070   -0.6710   -0.1070 ca        1 DBN     -0.090000
     19 C15        -3.5040    0.6880    0.0090 ca        1 DBN      0.003000
     20 C16        -4.5510    1.4280   -0.5600 ca        1 DBN     -0.129500
     21 C17        -5.8560    0.9430   -0.5360 ca        1 DBN     -0.090500
     22 C18        -6.1350   -0.2950    0.0550 ca        1 DBN     -0.121900
     23 C19        -5.0960   -1.0380    0.6320 ca        1 DBN     -0.090500
     24 C20        -3.7930   -0.5500    0.6070 ca        1 DBN     -0.129500
     25 C21         7.2550   -1.0000   -0.0790 ce        1 DBN      0.589800
     26 N22         8.4670   -0.6230    0.6150 nh        1 DBN     -0.806200
     27 N23         7.3170   -2.1300   -0.7560 n2        1 DBN     -0.608900
     28 C24        -7.5110   -0.8180    0.0850 ce        1 DBN      0.583800
     29 N25        -8.4320   -0.4640   -0.9760 nh        1 DBN     -0.805200
     30 N26        -8.0130   -1.5660    1.0470 n2        1 DBN     -0.600900
     31 H271        9.6590   -2.2510    1.3930 h1        1 DBN      0.053200
     32 H272       10.3260   -1.3570   -0.0500 h1        1 DBN      0.053200
     33 H281        8.5180   -3.7420   -0.0850 h1        1 DBN      0.068200
     34 H282        9.1740   -2.8150   -1.5100 h1        1 DBN      0.068200
     35 H292      -10.5030   -0.4480   -0.5930 h1        1 DBN      0.054700
     36 H301      -10.0820   -1.4800    1.4910 h1        1 DBN      0.069700
     37 H302       -9.5260   -2.9950    0.6440 h1        1 DBN      0.069700
     38 H4          0.1620    3.6290   -0.1850 ha        1 DBN      0.179000
     39 H5         -2.4510    3.3630   -0.1730 ha        1 DBN      0.162000
     40 H10         1.8830   -0.8660   -0.2570 hn        1 DBN      0.307700
     41 H11         5.3540    3.2480    0.2250 ha        1 DBN      0.152000
     42 H12         7.2900    1.6930    0.1170 ha        1 DBN      0.150000
     43 H14         4.6640   -1.7560   -0.2100 ha        1 DBN      0.155000
     44 H16        -4.3390    2.4010   -1.0300 ha        1 DBN      0.139000
     45 H17        -6.6660    1.5460   -0.9750 ha        1 DBN      0.153500
     46 H19        -5.3080   -2.0050    1.1140 ha        1 DBN      0.153500
     47 H20        -2.9830   -1.1360    1.0690 ha        1 DBN      0.139000
     48 H22         8.3180   -0.3510    1.5630 hn        1 DBN      0.393800
     49 H25        -8.0650   -0.6210   -1.8900 hn        1 DBN      0.391800
     50 H291       -9.9310   -1.9440   -1.4640 h1        1 DBN      0.054700
@<TRIPOS>BOND
     1    1    2 1   
     2    1   26 1   
     3    1   31 1   
     4    1   32 1   
     5    2   27 1   
     6    2   33 1   
     7    2   34 1   
     8    3    4 1   
     9    3   29 1   
    10    3   35 1   
    11    3   50 1   
    12    4   30 1   
    13    4   36 1   
    14    4   37 1   
    15    5    6 1   
    16    5    9 2   
    17    5   19 1   
    18    6    7 1   
    19    7    8 2   
    20    7   10 1   
    21    8    9 1   
    22    8   38 1   
    23    9   39 1   
    24   10   11 2   
    25   10   14 1   
    26   11   12 1   
    27   12   13 ar  
    28   12   15 ar  
    29   13   14 1   
    30   13   18 ar  
    31   14   40 1   
    32   15   16 ar  
    33   15   41 1   
    34   16   17 ar  
    35   16   42 1   
    36   17   18 ar  
    37   17   25 1   
    38   18   43 1   
    39   19   20 ar  
    40   19   24 ar  
    41   20   21 ar  
    42   20   44 1   
    43   21   22 ar  
    44   21   45 1   
    45   22   23 ar  
    46   22   28 1   
    47   23   24 ar  
    48   23   46 1   
    49   24   47 1   
    50   25   26 1   
    51   25   27 2   
    52   26   48 1   
    53   28   29 1   
    54   28   30 2   
    55   29   49 1   
@<TRIPOS>SUBSTRUCTURE
     1 DBN         1 TEMP              0 ****  ****    0 ROOT
