@<TRIPOS>MOLECULE
DBN
   50    55     1     0     0
SMALL
bcc


@<TRIPOS>ATOM
      1 C27         0.1930    0.2650    0.1520 c3        1 DBN      0.125800
      2 C28         1.7540    0.3820    0.1900 c3        1 DBN      0.075800
      3 C29         8.9750    5.6910   16.2220 c3        1 DBN      0.124800
      4 C30         8.3350    7.0150   15.6830 c3        1 DBN      0.074800
      5 C1          3.8160    2.2010   11.3390 cc        1 DBN     -0.040100
      6 S2          3.7710    2.3960    9.6660 ss        1 DBN      0.018200
      7 C3          2.5990    1.2080    9.4470 cc        1 DBN     -0.155000
      8 C4          2.2180    0.6470   10.6570 cd        1 DBN     -0.094000
      9 C5          2.9250    1.2230   11.7500 cd        1 DBN     -0.152000
     10 C6          2.0550    0.8270    8.1650 cc        1 DBN      0.509400
     11 N7          0.9870    0.0120    7.9710 nd        1 DBN     -0.556100
     12 C8          0.8310   -0.0760    6.5770 ca        1 DBN      0.084400
     13 C9          1.8500    0.7260    5.9200 ca        1 DBN     -0.082200
     14 N10         2.6050    1.3010    6.9460 na        1 DBN     -0.283300
     15 C11        -0.0960   -0.7780    5.7920 ca        1 DBN     -0.081000
     16 C12        -0.0080   -0.6760    4.4130 ca        1 DBN     -0.124000
     17 C13         0.9820    0.1140    3.7860 ca        1 DBN     -0.113900
     18 C14         1.9270    0.8210    4.5270 ca        1 DBN     -0.090000
     19 C15         4.6890    2.9780   12.1850 ca        1 DBN      0.003000
     20 C16         5.0940    2.4880   13.4370 ca        1 DBN     -0.129500
     21 C17         5.9390    3.2370   14.2510 ca        1 DBN     -0.090500
     22 C18         6.3970    4.4900   13.8250 ca        1 DBN     -0.121900
     23 C19         5.9920    4.9900   12.5800 ca        1 DBN     -0.090500
     24 C20         5.1470    4.2390   11.7690 ca        1 DBN     -0.129500
     25 C21         1.0290    0.1910    2.3150 ce        1 DBN      0.589800
     26 N22        -0.1960    0.0680    1.5530 nu        1 DBN     -0.806200
     27 N23         2.1300    0.3250    1.6010 n2        1 DBN     -0.608900
     28 C24         7.2910    5.2900   14.6780 ce        1 DBN      0.583800
     29 N25         8.2010    4.6200   15.5840 nu        1 DBN     -0.805200
     30 N26         7.3060    6.6070   14.7290 n2        1 DBN     -0.600900
     31 H271       -0.1280   -0.6360   -0.4310 h1        1 DBN      0.053200
     32 H272       -0.2730    1.1770   -0.3010 h1        1 DBN      0.053200
     33 H281        2.1110    1.3440   -0.2580 h1        1 DBN      0.068200
     34 H282        2.2280   -0.4720   -0.3590 h1        1 DBN      0.068200
     35 H292       10.0670    5.6390   15.9800 h1        1 DBN      0.054700
     36 H301        7.8640    7.5960   16.5170 h1        1 DBN      0.069700
     37 H302        9.0900    7.6640   15.1700 h1        1 DBN      0.069700
     38 H4          1.4660   -0.1400   10.7670 ha        1 DBN      0.179000
     39 H5          2.7630    0.9230   12.7890 ha        1 DBN      0.162000
     40 H10         3.4290    1.8280    6.8380 hn        1 DBN      0.307700
     41 H11        -0.8700   -1.3960    6.2680 ha        1 DBN      0.152000
     42 H12        -0.7220   -1.2380    3.7910 ha        1 DBN      0.150000
     43 H14         2.7060    1.4230    4.0380 ha        1 DBN      0.155000
     44 H16         4.7410    1.5030   13.7770 ha        1 DBN      0.139000
     45 H17         6.2330    2.8410   15.2360 ha        1 DBN      0.153500
     46 H19         6.3330    5.9820   12.2440 ha        1 DBN      0.153500
     47 H20         4.8270    4.6420   10.7950 ha        1 DBN      0.139000
     48 H22        -0.9290    0.6620    1.8750 hn        1 DBN      0.393800
     49 H25         8.7500    3.9120   15.1450 hn        1 DBN      0.391800
     50 H291        8.8430    5.6060   17.3310 h1        1 DBN      0.054700
@<TRIPOS>BOND
     1    1    2 1   
     2    1   26 1   
     3    1   31 1   
     4    1   32 1   
     5    2   27 1   
     6    2   33 1   
     7    2   34 1   
     8    3    4 1   
     9    3   29 1   
    10    3   35 1   
    11    3   50 1   
    12    4   30 1   
    13    4   36 1   
    14    4   37 1   
    15    5    6 1   
    16    5    9 2   
    17    5   19 1   
    18    6    7 1   
    19    7    8 2   
    20    7   10 1   
    21    8    9 1   
    22    8   38 1   
    23    9   39 1   
    24   10   11 2   
    25   10   14 1   
    26   11   12 1   
    27   12   13 ar  
    28   12   15 ar  
    29   13   14 1   
    30   13   18 ar  
    31   14   40 1   
    32   15   16 ar  
    33   15   41 1   
    34   16   17 ar  
    35   16   42 1   
    36   17   18 ar  
    37   17   25 1   
    38   18   43 1   
    39   19   20 ar  
    40   19   24 ar  
    41   20   21 ar  
    42   20   44 1   
    43   21   22 ar  
    44   21   45 1   
    45   22   23 ar  
    46   22   28 1   
    47   23   24 ar  
    48   23   46 1   
    49   24   47 1   
    50   25   26 1   
    51   25   27 2   
    52   26   48 1   
    53   28   29 1   
    54   28   30 2   
    55   29   49 1   
@<TRIPOS>SUBSTRUCTURE
     1 DBN         1 TEMP              0 ****  ****    0 ROOT
