@<TRIPOS>MOLECULE
DBN
   50    55     1     0     0
SMALL
bcc


@<TRIPOS>ATOM
      1 C27         0.2170    0.2540    0.1460 c3        1 DBN      0.125800
      2 C28         1.7780    0.3720    0.1870 c3        1 DBN      0.075800
      3 C29         8.9560    5.7030   16.2320 c3        1 DBN      0.124800
      4 C30         8.3200    7.0270   15.6870 c3        1 DBN      0.074800
      5 C1          3.8110    2.2080   11.3390 cc        1 DBN     -0.040100
      6 S2          3.7720    2.3990    9.6650 ss        1 DBN      0.018200
      7 C3          2.5990    1.2110    9.4450 cc        1 DBN     -0.155000
      8 C4          2.2130    0.6530   10.6550 cd        1 DBN     -0.094000
      9 C5          2.9170    1.2310   11.7490 cd        1 DBN     -0.152000
     10 C6          2.0580    0.8280    8.1620 cc        1 DBN      0.509400
     11 N7          0.9920    0.0120    7.9660 nd        1 DBN     -0.556100
     12 C8          0.8400   -0.0780    6.5720 ca        1 DBN      0.084400
     13 C9          1.8590    0.7240    5.9170 ca        1 DBN     -0.082200
     14 N10         2.6110    1.3020    6.9440 na        1 DBN     -0.283300
     15 C11        -0.0840   -0.7820    5.7860 ca        1 DBN     -0.081000
     16 C12         0.0060   -0.6820    4.4070 ca        1 DBN     -0.124000
     17 C13         0.9970    0.1080    3.7810 ca        1 DBN     -0.113900
     18 C14         1.9400    0.8180    4.5240 ca        1 DBN     -0.090000
     19 C15         4.6820    2.9860   12.1870 ca        1 DBN      0.003000
     20 C16         5.0810    2.4980   13.4400 ca        1 DBN     -0.129500
     21 C17         5.9250    3.2480   14.2560 ca        1 DBN     -0.090500
     22 C18         6.3860    4.5000   13.8290 ca        1 DBN     -0.121900
     23 C19         5.9850    4.9970   12.5810 ca        1 DBN     -0.090500
     24 C20         5.1420    4.2450   11.7690 ca        1 DBN     -0.129500
     25 C21         1.0480    0.1840    2.3100 ce        1 DBN      0.589800
     26 N22        -0.1750    0.0580    1.5460 nh        1 DBN     -0.806200
     27 N23         2.1500    0.3180    1.5990 n2        1 DBN     -0.608900
     28 C24         7.2770    5.3010   14.6830 ce        1 DBN      0.583800
     29 N25         8.1840    4.6320   15.5940 nh        1 DBN     -0.805200
     30 N26         7.2930    6.6180   14.7310 n2        1 DBN     -0.600900
     31 H271       -0.2480    1.1650   -0.3100 h1        1 DBN      0.053200
     32 H272       -0.1010   -0.6480   -0.4370 h1        1 DBN      0.053200
     33 H281        2.1350    1.3340   -0.2610 h1        1 DBN      0.068200
     34 H282        2.2550   -0.4810   -0.3590 h1        1 DBN      0.068200
     35 H292       10.0490    5.6490   15.9940 h1        1 DBN      0.054700
     36 H301        9.0770    7.6730   15.1760 h1        1 DBN      0.069700
     37 H302        7.8460    7.6100   16.5180 h1        1 DBN      0.069700
     38 H4          1.4600   -0.1330   10.7640 ha        1 DBN      0.179000
     39 H5          2.7510    0.9340   12.7880 ha        1 DBN      0.162000
     40 H10         3.4350    1.8300    6.8380 hn        1 DBN      0.307700
     41 H11        -0.8590   -1.4010    6.2610 ha        1 DBN      0.152000
     42 H12        -0.7060   -1.2460    3.7840 ha        1 DBN      0.150000
     43 H14         2.7190    1.4200    4.0370 ha        1 DBN      0.155000
     44 H16         4.7260    1.5140   13.7810 ha        1 DBN      0.139000
     45 H17         6.2150    2.8540   15.2420 ha        1 DBN      0.153500
     46 H19         6.3290    5.9870   12.2440 ha        1 DBN      0.153500
     47 H20         4.8270    4.6460   10.7930 ha        1 DBN      0.139000
     48 H22        -0.9100    0.6510    1.8650 hn        1 DBN      0.393800
     49 H25         8.7330    3.9220   15.1590 hn        1 DBN      0.391800
     50 H291        8.8200    5.6200   17.3410 h1        1 DBN      0.054700
@<TRIPOS>BOND
     1    1    2 1   
     2    1   26 1   
     3    1   31 1   
     4    1   32 1   
     5    2   27 1   
     6    2   33 1   
     7    2   34 1   
     8    3    4 1   
     9    3   29 1   
    10    3   35 1   
    11    3   50 1   
    12    4   30 1   
    13    4   36 1   
    14    4   37 1   
    15    5    6 1   
    16    5    9 2   
    17    5   19 1   
    18    6    7 1   
    19    7    8 2   
    20    7   10 1   
    21    8    9 1   
    22    8   38 1   
    23    9   39 1   
    24   10   11 2   
    25   10   14 1   
    26   11   12 1   
    27   12   13 ar  
    28   12   15 ar  
    29   13   14 1   
    30   13   18 ar  
    31   14   40 1   
    32   15   16 ar  
    33   15   41 1   
    34   16   17 ar  
    35   16   42 1   
    36   17   18 ar  
    37   17   25 1   
    38   18   43 1   
    39   19   20 ar  
    40   19   24 ar  
    41   20   21 ar  
    42   20   44 1   
    43   21   22 ar  
    44   21   45 1   
    45   22   23 ar  
    46   22   28 1   
    47   23   24 ar  
    48   23   46 1   
    49   24   47 1   
    50   25   26 1   
    51   25   27 2   
    52   26   48 1   
    53   28   29 1   
    54   28   30 2   
    55   29   49 1   
@<TRIPOS>SUBSTRUCTURE
     1 DBN         1 TEMP              0 ****  ****    0 ROOT
