@<TRIPOS>MOLECULE
DBN
   50    55     1     0     0
SMALL
bcc


@<TRIPOS>ATOM
      1 C27         0.1920    0.2630    0.1530 c3        1 DBN      0.125800
      2 C28         1.7540    0.3820    0.1890 c3        1 DBN      0.075800
      3 C29         8.9640    5.7090   16.2220 c3        1 DBN      0.124800
      4 C30         8.3150    7.0300   15.6860 c3        1 DBN      0.074800
      5 C1          3.8210    2.1970   11.3380 cc        1 DBN     -0.040100
      6 S2          3.7710    2.3960    9.6660 ss        1 DBN      0.018200
      7 C3          2.6070    1.2000    9.4460 cc        1 DBN     -0.156000
      8 C4          2.2320    0.6330   10.6550 cd        1 DBN     -0.094000
      9 C5          2.9370    1.2110   11.7490 cd        1 DBN     -0.152000
     10 C6          2.0620    0.8190    8.1640 cc        1 DBN      0.509400
     11 N7          0.9970    0.0010    7.9700 nd        1 DBN     -0.556100
     12 C8          0.8400   -0.0850    6.5760 ca        1 DBN      0.084400
     13 C9          1.8550    0.7210    5.9200 ca        1 DBN     -0.082200
     14 N10         2.6100    1.2970    6.9450 na        1 DBN     -0.283300
     15 C11        -0.0860   -0.7890    5.7910 ca        1 DBN     -0.081000
     16 C12        -0.0000   -0.6850    4.4130 ca        1 DBN     -0.124000
     17 C13         0.9870    0.1080    3.7860 ca        1 DBN     -0.113900
     18 C14         1.9310    0.8170    4.5270 ca        1 DBN     -0.090000
     19 C15         4.6900    2.9780   12.1850 ca        1 DBN      0.003000
     20 C16         5.1000    2.4870   13.4350 ca        1 DBN     -0.129500
     21 C17         5.9410    3.2400   14.2490 ca        1 DBN     -0.090500
     22 C18         6.3910    4.4970   13.8260 ca        1 DBN     -0.121900
     23 C19         5.9800    4.9970   12.5830 ca        1 DBN     -0.090500
     24 C20         5.1390    4.2420   11.7710 ca        1 DBN     -0.129500
     25 C21         1.0320    0.1880    2.3140 ce        1 DBN      0.589800
     26 N22        -0.1940    0.0630    1.5540 nh        1 DBN     -0.806200
     27 N23         2.1310    0.3250    1.5990 n2        1 DBN     -0.608900
     28 C24         7.2810    5.3010   14.6800 ce        1 DBN      0.583800
     29 N25         8.1960    4.6350   15.5830 nh        1 DBN     -0.805200
     30 N26         7.2870    6.6180   14.7330 n2        1 DBN     -0.600900
     31 H271       -0.2750    1.1750   -0.2990 h1        1 DBN      0.053200
     32 H272       -0.1270   -0.6380   -0.4310 h1        1 DBN      0.053200
     33 H281        2.2290   -0.4700   -0.3610 h1        1 DBN      0.068200
     34 H282        2.1080    1.3450   -0.2590 h1        1 DBN      0.068200
     35 H292        8.8330    5.6210   17.3310 h1        1 DBN      0.054700
     36 H301        7.8420    7.6070   16.5210 h1        1 DBN      0.069700
     37 H302        9.0660    7.6850   15.1730 h1        1 DBN      0.069700
     38 H4          1.4850   -0.1590   10.7650 ha        1 DBN      0.179000
     39 H5          2.7790    0.9070   12.7870 ha        1 DBN      0.162000
     40 H10         3.4330    1.8260    6.8370 hn        1 DBN      0.307700
     41 H11        -0.8580   -1.4110    6.2680 ha        1 DBN      0.152000
     42 H12        -0.7140   -1.2490    3.7910 ha        1 DBN      0.150000
     43 H14         2.7070    1.4230    4.0380 ha        1 DBN      0.155000
     44 H16         4.7540    1.4990   13.7730 ha        1 DBN      0.139000
     45 H17         6.2400    2.8430   15.2320 ha        1 DBN      0.153500
     46 H19         6.3140    5.9920   12.2480 ha        1 DBN      0.153500
     47 H20         4.8150    4.6460   10.7990 ha        1 DBN      0.139000
     48 H22        -0.9280    0.6550    1.8780 hn        1 DBN      0.393800
     49 H25         8.7490    3.9310   15.1420 hn        1 DBN      0.391800
     50 H291       10.0560    5.6640   15.9790 h1        1 DBN      0.054700
@<TRIPOS>BOND
     1    1    2 1   
     2    1   26 1   
     3    1   31 1   
     4    1   32 1   
     5    2   27 1   
     6    2   33 1   
     7    2   34 1   
     8    3    4 1   
     9    3   29 1   
    10    3   35 1   
    11    3   50 1   
    12    4   30 1   
    13    4   36 1   
    14    4   37 1   
    15    5    6 1   
    16    5    9 2   
    17    5   19 1   
    18    6    7 1   
    19    7    8 2   
    20    7   10 1   
    21    8    9 1   
    22    8   38 1   
    23    9   39 1   
    24   10   11 2   
    25   10   14 1   
    26   11   12 1   
    27   12   13 ar  
    28   12   15 ar  
    29   13   14 1   
    30   13   18 ar  
    31   14   40 1   
    32   15   16 ar  
    33   15   41 1   
    34   16   17 ar  
    35   16   42 1   
    36   17   18 ar  
    37   17   25 1   
    38   18   43 1   
    39   19   20 ar  
    40   19   24 ar  
    41   20   21 ar  
    42   20   44 1   
    43   21   22 ar  
    44   21   45 1   
    45   22   23 ar  
    46   22   28 1   
    47   23   24 ar  
    48   23   46 1   
    49   24   47 1   
    50   25   26 1   
    51   25   27 2   
    52   26   48 1   
    53   28   29 1   
    54   28   30 2   
    55   29   49 1   
@<TRIPOS>SUBSTRUCTURE
     1 DBN         1 TEMP              0 ****  ****    0 ROOT
