@<TRIPOS>MOLECULE
DBO
   72    76     1     0     0
SMALL
bcc


@<TRIPOS>ATOM
      1 N1         -0.3010    0.7320    0.6400 ny        1 DBO     -0.672800
      2 C3          1.1450    0.4460    0.3440 c3        1 DBO      0.117500
      3 C5          1.8740   -0.1830    1.5660 c3        1 DBO      0.113100
      4 O7          1.5010    0.4620    2.7690 oh        1 DBO     -0.614800
      5 C9          3.4040   -0.0200    1.4430 c3        1 DBO      0.094800
      6 N12         4.1220   -0.6240    2.5960 ny        1 DBO     -0.769000
      7 C14         5.6130   -0.3770    2.5310 c3        1 DBO      0.187100
      8 C17         6.2930   -1.0450    3.6710 ca        1 DBO     -0.204300
      9 C18         6.5040   -0.3430    4.8640 ca        1 DBO     -0.104000
     10 C20         7.1890   -0.9470    5.9230 ca        1 DBO     -0.051300
     11 C21         7.6570   -2.2610    5.7740 ca        1 DBO     -0.072000
     12 C23         7.4460   -2.9590    4.5850 ca        1 DBO     -0.111000
     13 C25         6.7640   -2.3560    3.5300 ca        1 DBO     -0.106000
     14 C27         7.4410   -0.2080    7.1810 c3        1 DBO     -0.073800
     15 C31         1.8350    1.7260   -0.1560 c3        1 DBO     -0.051100
     16 C34         1.0640    2.4200   -1.2220 ca        1 DBO     -0.182300
     17 C35         0.6570    3.7470   -1.0390 ca        1 DBO     -0.124000
     18 C37         0.0090    4.4280   -2.0690 ca        1 DBO     -0.111000
     19 C39        -0.2360    3.7900   -3.2850 ca        1 DBO     -0.089000
     20 C41         0.1670    2.4660   -3.4710 ca        1 DBO     -0.111000
     21 C43         0.8170    1.7830   -2.4460 ca        1 DBO     -0.124000
     22 C45        -1.1150   -0.5000    1.0020 c         1 DBO      0.585700
     23 O46        -0.6420   -1.1630    1.9290 o         1 DBO     -0.532100
     24 C47        -2.3000   -0.7580    0.2050 cc        1 DBO     -0.227600
     25 C48        -2.7660   -2.0490    0.2000 cd        1 DBO      0.125000
     26 C50        -3.7750   -2.5870   -0.6610 ca        1 DBO     -0.226300
     27 C51        -4.0620   -2.0610   -1.9410 ca        1 DBO      0.413900
     28 C52        -5.0130   -2.6530   -2.7800 ca        1 DBO     -0.205300
     29 C54        -5.6960   -3.7850   -2.3400 ca        1 DBO     -0.038000
     30 C56        -5.4300   -4.3240   -1.0760 ca        1 DBO     -0.136000
     31 C58        -4.4770   -3.7440   -0.2520 ca        1 DBO     -0.054000
     32 O60        -3.3160   -1.0090   -2.4790 os        1 DBO     -0.508600
     33 C61        -3.4810    0.1900   -1.7790 ca        1 DBO      0.373900
     34 C62        -2.9460    0.3480   -0.4900 ca        1 DBO     -0.165300
     35 C63        -3.1340    1.5850    0.1520 ca        1 DBO     -0.158000
     36 C65        -3.7850    2.6310   -0.4940 ca        1 DBO     -0.110000
     37 C67        -4.2740    2.4640   -1.7940 ca        1 DBO     -0.087000
     38 C69        -4.1370    1.2390   -2.4390 ca        1 DBO     -0.173300
     39 HN1        -0.3430    1.3950    1.4260 hn        1 DBO      0.479800
     40 H3          1.1520   -0.3200   -0.4900 hx        1 DBO      0.115700
     41 H5          1.6110   -1.2820    1.6000 h1        1 DBO      0.090700
     42 HO7         0.8080   -0.0690    3.1970 ho        1 DBO      0.458000
     43 H91         3.6720    1.0770    1.4270 hx        1 DBO      0.120200
     44 H92         3.7600   -0.5090    0.4930 hx        1 DBO      0.120200
     45 H12         3.9580   -1.6370    2.6290 hn        1 DBO      0.457800
     46 H141        5.7710    0.7400    2.5580 hx        1 DBO      0.108200
     47 H142        5.9790   -0.7800    1.5440 hx        1 DBO      0.108200
     48 H18         6.1520    0.6950    4.9680 ha        1 DBO      0.138000
     49 H21         8.2030   -2.7410    6.6050 ha        1 DBO      0.169000
     50 H23         7.8290   -3.9870    4.4760 ha        1 DBO      0.166000
     51 H25         6.6230   -2.9030    2.5860 ha        1 DBO      0.136000
     52 H271        7.2230   -0.8550    8.0680 hc        1 DBO      0.066700
     53 H272        6.8110    0.7130    7.2500 hc        1 DBO      0.066700
     54 H273        8.5180    0.0990    7.2330 hc        1 DBO      0.066700
     55 H311        2.0140    2.4170    0.7120 hc        1 DBO      0.081700
     56 H312        2.8330    1.4270   -0.5810 hc        1 DBO      0.081700
     57 H35         0.8700    4.2690   -0.0930 ha        1 DBO      0.135000
     58 H37        -0.2960    5.4780   -1.9250 ha        1 DBO      0.162500
     59 H39        -0.7360    4.3340   -4.1040 ha        1 DBO      0.165000
     60 H41        -0.0160    1.9640   -4.4350 ha        1 DBO      0.162500
     61 H43         1.1610    0.7510   -2.6120 ha        1 DBO      0.135000
     62 H48        -2.3140   -2.7740    0.9110 ha        1 DBO      0.158000
     63 H52        -5.2020   -2.2260   -3.7780 ha        1 DBO      0.175000
     64 H54        -6.4490   -4.2580   -2.9940 ha        1 DBO      0.171000
     65 H56        -5.9810   -5.2170   -0.7360 ha        1 DBO      0.170000
     66 H58        -4.2710   -4.1780    0.7400 ha        1 DBO      0.152000
     67 H63        -2.8230    1.7140    1.2000 ha        1 DBO      0.123000
     68 H65        -3.9370    3.5890    0.0280 ha        1 DBO      0.161000
     69 H67        -4.7910    3.2970   -2.2990 ha        1 DBO      0.169000
     70 H69        -4.5370    1.0780   -3.4530 ha        1 DBO      0.176000
     71 H121       -0.7130    1.1890   -0.1960 hn        1 DBO      0.479800
     72 H122        3.7520   -0.2210    3.4690 hn        1 DBO      0.457800
@<TRIPOS>BOND
     1    1    2 1   
     2    1   22 1   
     3    1   39 1   
     4    1   71 1   
     5    2    3 1   
     6    2   15 1   
     7    2   40 1   
     8    3    4 1   
     9    3    5 1   
    10    3   41 1   
    11    4   42 1   
    12    5    6 1   
    13    5   43 1   
    14    5   44 1   
    15    6    7 1   
    16    6   45 1   
    17    6   72 1   
    18    7    8 1   
    19    7   46 1   
    20    7   47 1   
    21    8    9 ar  
    22    8   13 ar  
    23    9   10 ar  
    24    9   48 1   
    25   10   11 ar  
    26   10   14 1   
    27   11   12 ar  
    28   11   49 1   
    29   12   13 ar  
    30   12   50 1   
    31   13   51 1   
    32   14   52 1   
    33   14   53 1   
    34   14   54 1   
    35   15   16 1   
    36   15   55 1   
    37   15   56 1   
    38   16   17 ar  
    39   16   21 ar  
    40   17   18 ar  
    41   17   57 1   
    42   18   19 ar  
    43   18   58 1   
    44   19   20 ar  
    45   19   59 1   
    46   20   21 ar  
    47   20   60 1   
    48   21   61 1   
    49   22   23 2   
    50   22   24 1   
    51   24   25 2   
    52   24   34 1   
    53   25   26 1   
    54   25   62 1   
    55   26   27 ar  
    56   26   31 ar  
    57   27   28 ar  
    58   27   32 1   
    59   28   29 ar  
    60   28   63 1   
    61   29   30 ar  
    62   29   64 1   
    63   30   31 ar  
    64   30   65 1   
    65   31   66 1   
    66   32   33 1   
    67   33   34 ar  
    68   33   38 ar  
    69   34   35 ar  
    70   35   36 ar  
    71   35   67 1   
    72   36   37 ar  
    73   36   68 1   
    74   37   38 ar  
    75   37   69 1   
    76   38   70 1   
@<TRIPOS>SUBSTRUCTURE
     1 DBO         1 TEMP              0 ****  ****    0 ROOT
