@<TRIPOS>MOLECULE
DBO
   70    65     1     0     0
SMALL
bcc


@<TRIPOS>ATOM
      1 N1         -0.8620    1.2860   -1.2070 n         1 DBO     -0.363000
      2 C3          0.5640    1.2660   -1.1880 c3        1 DBO      0.036000
      3 C5          1.0480    1.2470    0.2450 c3        1 DBO      0.006000
      4 O7          1.2000    2.5660    0.7060 oh        1 DBO     -0.340000
      5 C9          2.3840    0.5280    0.3200 c3        1 DBO     -0.112000
      6 N12         2.7010    0.2380    1.7060 n3        1 DBO     -0.310000
      7 C14         3.8860   -0.5920    1.7660 c3        1 DBO     -0.034000
      8 C17         4.1630   -0.9840    3.2230 c2        1 DBO     -0.080000
      9 C18         5.1760   -0.3510    3.9300 c2        1 DBO     -0.114000
     10 C20         5.5090   -0.7860    5.2050 c1        1 DBO     -0.068000
     11 C21         4.8290   -1.8570    5.7750 c1        1 DBO     -0.126125
     12 C23         3.8160   -2.4910    5.0700 c1        1 DBO     -0.126125
     13 C25         3.4820   -2.0570    3.7950 c1        1 DBO     -0.133000
     14 C27         6.6220   -0.0970    5.9750 c3        1 DBO     -0.180000
     15 C31         1.1020    2.5120   -1.8950 c3        1 DBO     -0.131000
     16 C34         1.4660    2.1560   -3.3690 c2        1 DBO     -0.068000
     17 C35         0.7370    2.7160   -4.4190 c2        1 DBO     -0.125000
     18 C37         1.1510    2.5260   -5.7330 c1        1 DBO     -0.129000
     19 C39         2.2950    1.7770   -6.0020 c1        1 DBO     -0.126125
     20 C41         3.0250    1.2170   -4.9540 c1        1 DBO     -0.126125
     21 C43         2.6120    1.4060   -3.6400 c1        1 DBO     -0.126000
     22 C45        -1.5950    0.0650   -1.4220 c2        1 DBO      0.336000
     23 O46        -1.1180   -0.8140   -2.1110 o         1 DBO     -0.353000
     24 C47        -3.0350   -0.0840   -0.8620 c2        1 DBO     -0.077000
     25 C48        -3.2600   -0.7490    0.4890 c1        1 DBO     -0.080000
     26 C50        -3.9410   -2.1360    0.5650 c1        1 DBO     -0.074000
     27 C51        -5.1260   -2.1460   -0.1450 c2        1 DBO      0.077000
     28 C52        -6.1340   -3.0760    0.1810 c1        1 DBO     -0.137000
     29 C54        -5.9350   -3.9800    1.2120 c1        1 DBO     -0.126125
     30 C56        -4.7390   -3.9700    1.9280 c1        1 DBO     -0.126125
     31 C58        -3.7420   -3.0520    1.6080 c1        1 DBO     -0.102000
     32 O60        -4.9320   -1.6530   -1.4710 os        1 DBO     -0.166000
     33 C61        -5.3200   -0.2870   -1.5710 c2        1 DBO      0.071000
     34 C62        -4.2160    0.5390   -1.6150 c2        1 DBO     -0.047000
     35 C63        -4.2760    1.7550   -2.3240 c1        1 DBO     -0.094000
     36 C65        -5.4490    2.1240   -2.9780 c1        1 DBO     -0.126125
     37 C67        -6.5610    1.2920   -2.9330 c1        1 DBO     -0.126125
     38 C69        -6.5040    0.0870   -2.2320 c1        1 DBO     -0.138000
     39 HN1        -1.3080    2.0570   -1.0220 hn        1 DBO      0.232000
     40 H3          0.8820    0.4700   -1.6470 h1        1 DBO      0.125000
     41 H5          0.3940    0.7790    0.8050 h1        1 DBO      0.089000
     42 HO7         1.0450    2.5940    1.5820 ho        1 DBO      0.220000
     43 H91         3.0830    1.0970   -0.0630 h1        1 DBO      0.083000
     44 H92         2.3330   -0.3090   -0.1840 h1        1 DBO      0.083000
     45 H12         2.0010   -0.2020    2.0940 hn        1 DBO      0.161000
     46 H141        3.7450   -1.4010    1.2320 h1        1 DBO      0.079000
     47 H142        4.6520   -0.0950    1.4100 h1        1 DBO      0.079000
     48 H18         5.6530    0.4000    3.5320 ha        1 DBO      0.135000
     49 H21         5.0630   -2.1620    6.6690 ha        1 DBO      0.134375
     50 H23         3.3410   -3.2380    5.4680 ha        1 DBO      0.134375
     51 H25         2.7720   -2.5030    3.3010 ha        1 DBO      0.130000
     52 H271        7.4100    0.0110    5.3900 hc        1 DBO      0.084333
     53 H272        6.3170    0.7800    6.2730 hc        1 DBO      0.084333
     54 H273        6.8650   -0.6410    6.7560 hc        1 DBO      0.084333
     55 H311        0.4180    3.2140   -1.8870 hc        1 DBO      0.103000
     56 H312        1.9040    2.8320   -1.4290 hc        1 DBO      0.103000
     57 H35        -0.0620    3.2400   -4.2320 ha        1 DBO      0.131000
     58 H37         0.6410    2.9180   -6.4660 ha        1 DBO      0.131000
     59 H39         2.5870    1.6430   -6.9280 ha        1 DBO      0.134375
     60 H41         3.8220    0.6940   -5.1430 ha        1 DBO      0.134375
     61 H43         3.1210    1.0150   -2.9100 ha        1 DBO      0.131000
     62 H48        -2.9300   -0.3220    1.3050 ha        1 DBO      0.138000
     63 H52        -6.9700   -3.0840   -0.3190 ha        1 DBO      0.150000
     64 H54        -6.6350   -4.6260    1.4370 ha        1 DBO      0.134375
     65 H56        -4.5990   -4.6100    2.6570 ha        1 DBO      0.134375
     66 H58        -2.9020   -3.0450    2.1110 ha        1 DBO      0.136000
     67 H63        -3.4980    2.3380   -2.3560 ha        1 DBO      0.149000
     68 H65        -5.4890    2.9630   -3.4670 ha        1 DBO      0.134375
     69 H67        -7.3880    1.5530   -3.3960 ha        1 DBO      0.134375
     70 H69        -7.2890   -0.5000   -2.2010 ha        1 DBO      0.148000
@<TRIPOS>BOND
     1    1    2 1   
     2    1   22 1   
     3    1   39 1   
     4    2    3 1   
     5    2   15 1   
     6    2   40 1   
     7    3    4 1   
     8    3    5 1   
     9    3   41 1   
    10    4   42 1   
    11    5    6 1   
    12    5   43 1   
    13    5   44 1   
    14    6    7 1   
    15    6   45 1   
    16    7    8 1   
    17    7   46 1   
    18    7   47 1   
    19    8    9 1   
    20    8   13 1   
    21    9   10 1   
    22    9   48 1   
    23   10   14 1   
    24   11   12 1   
    25   11   49 1   
    26   12   50 1   
    27   13   51 1   
    28   14   52 1   
    29   14   53 1   
    30   14   54 1   
    31   15   16 1   
    32   15   55 1   
    33   15   56 1   
    34   16   17 1   
    35   16   21 1   
    36   17   18 1   
    37   17   57 1   
    38   18   58 1   
    39   19   20 1   
    40   19   59 1   
    41   20   60 1   
    42   21   61 1   
    43   22   23 1   
    44   22   24 1   
    45   24   25 1   
    46   24   34 1   
    47   25   62 1   
    48   26   27 1   
    49   26   31 1   
    50   27   28 1   
    51   27   32 1   
    52   28   63 1   
    53   29   30 1   
    54   29   64 1   
    55   30   65 1   
    56   31   66 1   
    57   32   33 1   
    58   33   34 1   
    59   33   38 1   
    60   34   35 1   
    61   35   67 1   
    62   36   37 1   
    63   36   68 1   
    64   37   69 1   
    65   38   70 1   
@<TRIPOS>SUBSTRUCTURE
     1 DBO         1 TEMP              0 ****  ****    0 ROOT
