@<TRIPOS>MOLECULE
DBO
   70    74     1     0     0
SMALL
bcc


@<TRIPOS>ATOM
      1 N1         -0.5590   -0.9820   -0.4270 n         1 DBO     -0.540900
      2 C3          0.6810   -1.7050   -0.6090 c3        1 DBO      0.083700
      3 C5          1.9170   -0.7650   -0.5610 c3        1 DBO      0.062100
      4 O7          1.8980    0.1960   -1.6010 oh        1 DBO     -0.598800
      5 C9          3.2330   -1.5640   -0.5650 c3        1 DBO      0.134800
      6 N12         4.4340   -0.7950   -0.3450 n3        1 DBO     -0.815200
      7 C14         4.6960   -0.4870    1.0520 c3        1 DBO      0.200100
      8 C17         5.7380    0.5750    1.2430 ca        1 DBO     -0.092300
      9 C18         6.9880    0.4580    0.6300 ca        1 DBO     -0.112000
     10 C20         7.9720    1.4310    0.8320 ca        1 DBO     -0.081300
     11 C21         7.6940    2.5270    1.6580 ca        1 DBO     -0.128000
     12 C23         6.4480    2.6450    2.2710 ca        1 DBO     -0.129000
     13 C25         5.4690    1.6750    2.0640 ca        1 DBO     -0.126000
     14 C27         9.3010    1.2960    0.1920 c3        1 DBO     -0.052800
     15 C31         0.6700   -2.5300   -1.9070 c3        1 DBO     -0.047100
     16 C34        -0.4810   -3.4700   -1.9740 ca        1 DBO     -0.080300
     17 C35        -1.6330   -3.1310   -2.6930 ca        1 DBO     -0.122500
     18 C37        -2.7050   -4.0190   -2.7620 ca        1 DBO     -0.124500
     19 C39        -2.6360   -5.2510   -2.1130 ca        1 DBO     -0.127000
     20 C41        -1.4910   -5.5940   -1.3940 ca        1 DBO     -0.124500
     21 C43        -0.4170   -4.7080   -1.3240 ca        1 DBO     -0.122500
     22 C45        -0.8630   -0.3790    0.7780 c         1 DBO      0.665700
     23 O46        -0.1930   -0.6070    1.8080 o         1 DBO     -0.618100
     24 C47        -2.0780    0.5030    0.8130 cc        1 DBO     -0.124600
     25 C48        -2.8860    0.3850    1.8870 cd        1 DBO     -0.038000
     26 C50        -4.1140    1.1120    2.1320 ca        1 DBO     -0.143300
     27 C51        -4.9540    1.5650    1.0990 ca        1 DBO      0.374900
     28 C52        -6.1480    2.2470    1.3710 ca        1 DBO     -0.203300
     29 C54        -6.5160    2.4720    2.6940 ca        1 DBO     -0.106000
     30 C56        -5.6960    2.0290    3.7350 ca        1 DBO     -0.141000
     31 C58        -4.5130    1.3530    3.4580 ca        1 DBO     -0.096000
     32 O60        -4.7000    1.2600   -0.2400 os        1 DBO     -0.510600
     33 C61        -3.5270    1.8370   -0.7350 ca        1 DBO      0.364900
     34 C62        -2.2550    1.4410   -0.2850 ca        1 DBO     -0.126300
     35 C63        -1.1340    2.0070   -0.9190 ca        1 DBO     -0.112000
     36 C65        -1.2840    2.9200   -1.9580 ca        1 DBO     -0.135000
     37 C67        -2.5570    3.2930   -2.3940 ca        1 DBO     -0.115000
     38 C69        -3.6850    2.7590   -1.7800 ca        1 DBO     -0.201300
     39 HN1        -1.0250   -0.6720   -1.2480 hn        1 DBO      0.318500
     40 H3          0.7830   -2.4140    0.2690 h1        1 DBO      0.084700
     41 H5          1.8470   -0.1410    0.3810 h1        1 DBO      0.099700
     42 HO7         2.0660   -0.2680   -2.4300 ho        1 DBO      0.397000
     43 H91         3.3570   -2.0500   -1.5760 h1        1 DBO      0.057200
     44 H92         3.1590   -2.3750    0.2110 h1        1 DBO      0.057200
     45 H12         4.4110    0.0470   -0.8940 hn        1 DBO      0.371800
     46 H141        5.0660   -1.4400    1.5340 h1        1 DBO      0.043200
     47 H142        3.7560   -0.1820    1.6010 h1        1 DBO      0.043200
     48 H18         7.1990   -0.4080   -0.0180 ha        1 DBO      0.144000
     49 H21         8.4630    3.2970    1.8210 ha        1 DBO      0.130000
     50 H23         6.2350    3.5080    2.9180 ha        1 DBO      0.131000
     51 H25         4.4860    1.7750    2.5490 ha        1 DBO      0.134000
     52 H271       10.0040    0.7640    0.8820 hc        1 DBO      0.043700
     53 H272        9.2320    0.7100   -0.7570 hc        1 DBO      0.043700
     54 H273        9.7350    2.2990   -0.0420 hc        1 DBO      0.043700
     55 H311        0.6510   -1.8410   -2.7940 hc        1 DBO      0.054700
     56 H312        1.6280   -3.1140   -1.9480 hc        1 DBO      0.054700
     57 H35        -1.6930   -2.1590   -3.2050 ha        1 DBO      0.129500
     58 H37        -3.6080   -3.7440   -3.3260 ha        1 DBO      0.132500
     59 H39        -3.4830   -5.9500   -2.1660 ha        1 DBO      0.132000
     60 H41        -1.4350   -6.5650   -0.8790 ha        1 DBO      0.132500
     61 H43         0.4830   -4.9800   -0.7530 ha        1 DBO      0.129500
     62 H48        -2.5950   -0.3230    2.6890 ha        1 DBO      0.155000
     63 H52        -6.7840    2.5810    0.5380 ha        1 DBO      0.150000
     64 H54        -7.4550    3.0000    2.9190 ha        1 DBO      0.138000
     65 H56        -5.9900    2.2130    4.7790 ha        1 DBO      0.138000
     66 H58        -3.8720    1.0040    4.2830 ha        1 DBO      0.142000
     67 H63        -0.1180    1.7300   -0.5880 ha        1 DBO      0.155000
     68 H65        -0.3910    3.3490   -2.4370 ha        1 DBO      0.141000
     69 H67        -2.6690    4.0110   -3.2200 ha        1 DBO      0.138000
     70 H69        -4.6970    3.0380   -2.1070 ha        1 DBO      0.149000
@<TRIPOS>BOND
     1    1    2 1   
     2    1   22 1   
     3    1   39 1   
     4    2    3 1   
     5    2   15 1   
     6    2   40 1   
     7    3    4 1   
     8    3    5 1   
     9    3   41 1   
    10    4   42 1   
    11    5    6 1   
    12    5   43 1   
    13    5   44 1   
    14    6    7 1   
    15    6   45 1   
    16    7    8 1   
    17    7   46 1   
    18    7   47 1   
    19    8    9 ar  
    20    8   13 ar  
    21    9   10 ar  
    22    9   48 1   
    23   10   11 ar  
    24   10   14 1   
    25   11   12 ar  
    26   11   49 1   
    27   12   13 ar  
    28   12   50 1   
    29   13   51 1   
    30   14   52 1   
    31   14   53 1   
    32   14   54 1   
    33   15   16 1   
    34   15   55 1   
    35   15   56 1   
    36   16   17 ar  
    37   16   21 ar  
    38   17   18 ar  
    39   17   57 1   
    40   18   19 ar  
    41   18   58 1   
    42   19   20 ar  
    43   19   59 1   
    44   20   21 ar  
    45   20   60 1   
    46   21   61 1   
    47   22   23 2   
    48   22   24 1   
    49   24   25 2   
    50   24   34 1   
    51   25   26 1   
    52   25   62 1   
    53   26   27 ar  
    54   26   31 ar  
    55   27   28 ar  
    56   27   32 1   
    57   28   29 ar  
    58   28   63 1   
    59   29   30 ar  
    60   29   64 1   
    61   30   31 ar  
    62   30   65 1   
    63   31   66 1   
    64   32   33 1   
    65   33   34 ar  
    66   33   38 ar  
    67   34   35 ar  
    68   35   36 ar  
    69   35   67 1   
    70   36   37 ar  
    71   36   68 1   
    72   37   38 ar  
    73   37   69 1   
    74   38   70 1   
@<TRIPOS>SUBSTRUCTURE
     1 DBO         1 TEMP              0 ****  ****    0 ROOT
