@<TRIPOS>MOLECULE
DBO
   72    76     1     0     0
SMALL
bcc


@<TRIPOS>ATOM
      1 N1         -0.3020    0.7290    0.6350 n4        1 DBO     -0.672800
      2 C3          1.1440    0.4420    0.3380 c3        1 DBO      0.117500
      3 C5          1.8770   -0.1760    1.5630 c3        1 DBO      0.113100
      4 O7          1.5060    0.4790    2.7620 oh        1 DBO     -0.614800
      5 C9          3.4070   -0.0130    1.4350 c3        1 DBO      0.094800
      6 N12         4.1290   -0.6060    2.5910 n4        1 DBO     -0.769000
      7 C14         5.6180   -0.3570    2.5210 c3        1 DBO      0.187100
      8 C17         6.3010   -1.0140    3.6650 ca        1 DBO     -0.204300
      9 C18         6.5130   -0.3020    4.8520 ca        1 DBO     -0.104000
     10 C20         7.2020   -0.8950    5.9150 ca        1 DBO     -0.051300
     11 C21         7.6730   -2.2090    5.7770 ca        1 DBO     -0.072000
     12 C23         7.4620   -2.9170    4.5940 ca        1 DBO     -0.111000
     13 C25         6.7770   -2.3250    3.5350 ca        1 DBO     -0.106000
     14 C27         7.4530   -0.1450    7.1660 c3        1 DBO     -0.073800
     15 C31         1.8320    1.7180   -0.1760 c3        1 DBO     -0.051100
     16 C34         1.0580    2.4020   -1.2450 ca        1 DBO     -0.182300
     17 C35         0.6510    3.7310   -1.0730 ca        1 DBO     -0.124000
     18 C37        -0.0010    4.4020   -2.1070 ca        1 DBO     -0.111000
     19 C39        -0.2490    3.7530   -3.3170 ca        1 DBO     -0.089000
     20 C41         0.1540    2.4270   -3.4920 ca        1 DBO     -0.111000
     21 C43         0.8080    1.7540   -2.4620 ca        1 DBO     -0.124000
     22 C45        -1.1130   -0.5000    1.0100 c         1 DBO      0.585700
     23 O46        -0.6370   -1.1550    1.9410 o         1 DBO     -0.532100
     24 C47        -2.3000   -0.7650    0.2190 cc        1 DBO     -0.227600
     25 C48        -2.7660   -2.0570    0.2270 cd        1 DBO      0.125000
     26 C50        -3.7770   -2.6030   -0.6260 ca        1 DBO     -0.226300
     27 C51        -4.0690   -2.0880   -1.9090 ca        1 DBO      0.413900
     28 C52        -5.0230   -2.6880   -2.7390 ca        1 DBO     -0.205300
     29 C54        -5.7040   -3.8170   -2.2880 ca        1 DBO     -0.038000
     30 C56        -5.4330   -4.3440   -1.0200 ca        1 DBO     -0.136000
     31 C58        -4.4770   -3.7560   -0.2040 ca        1 DBO     -0.054000
     32 O60        -3.3250   -1.0410   -2.4590 os        1 DBO     -0.508600
     33 C61        -3.4880    0.1640   -1.7690 ca        1 DBO      0.373900
     34 C62        -2.9490    0.3340   -0.4830 ca        1 DBO     -0.165300
     35 C63        -3.1360    1.5770    0.1480 ca        1 DBO     -0.158000
     36 C65        -3.7890    2.6160   -0.5060 ca        1 DBO     -0.110000
     37 C67        -4.2830    2.4380   -1.8020 ca        1 DBO     -0.087000
     38 C69        -4.1460    1.2070   -2.4370 ca        1 DBO     -0.173300
     39 HN1        -0.7160    1.1790   -0.2040 hn        1 DBO      0.479800
     40 H3          1.1500   -0.3320   -0.4900 hx        1 DBO      0.115700
     41 H5          1.6150   -1.2740    1.6070 h1        1 DBO      0.090700
     42 HO7         0.8150   -0.0490    3.1960 ho        1 DBO      0.458000
     43 H91         3.7600   -0.5100    0.4880 hx        1 DBO      0.120200
     44 H92         3.6740    1.0840    1.4080 hx        1 DBO      0.120200
     45 H12         3.9660   -1.6190    2.6330 hn        1 DBO      0.457800
     46 H141        5.7750    0.7590    2.5370 hx        1 DBO      0.108200
     47 H142        5.9830   -0.7690    1.5360 hx        1 DBO      0.108200
     48 H18         6.1580    0.7360    4.9480 ha        1 DBO      0.138000
     49 H21         8.2210   -2.6800    6.6100 ha        1 DBO      0.169000
     50 H23         7.8470   -3.9460    4.4920 ha        1 DBO      0.166000
     51 H25         6.6350   -2.8810    2.5960 ha        1 DBO      0.136000
     52 H271        7.2370   -0.7840    8.0590 hc        1 DBO      0.066700
     53 H272        8.5290    0.1650    7.2140 hc        1 DBO      0.066700
     54 H273        6.8220    0.7750    7.2280 hc        1 DBO      0.066700
     55 H311        2.0130    2.4160    0.6860 hc        1 DBO      0.081700
     56 H312        2.8290    1.4160   -0.6010 hc        1 DBO      0.081700
     57 H35         0.8660    4.2610   -0.1320 ha        1 DBO      0.135000
     58 H37        -0.3050    5.4530   -1.9720 ha        1 DBO      0.162500
     59 H39        -0.7510    4.2900   -4.1390 ha        1 DBO      0.165000
     60 H41        -0.0320    1.9170   -4.4510 ha        1 DBO      0.162500
     61 H43         1.1510    0.7210   -2.6200 ha        1 DBO      0.135000
     62 H48        -2.3110   -2.7750    0.9440 ha        1 DBO      0.158000
     63 H52        -5.2150   -2.2700   -3.7400 ha        1 DBO      0.175000
     64 H54        -6.4590   -4.2960   -2.9340 ha        1 DBO      0.171000
     65 H56        -5.9820   -5.2350   -0.6700 ha        1 DBO      0.170000
     66 H58        -4.2680   -4.1810    0.7910 ha        1 DBO      0.152000
     67 H63        -2.8220    1.7150    1.1940 ha        1 DBO      0.123000
     68 H65        -3.9400    3.5790    0.0080 ha        1 DBO      0.161000
     69 H67        -4.8010    3.2660   -2.3130 ha        1 DBO      0.169000
     70 H69        -4.5500    1.0360   -3.4480 ha        1 DBO      0.176000
     71 H121       -0.3420    1.3990    1.4150 hn        1 DBO      0.479800
     72 H122        3.7600   -0.1960    3.4620 hn        1 DBO      0.457800
@<TRIPOS>BOND
     1    1    2 1   
     2    1   22 1   
     3    1   39 1   
     4    1   71 1   
     5    2    3 1   
     6    2   15 1   
     7    2   40 1   
     8    3    4 1   
     9    3    5 1   
    10    3   41 1   
    11    4   42 1   
    12    5    6 1   
    13    5   43 1   
    14    5   44 1   
    15    6    7 1   
    16    6   45 1   
    17    6   72 1   
    18    7    8 1   
    19    7   46 1   
    20    7   47 1   
    21    8    9 ar  
    22    8   13 ar  
    23    9   10 ar  
    24    9   48 1   
    25   10   11 ar  
    26   10   14 1   
    27   11   12 ar  
    28   11   49 1   
    29   12   13 ar  
    30   12   50 1   
    31   13   51 1   
    32   14   52 1   
    33   14   53 1   
    34   14   54 1   
    35   15   16 1   
    36   15   55 1   
    37   15   56 1   
    38   16   17 ar  
    39   16   21 ar  
    40   17   18 ar  
    41   17   57 1   
    42   18   19 ar  
    43   18   58 1   
    44   19   20 ar  
    45   19   59 1   
    46   20   21 ar  
    47   20   60 1   
    48   21   61 1   
    49   22   23 2   
    50   22   24 1   
    51   24   25 2   
    52   24   34 1   
    53   25   26 1   
    54   25   62 1   
    55   26   27 ar  
    56   26   31 ar  
    57   27   28 ar  
    58   27   32 1   
    59   28   29 ar  
    60   28   63 1   
    61   29   30 ar  
    62   29   64 1   
    63   30   31 ar  
    64   30   65 1   
    65   31   66 1   
    66   32   33 1   
    67   33   34 ar  
    68   33   38 ar  
    69   34   35 ar  
    70   35   36 ar  
    71   35   67 1   
    72   36   37 ar  
    73   36   68 1   
    74   37   38 ar  
    75   37   69 1   
    76   38   70 1   
@<TRIPOS>SUBSTRUCTURE
     1 DBO         1 TEMP              0 ****  ****    0 ROOT
