@<TRIPOS>MOLECULE
DBO
   72    76     1     0     0
SMALL
bcc


@<TRIPOS>ATOM
      1 N1         -0.2960    0.7400    0.6280 n4        1 DBO     -0.672800
      2 C3          1.1460    0.4350    0.3330 c3        1 DBO      0.117500
      3 C5          1.8760   -0.1740    1.5640 c3        1 DBO      0.113100
      4 O7          1.5130    0.5000    2.7550 oh        1 DBO     -0.614800
      5 C9          3.4060   -0.0280    1.4320 c3        1 DBO      0.094800
      6 N12         4.1240   -0.6130    2.5950 n4        1 DBO     -0.769000
      7 C14         5.6170   -0.3810    2.5180 c3        1 DBO      0.187100
      8 C17         6.2950   -1.0300    3.6690 ca        1 DBO     -0.204300
      9 C18         6.5190   -0.3040    4.8460 ca        1 DBO     -0.104000
     10 C20         7.2040   -0.8910    5.9140 ca        1 DBO     -0.051300
     11 C21         7.6580   -2.2130    5.7930 ca        1 DBO     -0.072000
     12 C23         7.4340   -2.9350    4.6210 ca        1 DBO     -0.111000
     13 C25         6.7540   -2.3490    3.5560 ca        1 DBO     -0.106000
     14 C27         7.4690   -0.1260    7.1550 c3        1 DBO     -0.073800
     15 C31         1.8460    1.6970   -0.1980 c3        1 DBO     -0.051100
     16 C34         1.0760    2.3760   -1.2750 ca        1 DBO     -0.182300
     17 C35         0.6820    3.7100   -1.1180 ca        1 DBO     -0.124000
     18 C37         0.0350    4.3750   -2.1600 ca        1 DBO     -0.111000
     19 C39        -0.2210    3.7130   -3.3610 ca        1 DBO     -0.089000
     20 C41         0.1700    2.3810   -3.5210 ca        1 DBO     -0.111000
     21 C43         0.8190    1.7160   -2.4840 ca        1 DBO     -0.124000
     22 C45        -1.1190   -0.4770    1.0200 c         1 DBO      0.585700
     23 O46        -0.6470   -1.1240    1.9600 o         1 DBO     -0.532100
     24 C47        -2.3080   -0.7420    0.2330 cc        1 DBO     -0.227600
     25 C48        -2.7850   -2.0290    0.2580 cd        1 DBO      0.125000
     26 C50        -3.8010   -2.5780   -0.5870 ca        1 DBO     -0.226300
     27 C51        -4.0900   -2.0770   -1.8770 ca        1 DBO      0.413900
     28 C52        -5.0480   -2.6800   -2.6990 ca        1 DBO     -0.205300
     29 C54        -5.7390   -3.7970   -2.2320 ca        1 DBO     -0.038000
     30 C56        -5.4730   -4.3100   -0.9570 ca        1 DBO     -0.136000
     31 C58        -4.5120   -3.7190   -0.1500 ca        1 DBO     -0.054000
     32 O60        -3.3370   -1.0440   -2.4410 os        1 DBO     -0.508600
     33 C61        -3.4880    0.1710   -1.7670 ca        1 DBO      0.373900
     34 C62        -2.9470    0.3530   -0.4840 ca        1 DBO     -0.165300
     35 C63        -3.1230    1.6060    0.1310 ca        1 DBO     -0.158000
     36 C65        -3.7680    2.6420   -0.5360 ca        1 DBO     -0.110000
     37 C67        -4.2630    2.4510   -1.8300 ca        1 DBO     -0.087000
     38 C69        -4.1380    1.2110   -2.4480 ca        1 DBO     -0.173300
     39 HN1        -0.3280    1.4190    1.3990 hn        1 DBO      0.479800
     40 H3          1.1440   -0.3490   -0.4860 hx        1 DBO      0.115700
     41 H5          1.6030   -1.2690    1.6230 h1        1 DBO      0.090700
     42 HO7         0.8170   -0.0150    3.1970 ho        1 DBO      0.458000
     43 H91         3.7540   -0.5400    0.4910 hx        1 DBO      0.120200
     44 H92         3.6850    1.0660    1.3900 hx        1 DBO      0.120200
     45 H12         3.7620   -0.1870    3.4610 hn        1 DBO      0.457800
     46 H141        5.7850    0.7340    2.5190 hx        1 DBO      0.108200
     47 H142        5.9750   -0.8090    1.5380 hx        1 DBO      0.108200
     48 H18         6.1780    0.7400    4.9280 ha        1 DBO      0.138000
     49 H21         8.2030   -2.6790    6.6320 ha        1 DBO      0.169000
     50 H23         7.8060   -3.9690    4.5330 ha        1 DBO      0.166000
     51 H25         6.6020   -2.9160    2.6250 ha        1 DBO      0.136000
     52 H271        8.5490    0.1700    7.1950 hc        1 DBO      0.066700
     53 H272        6.8490    0.8020    7.2050 hc        1 DBO      0.066700
     54 H273        7.2470   -0.7500    8.0570 hc        1 DBO      0.066700
     55 H311        2.0350    2.4050    0.6540 hc        1 DBO      0.081700
     56 H312        2.8400    1.3810   -0.6200 hc        1 DBO      0.081700
     57 H35         0.9040    4.2500   -0.1850 ha        1 DBO      0.135000
     58 H37        -0.2590    5.4300   -2.0370 ha        1 DBO      0.162500
     59 H39        -0.7190    4.2440   -4.1890 ha        1 DBO      0.165000
     60 H41        -0.0220    1.8610   -4.4730 ha        1 DBO      0.162500
     61 H43         1.1520    0.6770   -2.6300 ha        1 DBO      0.135000
     62 H48        -2.3370   -2.7420    0.9840 ha        1 DBO      0.158000
     63 H52        -5.2370   -2.2740   -3.7060 ha        1 DBO      0.175000
     64 H54        -6.4990   -4.2780   -2.8720 ha        1 DBO      0.171000
     65 H56        -6.0300   -5.1900   -0.5960 ha        1 DBO      0.170000
     66 H58        -4.3060   -4.1320    0.8510 ha        1 DBO      0.152000
     67 H63        -2.8070    1.7550    1.1750 ha        1 DBO      0.123000
     68 H65        -3.9090    3.6140   -0.0350 ha        1 DBO      0.161000
     69 H67        -4.7750    3.2770   -2.3520 ha        1 DBO      0.169000
     70 H69        -4.5430    1.0300   -3.4570 ha        1 DBO      0.176000
     71 H121       -0.7070    1.1820   -0.2160 hn        1 DBO      0.479800
     72 H122        3.9510   -1.6240    2.6500 hn        1 DBO      0.457800
@<TRIPOS>BOND
     1    1    2 1   
     2    1   22 1   
     3    1   39 1   
     4    1   71 1   
     5    2    3 1   
     6    2   15 1   
     7    2   40 1   
     8    3    4 1   
     9    3    5 1   
    10    3   41 1   
    11    4   42 1   
    12    5    6 1   
    13    5   43 1   
    14    5   44 1   
    15    6    7 1   
    16    6   45 1   
    17    6   72 1   
    18    7    8 1   
    19    7   46 1   
    20    7   47 1   
    21    8    9 ar  
    22    8   13 ar  
    23    9   10 ar  
    24    9   48 1   
    25   10   11 ar  
    26   10   14 1   
    27   11   12 ar  
    28   11   49 1   
    29   12   13 ar  
    30   12   50 1   
    31   13   51 1   
    32   14   52 1   
    33   14   53 1   
    34   14   54 1   
    35   15   16 1   
    36   15   55 1   
    37   15   56 1   
    38   16   17 ar  
    39   16   21 ar  
    40   17   18 ar  
    41   17   57 1   
    42   18   19 ar  
    43   18   58 1   
    44   19   20 ar  
    45   19   59 1   
    46   20   21 ar  
    47   20   60 1   
    48   21   61 1   
    49   22   23 2   
    50   22   24 1   
    51   24   25 2   
    52   24   34 1   
    53   25   26 1   
    54   25   62 1   
    55   26   27 ar  
    56   26   31 ar  
    57   27   28 ar  
    58   27   32 1   
    59   28   29 ar  
    60   28   63 1   
    61   29   30 ar  
    62   29   64 1   
    63   30   31 ar  
    64   30   65 1   
    65   31   66 1   
    66   32   33 1   
    67   33   34 ar  
    68   33   38 ar  
    69   34   35 ar  
    70   35   36 ar  
    71   35   67 1   
    72   36   37 ar  
    73   36   68 1   
    74   37   38 ar  
    75   37   69 1   
    76   38   70 1   
@<TRIPOS>SUBSTRUCTURE
     1 DBO         1 TEMP              0 ****  ****    0 ROOT
