@<TRIPOS>MOLECULE
DBP
   21    21     1     0     0
SMALL
bcc


@<TRIPOS>ATOM
      1 N          -0.0030   -0.3100   -0.1580 n4        1 DBP     -0.840600
      2 CB          1.3910    0.1930    0.0430 c3        1 DBP      0.156100
      3 CG          1.8460    0.1240    1.4680 ca        1 DBP     -0.149300
      4 CD1         2.0130   -1.1190    2.0920 ca        1 DBP     -0.062000
      5 CE1         2.5150   -1.1910    3.3910 ca        1 DBP     -0.078000
      6 CD2         2.1970    1.3010    2.1380 ca        1 DBP     -0.065000
      7 CE2         2.7230    1.2150    3.4400 ca        1 DBP     -0.050400
      8 CZ          2.8770   -0.0310    4.0760 ca        1 DBP     -0.056000
      9 NE2         3.1400    2.4300    4.1440 n4        1 DBP     -0.708000
     10 HN1        -0.2340   -0.2910   -1.1610 hn        1 DBP      0.472467
     11 HN21       -0.0900   -1.2740    0.1840 hn        1 DBP      0.472467
     12 HB11        1.4280    1.2550   -0.3440 hx        1 DBP      0.133200
     13 HB21        2.0780   -0.4410   -0.5990 hx        1 DBP      0.133200
     14 HD11        1.7720   -2.0550    1.5580 ha        1 DBP      0.170000
     15 HC11        2.6420   -2.1750    3.8830 ha        1 DBP      0.205000
     16 HC21        2.0760    2.2770    1.6360 ha        1 DBP      0.168000
     17 HCZ1        3.2840   -0.1150    5.1010 ha        1 DBP      0.189000
     18 HE21        4.1630    2.5320    4.0760 hn        1 DBP      0.479133
     19 HE22        2.6940    3.2590    3.7320 hn        1 DBP      0.479133
     20 HN3        -0.6780    0.2760    0.3470 hn        1 DBP      0.472467
     21 HE23        2.8770    2.3670    5.1370 hn        1 DBP      0.479133
@<TRIPOS>BOND
     1    1    2 1   
     2    1   10 1   
     3    1   11 1   
     4    1   20 1   
     5    2    3 1   
     6    2   12 1   
     7    2   13 1   
     8    3    4 ar  
     9    3    6 ar  
    10    4    5 ar  
    11    4   14 1   
    12    5    8 ar  
    13    5   15 1   
    14    6    7 ar  
    15    6   16 1   
    16    7    8 ar  
    17    7    9 1   
    18    8   17 1   
    19    9   18 1   
    20    9   19 1   
    21    9   21 1   
@<TRIPOS>SUBSTRUCTURE
     1 DBP         1 TEMP              0 ****  ****    0 ROOT
