@<TRIPOS>MOLECULE
DBP
   19    17     1     0     0
SMALL
bcc


@<TRIPOS>ATOM
      1 N          -2.0500   -0.3140   -2.0370 n3        1 DBP     -0.348000
      2 CB         -0.6240   -0.3140   -2.0370 c3        1 DBP     -0.042000
      3 CG         -0.1190   -0.3140   -0.6110 c2        1 DBP     -0.053000
      4 CD1        -0.1840   -1.4730    0.1470 c2        1 DBP     -0.151000
      5 CE1         0.2770   -1.4730    1.4540 c1        1 DBP     -0.098000
      6 CD2         0.4070    0.8440   -0.0620 c1        1 DBP     -0.187000
      7 CE2         0.8690    0.8440    1.2450 c1        1 DBP      0.051000
      8 CZ          0.8040   -0.3150    2.0030 c1        1 DBP     -0.187000
      9 NE2         1.4340    2.0220    1.7980 n3        1 DBP     -0.326000
     10 HN1        -2.3540    0.5020   -2.3060 hn        1 DBP      0.146500
     11 HN21       -2.3540   -0.9560   -2.6100 hn        1 DBP      0.146500
     12 HB11       -0.2980   -1.1110   -2.4970 h1        1 DBP      0.074000
     13 HB21       -0.2980    0.4830   -2.4970 h1        1 DBP      0.074000
     14 HD11       -0.5550   -2.2890   -0.2400 ha        1 DBP      0.148000
     15 HC11        0.2320   -2.2890    1.9870 ha        1 DBP      0.130000
     16 HC21        0.4530    1.6600   -0.5950 ha        1 DBP      0.130000
     17 HCZ1        1.1300   -0.3150    2.9230 ha        1 DBP      0.131000
     18 HE21        0.9020    2.6250    2.2280 hn        1 DBP      0.181500
     19 HE22        2.3270    2.1860    1.7070 hn        1 DBP      0.181500
@<TRIPOS>BOND
     1    1    2 1   
     2    1   10 1   
     3    1   11 1   
     4    2    3 1   
     5    2   12 1   
     6    2   13 1   
     7    3    4 1   
     8    3    6 1   
     9    4    5 1   
    10    4   14 1   
    11    5   15 1   
    12    6   16 1   
    13    7    8 1   
    14    7    9 1   
    15    8   17 1   
    16    9   18 1   
    17    9   19 1   
@<TRIPOS>SUBSTRUCTURE
     1 DBP         1 TEMP              0 ****  ****    0 ROOT
