@<TRIPOS>MOLECULE
DBP
   20    20     1     0     0
SMALL
bcc


@<TRIPOS>ATOM
      1 N          -0.0170   -0.0320   -0.0260 n4        1 DBP     -0.844600
      2 CB          1.4850    0.0060    0.0150 c3        1 DBP      0.173100
      3 CG          1.9650    0.0050    1.4250 ca        1 DBP     -0.146300
      4 CD1         2.1920   -1.2090    2.0740 ca        1 DBP     -0.159000
      5 CE1         2.6600   -1.1990    3.3910 ca        1 DBP     -0.072000
      6 CD2         2.1940    1.2220    2.0700 ca        1 DBP     -0.197000
      7 CE2         2.6600    1.2410    3.4070 ca        1 DBP      0.195600
      8 CZ          2.8920   -0.0050    4.0550 ca        1 DBP     -0.156000
      9 NE2         2.8110    2.4320    4.0880 nh        1 DBP     -0.840200
     10 HN1        -0.3520   -0.8740    0.4540 hn        1 DBP      0.458133
     11 HN21       -0.3490   -0.0370   -0.9930 hn        1 DBP      0.458133
     12 HB11        1.8630   -0.8990   -0.5420 hx        1 DBP      0.111700
     13 HB21        1.8160    0.9380   -0.5290 hx        1 DBP      0.111700
     14 HD11        2.0330   -2.1660    1.5570 ha        1 DBP      0.138000
     15 HC11        2.8520   -2.1550    3.9060 ha        1 DBP      0.160000
     16 HC21        2.0300    2.1680    1.5320 ha        1 DBP      0.136000
     17 HCZ1        3.2600   -0.0230    5.0940 ha        1 DBP      0.159000
     18 HE21        3.3160    2.4080    4.9430 hn        1 DBP      0.427800
     19 HE22        2.8950    3.2620    3.5520 hn        1 DBP      0.427800
     20 HN3        -0.3960    0.7870    0.4610 hn        1 DBP      0.458133
@<TRIPOS>BOND
     1    1    2 1   
     2    1   10 1   
     3    1   11 1   
     4    1   20 1   
     5    2    3 1   
     6    2   12 1   
     7    2   13 1   
     8    3    4 ar  
     9    3    6 ar  
    10    4    5 ar  
    11    4   14 1   
    12    5    8 ar  
    13    5   15 1   
    14    6    7 ar  
    15    6   16 1   
    16    7    8 ar  
    17    7    9 1   
    18    8   17 1   
    19    9   18 1   
    20    9   19 1   
@<TRIPOS>SUBSTRUCTURE
     1 DBP         1 TEMP              0 ****  ****    0 ROOT
