@<TRIPOS>MOLECULE
DBP
   20    20     1     0     0
SMALL
bcc


@<TRIPOS>ATOM
      1 N          -0.0180   -0.0290   -0.0260 nz        1 DBP     -0.844600
      2 CB          1.4840    0.0120    0.0140 c3        1 DBP      0.173100
      3 CG          1.9650    0.0070    1.4240 ca        1 DBP     -0.146300
      4 CD1         2.1930   -1.2080    2.0700 ca        1 DBP     -0.160000
      5 CE1         2.6620   -1.2020    3.3870 ca        1 DBP     -0.072000
      6 CD2         2.1940    1.2230    2.0720 ca        1 DBP     -0.197000
      7 CE2         2.6610    1.2380    3.4090 ca        1 DBP      0.195600
      8 CZ          2.8930   -0.0100    4.0530 ca        1 DBP     -0.156000
      9 NE2         2.8120    2.4270    4.0930 nv        1 DBP     -0.840200
     10 HN1        -0.3510   -0.0310   -0.9930 hn        1 DBP      0.458133
     11 HN21       -0.3980    0.7880    0.4640 hn        1 DBP      0.458133
     12 HB11        1.8130    0.9460   -0.5280 hx        1 DBP      0.111700
     13 HB21        1.8630   -0.8920   -0.5460 hx        1 DBP      0.111700
     14 HD11        2.0340   -2.1640    1.5500 ha        1 DBP      0.138000
     15 HC11        2.8540   -2.1600    3.8990 ha        1 DBP      0.160000
     16 HC21        2.0290    2.1700    1.5370 ha        1 DBP      0.136000
     17 HCZ1        3.2630   -0.0310    5.0920 ha        1 DBP      0.159000
     18 HE21        2.8950    3.2590    3.5590 hn        1 DBP      0.427800
     19 HE22        3.3170    2.4010    4.9480 hn        1 DBP      0.427800
     20 HN3        -0.3510   -0.8720    0.4520 hn        1 DBP      0.458133
@<TRIPOS>BOND
     1    1    2 1   
     2    1   10 1   
     3    1   11 1   
     4    1   20 1   
     5    2    3 1   
     6    2   12 1   
     7    2   13 1   
     8    3    4 ar  
     9    3    6 ar  
    10    4    5 ar  
    11    4   14 1   
    12    5    8 ar  
    13    5   15 1   
    14    6    7 ar  
    15    6   16 1   
    16    7    8 ar  
    17    7    9 1   
    18    8   17 1   
    19    9   18 1   
    20    9   19 1   
@<TRIPOS>SUBSTRUCTURE
     1 DBP         1 TEMP              0 ****  ****    0 ROOT
