@<TRIPOS>MOLECULE
DBP
   19    19     1     0     0
SMALL
bcc


@<TRIPOS>ATOM
      1 N           1.0970   -0.4810    2.8050 n3        1 DBP     -0.915800
      2 CB          0.1930    0.5180    2.2790 c3        1 DBP      0.201100
      3 CG         -0.1860    0.2960    0.8420 ca        1 DBP     -0.059300
      4 CD1        -1.5350    0.2910    0.4730 ca        1 DBP     -0.169000
      5 CE1        -1.8820    0.1170   -0.8650 ca        1 DBP     -0.096000
      6 CD2         0.8070    0.1260   -0.1200 ca        1 DBP     -0.169000
      7 CE2         0.4630   -0.0480   -1.4810 ca        1 DBP      0.132600
      8 CZ         -0.9050   -0.0570   -1.8380 ca        1 DBP     -0.188000
      9 NE2         1.4590   -0.1270   -2.4630 nh        1 DBP     -0.818200
     10 HN1         0.8040   -1.4030    2.5530 hn        1 DBP      0.350800
     11 HN21        1.1440   -0.4100    3.8020 hn        1 DBP      0.350800
     12 HB11       -0.7550    0.6020    2.8920 h1        1 DBP      0.034700
     13 HB21        0.7210    1.5150    2.3540 h1        1 DBP      0.034700
     14 HD11       -2.3180    0.4260    1.2320 ha        1 DBP      0.130000
     15 HC11       -2.9430    0.1140   -1.1570 ha        1 DBP      0.129000
     16 HC21        1.8640    0.1350    0.1890 ha        1 DBP      0.147000
     17 HCZ1       -1.2020   -0.1910   -2.8890 ha        1 DBP      0.131000
     18 HE21        1.1740   -0.5910   -3.2960 hn        1 DBP      0.387800
     19 HE22        2.3420   -0.4390   -2.1240 hn        1 DBP      0.387800
@<TRIPOS>BOND
     1    1    2 1   
     2    1   10 1   
     3    1   11 1   
     4    2    3 1   
     5    2   12 1   
     6    2   13 1   
     7    3    4 ar  
     8    3    6 ar  
     9    4    5 ar  
    10    4   14 1   
    11    5    8 ar  
    12    5   15 1   
    13    6    7 ar  
    14    6   16 1   
    15    7    8 ar  
    16    7    9 1   
    17    8   17 1   
    18    9   18 1   
    19    9   19 1   
@<TRIPOS>SUBSTRUCTURE
     1 DBP         1 TEMP              0 ****  ****    0 ROOT
