@<TRIPOS>MOLECULE
DBQ
   30    32     1     0     0
SMALL
bcc


@<TRIPOS>ATOM
      1 O1          0.2230    1.3120    0.0560 o         1 DBQ     -0.609500
      2 C5          1.3660    0.8170    0.0820 c         1 DBQ      0.716100
      3 N2          2.1240    0.8100    1.2270 ns        1 DBQ     -0.558900
      4 C6          3.4860    0.3700    1.2480 c3        1 DBQ      0.100000
      5 C7          3.6800   -1.1380    1.1050 c3        1 DBQ     -0.121200
      6 C4          1.9660    0.2150   -1.1390 cc        1 DBQ     -0.082900
      7 N1          1.6370    0.6750   -2.3980 na        1 DBQ     -0.109100
      8 C1          2.2950   -0.0940   -3.3530 cc        1 DBQ     -0.139300
      9 C2          3.0390   -1.0820   -2.6980 cd        1 DBQ     -0.136000
     10 C3          2.8400   -0.9050   -1.2780 cd        1 DBQ     -0.184800
     11 C8          3.3730   -1.7120   -0.2330 cf        1 DBQ      0.264600
     12 C9          3.6250   -3.0630   -0.3990 cc        1 DBQ     -0.133600
     13 N4          3.3430   -3.8420   -1.5440 nc        1 DBQ     -0.449300
     14 C11         3.7030   -5.0980   -1.2330 cd        1 DBQ      0.349800
     15 N5          3.5100   -6.2340   -2.1420 nz        1 DBQ     -0.754600
     16 N3          4.1760   -5.2780    0.1010 ns        1 DBQ     -0.491400
     17 C10         4.2030   -3.9530    0.6650 c         1 DBQ      0.694700
     18 O2          4.6090   -3.7100    1.8000 o         1 DBQ     -0.544500
     19 HN2         1.7160    1.1670    2.0620 hn        1 DBQ      0.345500
     20 H61         4.0630    0.8860    0.4250 h1        1 DBQ      0.072200
     21 H62         3.9360    0.6790    2.2360 h1        1 DBQ      0.072200
     22 H71         3.0750   -1.6900    1.8830 hc        1 DBQ      0.110200
     23 H72         4.7620   -1.3640    1.3450 hc        1 DBQ      0.110200
     24 HN1         0.9960    1.4140   -2.5730 hn        1 DBQ      0.335700
     25 H1          2.1930    0.1180   -4.4200 h4        1 DBQ      0.193000
     26 H2          3.6780   -1.8190   -3.1760 ha        1 DBQ      0.168000
     27 HN51        3.1070   -5.8990   -3.0290 hn        1 DBQ      0.477467
     28 HN52        2.8650   -6.9080   -1.7080 hn        1 DBQ      0.477467
     29 HN3         4.7890   -6.0020    0.3810 hn        1 DBQ      0.348500
     30 H53         4.4140   -6.6840   -2.3240 hn        1 DBQ      0.477467
@<TRIPOS>BOND
     1    1    2 2   
     2    2    3 1   
     3    2    6 1   
     4    3    4 1   
     5    3   19 1   
     6    4    5 1   
     7    4   20 1   
     8    4   21 1   
     9    5   11 1   
    10    5   22 1   
    11    5   23 1   
    12    6    7 1   
    13    6   10 2   
    14    7    8 1   
    15    7   24 1   
    16    8    9 2   
    17    8   25 1   
    18    9   10 1   
    19    9   26 1   
    20   10   11 1   
    21   11   12 2   
    22   12   13 1   
    23   12   17 1   
    24   13   14 2   
    25   14   15 1   
    26   14   16 1   
    27   15   27 1   
    28   15   28 1   
    29   15   30 1   
    30   16   17 1   
    31   16   29 1   
    32   17   18 2   
@<TRIPOS>SUBSTRUCTURE
     1 DBQ         1 TEMP              0 ****  ****    0 ROOT
