@<TRIPOS>MOLECULE
DBQ
   30    32     1     0     0
SMALL
bcc


@<TRIPOS>ATOM
      1 O1          0.1760    1.2650    0.0770 o         1 DBQ     -0.609500
      2 C5          1.3250    0.7860    0.1000 c         1 DBQ      0.716100
      3 N2          2.0830    0.7810    1.2470 n         1 DBQ     -0.558900
      4 C6          3.4510    0.3600    1.2660 c3        1 DBQ      0.100000
      5 C7          3.6670   -1.1430    1.1120 c3        1 DBQ     -0.121200
      6 C4          1.9360    0.2020   -1.1240 cc        1 DBQ     -0.082900
      7 N1          1.6020    0.6680   -2.3800 na        1 DBQ     -0.109100
      8 C1          2.2730   -0.0850   -3.3400 cc        1 DBQ     -0.139300
      9 C2          3.0300   -1.0670   -2.6920 cd        1 DBQ     -0.136000
     10 C3          2.8260   -0.9040   -1.2710 cd        1 DBQ     -0.184800
     11 C8          3.3690   -1.7110   -0.2310 cf        1 DBQ      0.264600
     12 C9          3.6410   -3.0570   -0.4060 cc        1 DBQ     -0.133600
     13 N4          3.3710   -3.8310   -1.5590 nc        1 DBQ     -0.449300
     14 C11         3.7490   -5.0840   -1.2560 cd        1 DBQ      0.349800
     15 N5          3.5730   -6.2160   -2.1740 n4        1 DBQ     -0.754600
     16 N3          4.2230   -5.2680    0.0770 n         1 DBQ     -0.491400
     17 C10         4.2300   -3.9470    0.6510 c         1 DBQ      0.694700
     18 O2          4.6310   -3.7070    1.7880 o         1 DBQ     -0.544500
     19 HN2         1.6690    1.1260    2.0840 hn        1 DBQ      0.345500
     20 H61         4.0210    0.8920    0.4490 h1        1 DBQ      0.072200
     21 H62         3.8950    0.6690    2.2570 h1        1 DBQ      0.072200
     22 H71         3.0690   -1.7090    1.8840 hc        1 DBQ      0.110200
     23 H72         4.7510   -1.3550    1.3510 hc        1 DBQ      0.110200
     24 HN1         0.9500    1.3980   -2.5500 hn        1 DBQ      0.335700
     25 H1          2.1680    0.1340   -4.4050 h4        1 DBQ      0.193000
     26 H2          3.6800   -1.7900   -3.1740 ha        1 DBQ      0.168000
     27 HN51        2.9380   -6.9020   -1.7460 hn        1 DBQ      0.477467
     28 HN52        3.1670   -5.8800   -3.0590 hn        1 DBQ      0.477467
     29 HN3         4.8460   -5.9850    0.3520 hn        1 DBQ      0.348500
     30 H53         4.4840   -6.6520   -2.3590 hn        1 DBQ      0.477467
@<TRIPOS>BOND
     1    1    2 2   
     2    2    3 1   
     3    2    6 1   
     4    3    4 1   
     5    3   19 1   
     6    4    5 1   
     7    4   20 1   
     8    4   21 1   
     9    5   11 1   
    10    5   22 1   
    11    5   23 1   
    12    6    7 1   
    13    6   10 2   
    14    7    8 1   
    15    7   24 1   
    16    8    9 2   
    17    8   25 1   
    18    9   10 1   
    19    9   26 1   
    20   10   11 1   
    21   11   12 2   
    22   12   13 1   
    23   12   17 1   
    24   13   14 2   
    25   14   15 1   
    26   14   16 1   
    27   15   27 1   
    28   15   28 1   
    29   15   30 1   
    30   16   17 1   
    31   16   29 1   
    32   17   18 2   
@<TRIPOS>SUBSTRUCTURE
     1 DBQ         1 TEMP              0 ****  ****    0 ROOT
