@<TRIPOS>MOLECULE
DBQ
   29    24     1     0     0
SMALL
bcc


@<TRIPOS>ATOM
      1 O1         -1.3180    2.4090   -0.6140 o         1 DBQ     -0.406000
      2 C5         -0.1440    2.4380   -0.6550 c1        1 DBQ      0.370000
      3 N2          0.5730    2.4680    0.4060 n2        1 DBQ     -0.371000
      4 C6         -0.0450    2.4370    1.2730 c3        1 DBQ     -0.008000
      5 C7         -1.0250    1.3550    1.1580 c3        1 DBQ     -0.150000
      6 C4          0.4520    1.9080   -1.5100 c2        1 DBQ     -0.112000
      7 N1          0.9850    2.1500   -2.7900 n2        1 DBQ     -0.129000
      8 C1          1.7220    1.0710   -3.1480 c1        1 DBQ     -0.118000
      9 C2          1.6650    0.1560   -2.1200 c1        1 DBQ     -0.156000
     10 C3          0.8690    0.6960   -1.1080 c1        1 DBQ     -0.088000
     11 C8         -0.2190    0.0230    0.2050 c1        1 DBQ      0.072000
     12 C9         -0.3900   -1.2970    0.4450 c1        1 DBQ     -0.115000
     13 N4          0.1840   -2.0110    1.4390 n1        1 DBQ     -0.225000
     14 C11        -0.4300   -3.1290    1.7130 c1        1 DBQ      0.159000
     15 N5          0.2800   -4.2080    2.2410 n2        1 DBQ     -0.306000
     16 N3         -1.5650   -3.3640    0.9320 n         1 DBQ     -0.372000
     17 C10        -1.6300   -2.1720    0.0180 c2        1 DBQ      0.326000
     18 O2         -2.6290   -1.7720   -0.5810 o         1 DBQ     -0.302000
     19 HN2         1.4540    2.6360    0.4180 hn        1 DBQ      0.237000
     20 H61        -0.5200    3.3030    1.3670 h1        1 DBQ      0.087000
     21 H62         0.5230    2.2840    2.0770 h1        1 DBQ      0.087000
     22 H71        -1.2960    1.0070    2.0030 hc        1 DBQ      0.117500
     23 H72        -1.8710    1.7000    0.7020 hc        1 DBQ      0.117500
     24 HN1         0.8530    2.9230   -3.3040 DU        1 DBQ      0.206333
     25 H1          2.2690    0.9710   -4.0210 DU        1 DBQ      0.206333
     26 H2          2.1140   -0.7390   -2.1020 DU        1 DBQ      0.206333
     27 HN51        1.1630   -4.0960    2.5150 hn        1 DBQ      0.208000
     28 HN52       -0.0860   -5.0060    2.2570 hn        1 DBQ      0.208000
     29 HN3        -1.9370   -4.1430    0.7880 hn        1 DBQ      0.252000
@<TRIPOS>BOND
     1    1    2 1   
     2    2    6 1   
     3    3    4 1   
     4    3   19 1   
     5    4    5 1   
     6    4   20 1   
     7    4   21 1   
     8    5   11 1   
     9    5   22 1   
    10    5   23 1   
    11    6    7 1   
    12    6   10 1   
    13    7    8 1   
    14    8    9 1   
    15    9   10 1   
    16   11   12 1   
    17   12   17 1   
    18   13   14 1   
    19   14   16 1   
    20   15   27 1   
    21   15   28 1   
    22   16   17 1   
    23   16   29 1   
    24   17   18 1   
@<TRIPOS>SUBSTRUCTURE
     1 DBQ         1 TEMP              0 ****  ****    0 ROOT
