@<TRIPOS>MOLECULE
DBQ
   30    32     1     0     0
SMALL
bcc


@<TRIPOS>ATOM
      1 O1          0.2300    1.3170    0.0410 o         1 DBQ     -0.609500
      2 C5          1.3720    0.8210    0.0690 c         1 DBQ      0.716100
      3 N2          2.1310    0.8200    1.2140 n         1 DBQ     -0.558900
      4 C6          3.4930    0.3790    1.2370 c3        1 DBQ      0.100000
      5 C7          3.6850   -1.1300    1.1030 c3        1 DBQ     -0.121200
      6 C4          1.9710    0.2110   -1.1480 cc        1 DBQ     -0.082900
      7 N1          1.6420    0.6640   -2.4100 na        1 DBQ     -0.109100
      8 C1          2.2990   -0.1120   -3.3610 cc        1 DBQ     -0.139300
      9 C2          3.0420   -1.0950   -2.7000 cd        1 DBQ     -0.136000
     10 C3          2.8440   -0.9100   -1.2810 cd        1 DBQ     -0.184800
     11 C8          3.3770   -1.7110   -0.2320 cf        1 DBQ      0.264600
     12 C9          3.6270   -3.0640   -0.3890 cc        1 DBQ     -0.133600
     13 N4          3.3440   -3.8500   -1.5300 nc        1 DBQ     -0.449300
     14 C11         3.7030   -5.1040   -1.2120 cd        1 DBQ      0.349800
     15 N5          3.5080   -6.2450   -2.1140 n4        1 DBQ     -0.754600
     16 N3          4.1770   -5.2760    0.1230 n         1 DBQ     -0.491400
     17 C10         4.2050   -3.9490    0.6790 c         1 DBQ      0.694700
     18 O2          4.6110   -3.6990    1.8120 o         1 DBQ     -0.544500
     19 HN2         1.7240    1.1820    2.0470 hn        1 DBQ      0.345500
     20 H61         3.9430    0.6930    2.2230 h1        1 DBQ      0.072200
     21 H62         4.0700    0.8900    0.4110 h1        1 DBQ      0.072200
     22 H71         4.7660   -1.3560    1.3430 hc        1 DBQ      0.110200
     23 H72         3.0800   -1.6770    1.8840 hc        1 DBQ      0.110200
     24 HN1         1.0010    1.4030   -2.5890 hn        1 DBQ      0.335700
     25 H1          2.1960    0.0950   -4.4290 h4        1 DBQ      0.193000
     26 H2          3.6800   -1.8360   -3.1740 ha        1 DBQ      0.168000
     27 HN51        3.1060   -5.9150   -3.0030 hn        1 DBQ      0.477467
     28 HN52        2.8630   -6.9160   -1.6750 hn        1 DBQ      0.477467
     29 HN3         4.7890   -6.0000    0.4070 hn        1 DBQ      0.348500
     30 H53         4.4120   -6.6970   -2.2940 hn        1 DBQ      0.477467
@<TRIPOS>BOND
     1    1    2 2   
     2    2    3 1   
     3    2    6 1   
     4    3    4 1   
     5    3   19 1   
     6    4    5 1   
     7    4   20 1   
     8    4   21 1   
     9    5   11 1   
    10    5   22 1   
    11    5   23 1   
    12    6    7 1   
    13    6   10 2   
    14    7    8 1   
    15    7   24 1   
    16    8    9 2   
    17    8   25 1   
    18    9   10 1   
    19    9   26 1   
    20   10   11 1   
    21   11   12 2   
    22   12   13 1   
    23   12   17 1   
    24   13   14 2   
    25   14   15 1   
    26   14   16 1   
    27   15   27 1   
    28   15   28 1   
    29   15   30 1   
    30   16   17 1   
    31   16   29 1   
    32   17   18 2   
@<TRIPOS>SUBSTRUCTURE
     1 DBQ         1 TEMP              0 ****  ****    0 ROOT
