@<TRIPOS>MOLECULE
DBQ
   29    31     1     0     0
SMALL
bcc


@<TRIPOS>ATOM
      1 O1          3.7570   -0.6850    1.7640 o         1 DBQ     -0.654500
      2 C5          2.9350   -0.7910    0.8280 c         1 DBQ      0.731100
      3 N2          2.5930   -2.0310    0.3350 n         1 DBQ     -0.561900
      4 C6          1.7260   -2.2000   -0.7930 c3        1 DBQ      0.101000
      5 C7          0.2590   -1.8490   -0.5620 c3        1 DBQ     -0.089200
      6 C4          2.3280    0.3900    0.1820 cc        1 DBQ     -0.156900
      7 N1          3.0230    1.5900    0.0740 na        1 DBQ     -0.135100
      8 C1          2.2110    2.5220   -0.5540 cc        1 DBQ     -0.154300
      9 C2          0.9770    1.9230   -0.8460 cd        1 DBQ     -0.149000
     10 C3          1.0340    0.5650   -0.3740 cd        1 DBQ     -0.094800
     11 C8         -0.0370   -0.3970   -0.3980 cf        1 DBQ      0.092600
     12 C9         -1.3420   -0.0290   -0.2600 cc        1 DBQ     -0.013600
     13 N4         -1.8600    1.2840   -0.0600 nc        1 DBQ     -0.625300
     14 C11        -3.1980    1.1570    0.0580 cd        1 DBQ      0.591800
     15 N5         -4.1190    2.2150    0.1550 nh        1 DBQ     -0.863800
     16 N3         -3.6460   -0.2110    0.0110 n         1 DBQ     -0.526400
     17 C10        -2.5010   -1.0030   -0.2630 c         1 DBQ      0.678700
     18 O2         -2.5260   -2.2270   -0.4270 o         1 DBQ     -0.598500
     19 HN2         2.8730   -2.8330    0.8490 hn        1 DBQ      0.325500
     20 H61         1.7770   -3.2830   -1.1040 h1        1 DBQ      0.057200
     21 H62         2.1140   -1.5730   -1.6480 h1        1 DBQ      0.057200
     22 H71        -0.1400   -2.4040    0.3340 hc        1 DBQ      0.083200
     23 H72        -0.3240   -2.2330   -1.4480 hc        1 DBQ      0.083200
     24 HN1         3.9250    1.7420    0.4500 hn        1 DBQ      0.314700
     25 H1          2.5590    3.5370   -0.7520 h4        1 DBQ      0.172000
     26 H2          0.1330    2.3990   -1.3380 ha        1 DBQ      0.174000
     27 HN51       -3.6840    3.0960    0.3380 hn        1 DBQ      0.410300
     28 HN52       -4.8860    2.0250    0.7640 hn        1 DBQ      0.410300
     29 HN3        -4.5740   -0.4850   -0.1770 hn        1 DBQ      0.339500
@<TRIPOS>BOND
     1    1    2 2   
     2    2    3 1   
     3    2    6 1   
     4    3    4 1   
     5    3   19 1   
     6    4    5 1   
     7    4   20 1   
     8    4   21 1   
     9    5   11 1   
    10    5   22 1   
    11    5   23 1   
    12    6    7 1   
    13    6   10 2   
    14    7    8 1   
    15    7   24 1   
    16    8    9 2   
    17    8   25 1   
    18    9   10 1   
    19    9   26 1   
    20   10   11 1   
    21   11   12 2   
    22   12   13 1   
    23   12   17 1   
    24   13   14 2   
    25   14   15 1   
    26   14   16 1   
    27   15   27 1   
    28   15   28 1   
    29   16   17 1   
    30   16   29 1   
    31   17   18 2   
@<TRIPOS>SUBSTRUCTURE
     1 DBQ         1 TEMP              0 ****  ****    0 ROOT
