@<TRIPOS>MOLECULE
DBR
   74    77     1     0     0
SMALL
bcc


@<TRIPOS>ATOM
      1 C1          1.5640    1.2390    1.2130 c3        1 DBR     -0.082400
      2 C2          2.3990    0.9220   -0.0220 c3        1 DBR     -0.059700
      3 C3          3.8360    0.6250    0.3870 c3        1 DBR     -0.082400
      4 C4          1.8130   -0.2910   -0.7360 c3        1 DBR     -0.072733
      5 C5          1.5870    0.0460    2.1620 c3        1 DBR     -0.059700
      6 C6          3.0240   -0.2530    2.5740 c3        1 DBR     -0.082400
      7 C7          0.9900   -1.1760    1.4640 c3        1 DBR     -0.072733
      8 C8          3.8570   -0.5670    1.3360 c3        1 DBR     -0.059700
      9 C9          1.8320   -1.4980    0.2210 c3        1 DBR     -0.108000
     10 C10         3.2770   -1.7960    0.6340 c3        1 DBR     -0.072733
     11 C11         1.2080   -2.6660   -0.5210 c         1 DBR      0.560100
     12 N12         1.3580   -4.0360    0.1670 n4        1 DBR     -0.693800
     13 C13         0.5840   -5.1180   -0.4980 c3        1 DBR      0.099800
     14 C14         0.7560   -6.4860    0.1560 c3        1 DBR     -0.102400
     15 C15        -0.0590   -7.5120   -0.6110 c3        1 DBR     -0.102400
     16 C16         0.1030   -8.8920    0.0260 c3        1 DBR      0.108800
     17 O17         0.5950   -2.6840   -1.5710 o         1 DBR     -0.402100
     18 N31        -0.6270   -9.9760   -0.6330 n3        1 DBR     -1.006800
     19 S33        -0.2430  -11.9130    0.5550 s4        1 DBR      1.645300
     20 O32         1.0160  -12.0500    0.0700 o         1 DBR     -0.418400
     21 O34        -0.5250  -11.3160    1.7440 o         1 DBR     -0.418400
     22 N28        -3.1530  -16.8190   -2.5430 n4        1 DBR     -0.560800
     23 C18        -1.4080  -12.8360   -0.0290 ca        1 DBR     -0.551500
     24 C19        -2.6600  -12.7200    0.5990 ca        1 DBR      0.067000
     25 C20        -3.7370  -13.5470    0.2690 ca        1 DBR     -0.136000
     26 C21        -3.5780  -14.5440   -0.6700 ca        1 DBR      0.002000
     27 C22        -2.3360  -14.7380   -1.3340 ca        1 DBR     -0.059000
     28 C23        -1.2620  -13.8410   -1.0530 ca        1 DBR      0.099000
     29 C24        -0.0530  -13.9670   -1.7940 ca        1 DBR     -0.150000
     30 C25         0.1070  -14.9540   -2.7360 ca        1 DBR     -0.043000
     31 C26        -0.9220  -15.8880   -2.9830 ca        1 DBR     -0.067000
     32 C27        -2.1180  -15.7960   -2.2890 ca        1 DBR     -0.002400
     33 C28        -3.6650  -16.7350   -3.9430 c3        1 DBR      0.083600
     34 C29        -2.6400  -18.1920   -2.2490 c3        1 DBR      0.083600
     35 H11A        1.9830    2.1400    1.7320 hc        1 DBR      0.067867
     36 H12A        0.5100    1.4740    0.9160 hc        1 DBR      0.067867
     37 H2          2.3790    1.7990   -0.7260 hc        1 DBR      0.087033
     38 H31A        4.2770    1.5200    0.8980 hc        1 DBR      0.067867
     39 H32         4.4580    0.4080   -0.5190 hc        1 DBR      0.067867
     40 H41         2.4150   -0.5270   -1.6510 hc        1 DBR      0.052533
     41 H42         0.7590   -0.0800   -1.0540 hc        1 DBR      0.052533
     42 H5          0.9710    0.2760    3.0730 hc        1 DBR      0.087033
     43 H61         3.0510   -1.1150    3.2880 hc        1 DBR      0.067867
     44 H62         3.4570    0.6380    3.1000 hc        1 DBR      0.067867
     45 H71         0.9920   -2.0420    2.1730 hc        1 DBR      0.052533
     46 H72        -0.0670   -0.9570    1.1640 hc        1 DBR      0.052533
     47 H8          4.9160   -0.7920    1.6380 hc        1 DBR      0.087033
     48 H101        3.8930   -2.0390   -0.2690 hc        1 DBR      0.052533
     49 H102        3.3190   -2.6600    1.3460 hc        1 DBR      0.052533
     50 H12         1.0550   -3.9340    1.1420 hn        1 DBR      0.457800
     51 H131        0.9150   -5.1600   -1.5770 hx        1 DBR      0.116200
     52 H132       -0.5040   -4.8150   -0.4850 hx        1 DBR      0.116200
     53 H141        1.8380   -6.7860    0.1530 hc        1 DBR      0.073200
     54 H142        0.4120   -6.4540    1.2240 hc        1 DBR      0.073200
     55 H151       -1.1410   -7.2120   -0.6080 hc        1 DBR      0.071200
     56 H152        0.2820   -7.5400   -1.6810 hc        1 DBR      0.071200
     57 H161        1.1980   -9.1690    0.0250 h1        1 DBR      0.096200
     58 H162       -0.2490   -8.8460    1.0990 h1        1 DBR      0.096200
     59 H31        -1.6110   -9.7570   -0.6700 hn        1 DBR      0.406800
     60 H19        -2.8110  -11.9660    1.4030 ha        1 DBR      0.193000
     61 H20        -4.7100  -13.4050    0.7780 ha        1 DBR      0.204000
     62 H21        -4.4630  -15.1690   -0.8850 ha        1 DBR      0.159000
     63 H24         0.7960  -13.2790   -1.6310 ha        1 DBR      0.189000
     64 H25         1.0520  -15.0390   -3.3080 ha        1 DBR      0.201000
     65 H26        -0.7310  -16.6810   -3.7310 ha        1 DBR      0.186000
     66 H281       -2.8330  -16.9530   -4.6660 hx        1 DBR      0.117033
     67 H282       -4.4830  -17.4970   -4.0760 hx        1 DBR      0.117033
     68 H283       -4.0680  -15.7050   -4.1330 hx        1 DBR      0.117033
     69 H291       -1.8270  -18.4620   -2.9750 hx        1 DBR      0.117033
     70 H292       -2.2370  -18.2250   -1.2020 hx        1 DBR      0.117033
     71 H293       -3.4890  -18.9230   -2.3550 hx        1 DBR      0.117033
     72 H122        2.3570   -4.2730    0.1720 hn        1 DBR      0.457800
     73 H312       -0.2940  -10.0880   -1.5780 hn        1 DBR      0.406800
     74 H284       -3.9480  -16.6560   -1.9100 hn        1 DBR      0.452800
@<TRIPOS>BOND
     1    1    2 1   
     2    1    5 1   
     3    1   35 1   
     4    1   36 1   
     5    2    3 1   
     6    2    4 1   
     7    2   37 1   
     8    3    8 1   
     9    3   38 1   
    10    3   39 1   
    11    4    9 1   
    12    4   40 1   
    13    4   41 1   
    14    5    6 1   
    15    5    7 1   
    16    5   42 1   
    17    6    8 1   
    18    6   43 1   
    19    6   44 1   
    20    7    9 1   
    21    7   45 1   
    22    7   46 1   
    23    8   10 1   
    24    8   47 1   
    25    9   10 1   
    26    9   11 1   
    27   10   48 1   
    28   10   49 1   
    29   11   12 1   
    30   11   17 2   
    31   12   13 1   
    32   12   50 1   
    33   12   72 1   
    34   13   14 1   
    35   13   51 1   
    36   13   52 1   
    37   14   15 1   
    38   14   53 1   
    39   14   54 1   
    40   15   16 1   
    41   15   55 1   
    42   15   56 1   
    43   16   18 1   
    44   16   57 1   
    45   16   58 1   
    46   18   59 1   
    47   18   73 1   
    48   19   20 1   
    49   19   21 1   
    50   19   23 1   
    51   22   32 1   
    52   22   33 1   
    53   22   34 1   
    54   22   74 1   
    55   23   24 ar  
    56   23   28 ar  
    57   24   25 ar  
    58   24   60 1   
    59   25   26 ar  
    60   25   61 1   
    61   26   27 ar  
    62   26   62 1   
    63   27   28 ar  
    64   27   32 ar  
    65   28   29 ar  
    66   29   30 ar  
    67   29   63 1   
    68   30   31 ar  
    69   30   64 1   
    70   31   32 ar  
    71   31   65 1   
    72   33   66 1   
    73   33   67 1   
    74   33   68 1   
    75   34   69 1   
    76   34   70 1   
    77   34   71 1   
@<TRIPOS>SUBSTRUCTURE
     1 DBR         1 TEMP              0 ****  ****    0 ROOT
