@<TRIPOS>MOLECULE
DBR
   73    76     1     0     0
SMALL
bcc


@<TRIPOS>ATOM
      1 C1          1.3140    1.0980    1.0890 c3        1 DBR     -0.081400
      2 C2          2.1600    0.7900   -0.1400 c3        1 DBR     -0.059700
      3 C3          3.6050    0.5400    0.2770 c3        1 DBR     -0.081400
      4 C4          1.6130   -0.4500   -0.8380 c3        1 DBR     -0.072733
      5 C5          1.3680   -0.0810    2.0540 c3        1 DBR     -0.059700
      6 C6          2.8120   -0.3320    2.4740 c3        1 DBR     -0.081400
      7 C7          0.8100   -1.3280    1.3710 c3        1 DBR     -0.072733
      8 C8          3.6580   -0.6390    1.2420 c3        1 DBR     -0.059700
      9 C9          1.6630   -1.6430    0.1340 c3        1 DBR     -0.110000
     10 C10         3.1150   -1.8930    0.5550 c3        1 DBR     -0.072733
     11 C11         1.0750   -2.8390   -0.5920 c         1 DBR      0.554100
     12 N12         1.2710   -4.1900    0.1040 n4        1 DBR     -0.688800
     13 C13         0.5020   -5.3000   -0.5230 c3        1 DBR      0.099800
     14 C14         0.7280   -6.6450    0.1590 c3        1 DBR     -0.102400
     15 C15        -0.0840   -7.7100   -0.5530 c3        1 DBR     -0.107400
     16 C16         0.1380   -9.0640    0.1210 c3        1 DBR      0.119800
     17 O17         0.4600   -2.8770   -1.6410 o         1 DBR     -0.402100
     18 N31        -0.5780  -10.1870   -0.4610 n3        1 DBR     -0.987800
     19 S33         0.0030  -12.1470    0.8840 s4        1 DBR      1.675300
     20 O32         1.2830  -12.0830    0.4220 o         1 DBR     -0.458900
     21 O34        -0.3250  -11.4640    2.0230 o         1 DBR     -0.458900
     22 N28        -2.8050  -16.2130   -3.1320 nh        1 DBR     -0.635000
     23 C18        -1.0240  -13.1350    0.3310 ca        1 DBR     -0.684500
     24 C19        -2.2840  -13.2140    1.0060 ca        1 DBR      0.051000
     25 C20        -3.2690  -14.0850    0.6290 ca        1 DBR     -0.208000
     26 C21        -3.0910  -14.8980   -0.5070 ca        1 DBR      0.079000
     27 C22        -1.9260  -14.8340   -1.2670 ca        1 DBR     -0.155000
     28 C23        -0.8160  -14.0420   -0.7830 ca        1 DBR      0.151000
     29 C24         0.4400  -14.2180   -1.3510 ca        1 DBR     -0.282000
     30 C25         0.6310  -15.1490   -2.3800 ca        1 DBR      0.038000
     31 C26        -0.4220  -15.8470   -2.9320 ca        1 DBR     -0.252000
     32 C27        -1.7530  -15.6430   -2.4690 ca        1 DBR      0.290600
     33 C28        -4.1310  -15.6480   -3.1490 c3        1 DBR      0.175600
     34 C29        -2.5690  -17.2720   -4.0890 c3        1 DBR      0.175600
     35 H11A        0.2540    1.2980    0.7860 hc        1 DBR      0.065367
     36 H12A        1.7040    2.0180    1.5970 hc        1 DBR      0.065367
     37 H2          2.1180    1.6560   -0.8560 hc        1 DBR      0.084033
     38 H31A        4.0190    1.4540    0.7770 hc        1 DBR      0.065367
     39 H32         4.2350    0.3280   -0.6250 hc        1 DBR      0.065367
     40 H41         2.2230   -0.6810   -1.7480 hc        1 DBR      0.053533
     41 H42         0.5540   -0.2740   -1.1610 hc        1 DBR      0.053533
     42 H5          0.7440    0.1430    2.9610 hc        1 DBR      0.084033
     43 H61         3.2170    0.5780    2.9890 hc        1 DBR      0.065367
     44 H62         2.8620   -1.1840    3.1980 hc        1 DBR      0.065367
     45 H71         0.8340   -2.1840    2.0920 hc        1 DBR      0.053533
     46 H72        -0.2530   -1.1460    1.0650 hc        1 DBR      0.053533
     47 H8          4.7210   -0.8280    1.5500 hc        1 DBR      0.084033
     48 H101        3.7400   -2.1310   -0.3430 hc        1 DBR      0.053533
     49 H102        3.1800   -2.7460    1.2790 hc        1 DBR      0.053533
     50 H12         2.2740   -4.4100    0.0840 hn        1 DBR      0.457800
     51 H131        0.8080   -5.3590   -1.6090 hx        1 DBR      0.115200
     52 H132       -0.5910   -5.0220   -0.4880 hx        1 DBR      0.115200
     53 H141        0.4160   -6.5950    1.2370 hc        1 DBR      0.070700
     54 H142        1.8160   -6.9210    0.1300 hc        1 DBR      0.070700
     55 H151        0.2230   -7.7630   -1.6310 hc        1 DBR      0.065200
     56 H152       -1.1730   -7.4400   -0.5240 hc        1 DBR      0.065200
     57 H161       -0.1720   -8.9920    1.2050 h1        1 DBR      0.087700
     58 H162        1.2390   -9.3130    0.0910 h1        1 DBR      0.087700
     59 H31        -1.5690  -10.0210   -0.4520 hn        1 DBR      0.391300
     60 H19        -2.4520  -12.5540    1.8820 ha        1 DBR      0.168000
     61 H20        -4.2050  -14.1620    1.2070 ha        1 DBR      0.178000
     62 H21        -3.8990  -15.6140   -0.7440 ha        1 DBR      0.167000
     63 H24         1.3290  -13.6660   -1.0070 ha        1 DBR      0.169000
     64 H25         1.6530  -15.3090   -2.7710 ha        1 DBR      0.166000
     65 H26        -0.2190  -16.5430   -3.7640 ha        1 DBR      0.170000
     66 H281       -4.8320  -16.2900   -2.5490 h1        1 DBR      0.068033
     67 H282       -4.5050  -15.6160   -4.2110 h1        1 DBR      0.068033
     68 H283       -4.1320  -14.6010   -2.7460 h1        1 DBR      0.068033
     69 H291       -3.5390  -17.7950   -4.3030 h1        1 DBR      0.068033
     70 H292       -1.8460  -18.0200   -3.6660 h1        1 DBR      0.068033
     71 H293       -2.1580  -16.8580   -5.0500 h1        1 DBR      0.068033
     72 H122        0.9930   -4.0850    1.0870 hn        1 DBR      0.457800
     73 H312       -0.2880  -10.3370   -1.4130 hn        1 DBR      0.391300
@<TRIPOS>BOND
     1    1    2 1   
     2    1    5 1   
     3    1   35 1   
     4    1   36 1   
     5    2    3 1   
     6    2    4 1   
     7    2   37 1   
     8    3    8 1   
     9    3   38 1   
    10    3   39 1   
    11    4    9 1   
    12    4   40 1   
    13    4   41 1   
    14    5    6 1   
    15    5    7 1   
    16    5   42 1   
    17    6    8 1   
    18    6   43 1   
    19    6   44 1   
    20    7    9 1   
    21    7   45 1   
    22    7   46 1   
    23    8   10 1   
    24    8   47 1   
    25    9   10 1   
    26    9   11 1   
    27   10   48 1   
    28   10   49 1   
    29   11   12 1   
    30   11   17 2   
    31   12   13 1   
    32   12   50 1   
    33   12   72 1   
    34   13   14 1   
    35   13   51 1   
    36   13   52 1   
    37   14   15 1   
    38   14   53 1   
    39   14   54 1   
    40   15   16 1   
    41   15   55 1   
    42   15   56 1   
    43   16   18 1   
    44   16   57 1   
    45   16   58 1   
    46   18   59 1   
    47   18   73 1   
    48   19   20 1   
    49   19   21 1   
    50   19   23 1   
    51   22   32 1   
    52   22   33 1   
    53   22   34 1   
    54   23   24 ar  
    55   23   28 ar  
    56   24   25 ar  
    57   24   60 1   
    58   25   26 ar  
    59   25   61 1   
    60   26   27 ar  
    61   26   62 1   
    62   27   28 ar  
    63   27   32 ar  
    64   28   29 ar  
    65   29   30 ar  
    66   29   63 1   
    67   30   31 ar  
    68   30   64 1   
    69   31   32 ar  
    70   31   65 1   
    71   33   66 1   
    72   33   67 1   
    73   33   68 1   
    74   34   69 1   
    75   34   70 1   
    76   34   71 1   
@<TRIPOS>SUBSTRUCTURE
     1 DBR         1 TEMP              0 ****  ****    0 ROOT
