@<TRIPOS>MOLECULE
DBR
   73    76     1     0     0
SMALL
bcc


@<TRIPOS>ATOM
      1 C1          1.3160    1.1040    1.0590 c3        1 DBR     -0.081400
      2 C2          2.1450    0.7930   -0.1820 c3        1 DBR     -0.059700
      3 C3          3.5960    0.5450    0.2150 c3        1 DBR     -0.081400
      4 C4          1.5880   -0.4480   -0.8690 c3        1 DBR     -0.072733
      5 C5          1.3860   -0.0720    2.0260 c3        1 DBR     -0.059700
      6 C6          2.8360   -0.3210    2.4250 c3        1 DBR     -0.081400
      7 C7          0.8180   -1.3220    1.3540 c3        1 DBR     -0.072733
      8 C8          3.6630   -0.6310    1.1820 c3        1 DBR     -0.059700
      9 C9          1.6540   -1.6390    0.1060 c3        1 DBR     -0.110000
     10 C10         3.1110   -1.8870    0.5060 c3        1 DBR     -0.072733
     11 C11         1.0560   -2.8380   -0.6080 c         1 DBR      0.554100
     12 N12         1.2610   -4.1860    0.0890 ny        1 DBR     -0.688800
     13 C13         0.4870   -5.2990   -0.5270 c3        1 DBR      0.099800
     14 C14         0.7200   -6.6410    0.1580 c3        1 DBR     -0.102400
     15 C15        -0.0970   -7.7100   -0.5430 c3        1 DBR     -0.107400
     16 C16         0.1310   -9.0610    0.1330 c3        1 DBR      0.119800
     17 O17         0.4270   -2.8790   -1.6490 o         1 DBR     -0.402100
     18 N31        -0.5880  -10.1870   -0.4400 n8        1 DBR     -0.987800
     19 S33         0.0050  -12.1410    0.9090 s4        1 DBR      1.675300
     20 O32         1.2830  -12.0730    0.4440 o         1 DBR     -0.458900
     21 O34        -0.3240  -11.4570    2.0470 o         1 DBR     -0.458900
     22 N28        -2.7950  -16.2270   -3.0930 nh        1 DBR     -0.635000
     23 C18        -1.0190  -13.1340    0.3600 ca        1 DBR     -0.684500
     24 C19        -2.2770  -13.2180    1.0380 ca        1 DBR      0.051000
     25 C20        -3.2590  -14.0940    0.6650 ca        1 DBR     -0.208000
     26 C21        -3.0800  -14.9080   -0.4690 ca        1 DBR      0.079000
     27 C22        -1.9170  -14.8410   -1.2320 ca        1 DBR     -0.155000
     28 C23        -0.8100  -14.0430   -0.7520 ca        1 DBR      0.151000
     29 C24         0.4460  -14.2140   -1.3230 ca        1 DBR     -0.282000
     30 C25         0.6390  -15.1470   -2.3510 ca        1 DBR      0.038000
     31 C26        -0.4130  -15.8500   -2.8990 ca        1 DBR     -0.252000
     32 C27        -1.7430  -15.6510   -2.4330 ca        1 DBR      0.290600
     33 C28        -4.1230  -15.6680   -3.1080 c3        1 DBR      0.175600
     34 C29        -2.5560  -17.2870   -4.0480 c3        1 DBR      0.175600
     35 H11A        1.7140    2.0260    1.5580 hc        1 DBR      0.065367
     36 H12A        0.2520    1.3030    0.7710 hc        1 DBR      0.065367
     37 H2          2.0910    1.6570   -0.8990 hc        1 DBR      0.084033
     38 H31A        4.2130    0.3320   -0.6960 hc        1 DBR      0.065367
     39 H32         4.0160    1.4610    0.7060 hc        1 DBR      0.065367
     40 H41         0.5240   -0.2740   -1.1770 hc        1 DBR      0.053533
     41 H42         2.1850   -0.6810   -1.7870 hc        1 DBR      0.053533
     42 H5          0.7740    0.1540    2.9410 hc        1 DBR      0.084033
     43 H61         2.8970   -1.1710    3.1510 hc        1 DBR      0.065367
     44 H62         3.2480    0.5900    2.9320 hc        1 DBR      0.065367
     45 H71         0.8540   -2.1760    2.0770 hc        1 DBR      0.053533
     46 H72        -0.2490   -1.1410    1.0640 hc        1 DBR      0.053533
     47 H8          4.7310   -0.8190    1.4740 hc        1 DBR      0.084033
     48 H101        3.1880   -2.7380    1.2310 hc        1 DBR      0.053533
     49 H102        3.7230   -2.1270   -0.4010 hc        1 DBR      0.053533
     50 H12         0.9940   -4.0790    1.0740 hn        1 DBR      0.457800
     51 H131        0.7820   -5.3610   -1.6150 hx        1 DBR      0.115200
     52 H132       -0.6060   -5.0220   -0.4820 hx        1 DBR      0.115200
     53 H141        1.8080   -6.9170    0.1200 hc        1 DBR      0.070700
     54 H142        0.4190   -6.5880    1.2380 hc        1 DBR      0.070700
     55 H151       -1.1850   -7.4400   -0.5060 hc        1 DBR      0.065200
     56 H152        0.2010   -7.7660   -1.6240 hc        1 DBR      0.065200
     57 H161       -0.1700   -8.9850    1.2200 h1        1 DBR      0.087700
     58 H162        1.2330   -9.3090    0.0960 h1        1 DBR      0.087700
     59 H31        -0.3050  -10.3390   -1.3930 hn        1 DBR      0.391300
     60 H19        -2.4460  -12.5570    1.9130 ha        1 DBR      0.168000
     61 H20        -4.1940  -14.1730    1.2450 ha        1 DBR      0.178000
     62 H21        -3.8860  -15.6280   -0.7030 ha        1 DBR      0.167000
     63 H24         1.3330  -13.6590   -0.9820 ha        1 DBR      0.169000
     64 H25         1.6600  -15.3030   -2.7440 ha        1 DBR      0.166000
     65 H26        -0.2090  -16.5460   -3.7300 ha        1 DBR      0.170000
     66 H281       -4.4990  -15.6390   -4.1690 h1        1 DBR      0.068033
     67 H282       -4.8200  -16.3110   -2.5050 h1        1 DBR      0.068033
     68 H283       -4.1270  -14.6200   -2.7070 h1        1 DBR      0.068033
     69 H291       -1.8290  -18.0310   -3.6250 h1        1 DBR      0.068033
     70 H292       -2.1490  -16.8730   -5.0110 h1        1 DBR      0.068033
     71 H293       -3.5250  -17.8150   -4.2590 h1        1 DBR      0.068033
     72 H122        2.2640   -4.4050    0.0590 hn        1 DBR      0.457800
     73 H312       -1.5790  -10.0220   -0.4220 hn        1 DBR      0.391300
@<TRIPOS>BOND
     1    1    2 1   
     2    1    5 1   
     3    1   35 1   
     4    1   36 1   
     5    2    3 1   
     6    2    4 1   
     7    2   37 1   
     8    3    8 1   
     9    3   38 1   
    10    3   39 1   
    11    4    9 1   
    12    4   40 1   
    13    4   41 1   
    14    5    6 1   
    15    5    7 1   
    16    5   42 1   
    17    6    8 1   
    18    6   43 1   
    19    6   44 1   
    20    7    9 1   
    21    7   45 1   
    22    7   46 1   
    23    8   10 1   
    24    8   47 1   
    25    9   10 1   
    26    9   11 1   
    27   10   48 1   
    28   10   49 1   
    29   11   12 1   
    30   11   17 2   
    31   12   13 1   
    32   12   50 1   
    33   12   72 1   
    34   13   14 1   
    35   13   51 1   
    36   13   52 1   
    37   14   15 1   
    38   14   53 1   
    39   14   54 1   
    40   15   16 1   
    41   15   55 1   
    42   15   56 1   
    43   16   18 1   
    44   16   57 1   
    45   16   58 1   
    46   18   59 1   
    47   18   73 1   
    48   19   20 1   
    49   19   21 1   
    50   19   23 1   
    51   22   32 1   
    52   22   33 1   
    53   22   34 1   
    54   23   24 ar  
    55   23   28 ar  
    56   24   25 ar  
    57   24   60 1   
    58   25   26 ar  
    59   25   61 1   
    60   26   27 ar  
    61   26   62 1   
    62   27   28 ar  
    63   27   32 ar  
    64   28   29 ar  
    65   29   30 ar  
    66   29   63 1   
    67   30   31 ar  
    68   30   64 1   
    69   31   32 ar  
    70   31   65 1   
    71   33   66 1   
    72   33   67 1   
    73   33   68 1   
    74   34   69 1   
    75   34   70 1   
    76   34   71 1   
@<TRIPOS>SUBSTRUCTURE
     1 DBR         1 TEMP              0 ****  ****    0 ROOT
