@<TRIPOS>MOLECULE
DBR
   71    75     1     0     0
SMALL
bcc


@<TRIPOS>ATOM
      1 C1          8.0850    2.1790    0.7250 c3        1 DBR     -0.071733
      2 C2          8.3200    1.4850   -0.6120 c3        1 DBR     -0.062700
      3 C3          9.1830    0.2460   -0.4000 c3        1 DBR     -0.071733
      4 C4          6.9820    1.0760   -1.2140 c3        1 DBR     -0.061400
      5 C5          7.3720    1.2220    1.6740 c3        1 DBR     -0.062700
      6 C6          8.2330   -0.0190    1.8870 c3        1 DBR     -0.071733
      7 C7          6.0290    0.8130    1.0760 c3        1 DBR     -0.061400
      8 C8          8.4690   -0.7110    0.5480 c3        1 DBR     -0.062700
      9 C9          6.2550    0.1120   -0.2680 c3        1 DBR     -0.114000
     10 C10         7.1300   -1.1270   -0.0530 c3        1 DBR     -0.061400
     11 C11         4.9150   -0.2750   -0.9010 c         1 DBR      0.660100
     12 N12         4.1220   -1.1840   -0.2250 n         1 DBR     -0.567900
     13 C13         2.8060   -1.5440   -0.6700 c3        1 DBR      0.087000
     14 C14         1.6660   -0.9030    0.1260 c3        1 DBR     -0.106400
     15 C15         0.3360   -1.4070   -0.3890 c3        1 DBR     -0.094400
     16 C16        -0.8050   -0.7370    0.3810 c3        1 DBR      0.224800
     17 O17         4.5600    0.1820   -2.0060 o         1 DBR     -0.609100
     18 N31        -2.1130   -1.1700   -0.0170 n3        1 DBR     -0.919100
     19 S33        -3.2420   -1.7380    0.9890 sy        1 DBR      1.514200
     20 O32        -3.8910   -2.8340    0.3860 o         1 DBR     -0.658300
     21 O34        -2.6810   -1.9810    2.2670 o         1 DBR     -0.658300
     22 N28        -7.4800    2.8920   -0.7040 nh        1 DBR     -0.644000
     23 C18        -4.3120   -0.4270    1.1220 ca        1 DBR     -0.375500
     24 C19        -4.3830    0.2170    2.3440 ca        1 DBR      0.006000
     25 C20        -5.2220    1.3290    2.5430 ca        1 DBR     -0.179000
     26 C21        -5.9700    1.8200    1.5000 ca        1 DBR     -0.034000
     27 C22        -5.9240    1.2060    0.2190 ca        1 DBR     -0.064000
     28 C23        -5.1240    0.0440    0.0440 ca        1 DBR      0.073000
     29 C24        -5.1650   -0.6390   -1.2040 ca        1 DBR     -0.179000
     30 C25        -5.9340   -0.1650   -2.2350 ca        1 DBR     -0.079000
     31 C26        -6.6830    1.0190   -2.0950 ca        1 DBR     -0.188000
     32 C27        -6.6930    1.7170   -0.8940 ca        1 DBR      0.143600
     33 C28        -6.7180    4.1220   -0.6560 c3        1 DBR      0.166100
     34 C29        -8.6630    2.9860   -1.5270 c3        1 DBR      0.166100
     35 H11A        9.0640    2.4930    1.1690 hc        1 DBR      0.043033
     36 H12A        7.4630    3.0980    0.5730 hc        1 DBR      0.043033
     37 H2          8.8410    2.1900   -1.3140 hc        1 DBR      0.052033
     38 H31A        9.3690   -0.2600   -1.3820 hc        1 DBR      0.043033
     39 H32        10.1730    0.5400    0.0320 hc        1 DBR      0.043033
     40 H41         7.1380    0.5750   -2.2040 hc        1 DBR      0.050033
     41 H42         6.3420    1.9780   -1.3880 hc        1 DBR      0.050033
     42 H5          7.1960    1.7310    2.6590 hc        1 DBR      0.052033
     43 H61         7.7230   -0.7210    2.5940 hc        1 DBR      0.043033
     44 H62         9.2140    0.2750    2.3400 hc        1 DBR      0.043033
     45 H71         5.3880    1.7190    0.9230 hc        1 DBR      0.050033
     46 H72         5.5030    0.1300    1.7910 hc        1 DBR      0.050033
     47 H8          9.1020   -1.6260    0.7050 hc        1 DBR      0.052033
     48 H101        6.6260   -1.8490    0.6390 hc        1 DBR      0.050033
     49 H102        7.2950   -1.6430   -1.0330 hc        1 DBR      0.050033
     50 H12         4.3680   -1.4310    0.7030 hn        1 DBR      0.305500
     51 H131        2.7100   -2.6660   -0.5920 h1        1 DBR      0.063200
     52 H132        2.7000   -1.2570   -1.7560 h1        1 DBR      0.063200
     53 H141        1.7140    0.2130    0.0280 hc        1 DBR      0.046700
     54 H142        1.7660   -1.1490    1.2160 hc        1 DBR      0.046700
     55 H151        0.2800   -2.5200   -0.2710 hc        1 DBR      0.050700
     56 H152        0.2430   -1.1800   -1.4840 hc        1 DBR      0.050700
     57 H161       -0.7200    0.3800    0.2370 h1        1 DBR      0.053700
     58 H162       -0.6730   -0.9530    1.4830 h1        1 DBR      0.053700
     59 H31        -2.2780   -1.0870   -0.9910 hn        1 DBR      0.446800
     60 H19        -3.7720   -0.1460    3.1930 ha        1 DBR      0.164000
     61 H20        -5.2710    1.7950    3.5390 ha        1 DBR      0.142000
     62 H21        -6.6270    2.6900    1.6670 ha        1 DBR      0.151000
     63 H24        -4.6150   -1.5870   -1.3300 ha        1 DBR      0.154000
     64 H25        -5.9730   -0.7070   -3.1940 ha        1 DBR      0.138000
     65 H26        -7.2650    1.3720   -2.9610 ha        1 DBR      0.138000
     66 H281       -7.3580    4.9070   -0.1740 h1        1 DBR      0.038867
     67 H282       -5.7930    3.9730   -0.0400 h1        1 DBR      0.038867
     68 H283       -6.4140    4.4840   -1.6760 h1        1 DBR      0.038867
     69 H291       -9.2040    2.0040   -1.5210 h1        1 DBR      0.038867
     70 H292       -9.3290    3.7720   -1.0810 h1        1 DBR      0.038867
     71 H293       -8.4440    3.2730   -2.5920 h1        1 DBR      0.038867
@<TRIPOS>BOND
     1    1    2 1   
     2    1    5 1   
     3    1   35 1   
     4    1   36 1   
     5    2    3 1   
     6    2    4 1   
     7    2   37 1   
     8    3    8 1   
     9    3   38 1   
    10    3   39 1   
    11    4    9 1   
    12    4   40 1   
    13    4   41 1   
    14    5    6 1   
    15    5    7 1   
    16    5   42 1   
    17    6    8 1   
    18    6   43 1   
    19    6   44 1   
    20    7    9 1   
    21    7   45 1   
    22    7   46 1   
    23    8   10 1   
    24    8   47 1   
    25    9   10 1   
    26    9   11 1   
    27   10   48 1   
    28   10   49 1   
    29   11   12 1   
    30   11   17 2   
    31   12   13 1   
    32   12   50 1   
    33   13   14 1   
    34   13   51 1   
    35   13   52 1   
    36   14   15 1   
    37   14   53 1   
    38   14   54 1   
    39   15   16 1   
    40   15   55 1   
    41   15   56 1   
    42   16   18 1   
    43   16   57 1   
    44   16   58 1   
    45   18   19 1   
    46   18   59 1   
    47   19   20 2   
    48   19   21 2   
    49   19   23 1   
    50   22   32 1   
    51   22   33 1   
    52   22   34 1   
    53   23   24 ar  
    54   23   28 ar  
    55   24   25 ar  
    56   24   60 1   
    57   25   26 ar  
    58   25   61 1   
    59   26   27 ar  
    60   26   62 1   
    61   27   28 ar  
    62   27   32 ar  
    63   28   29 ar  
    64   29   30 ar  
    65   29   63 1   
    66   30   31 ar  
    67   30   64 1   
    68   31   32 ar  
    69   31   65 1   
    70   33   66 1   
    71   33   67 1   
    72   33   68 1   
    73   34   69 1   
    74   34   70 1   
    75   34   71 1   
@<TRIPOS>SUBSTRUCTURE
     1 DBR         1 TEMP              0 ****  ****    0 ROOT
