@<TRIPOS>MOLECULE
DBS
   27    27     1     0     0
SMALL
bcc


@<TRIPOS>ATOM
      1 O4         57.2210  103.4240   36.3110 oh        1 DBS     -0.514100
      2 C4         57.0520  103.2370   37.6650 ca        1 DBS      0.080100
      3 C7         57.9480  102.3890   38.3170 ca        1 DBS     -0.134000
      4 C1         56.0160  103.8900   38.3850 ca        1 DBS      0.106100
      5 O1         55.2390  104.7280   37.6320 oh        1 DBS     -0.548100
      6 C16        55.8990  103.6730   39.7630 ca        1 DBS     -0.178600
      7 C13        56.7940  102.8030   40.4020 ca        1 DBS     -0.091000
      8 C10        57.8090  102.1760   39.6900 ca        1 DBS     -0.158000
      9 C19        54.8240  104.3050   40.5900 c         1 DBS      0.658700
     10 O7         54.1980  103.6240   41.4310 o         1 DBS     -0.620100
     11 N1         54.6460  105.6710   40.4570 n         1 DBS     -0.495900
     12 C22        53.3460  106.2630   40.7190 c3        1 DBS     -0.095300
     13 C28        53.4580  107.5720   41.5200 c3        1 DBS      0.158400
     14 O13        53.9830  108.6410   40.7630 oh        1 DBS     -0.637800
     15 C25        52.5340  106.5150   39.4050 c         1 DBS      0.903600
     16 O10        51.7700  107.5170   39.3820 o         1 DBS     -0.832800
     17 O15        52.6800  105.7090   38.4410 o         1 DBS     -0.832800
     18 HO4        56.4910  103.9840   35.9990 ho        1 DBS      0.441000
     19 HC7        58.7450  101.8980   37.7430 ha        1 DBS      0.137000
     20 HO1        54.3380  104.8110   38.0240 ho        1 DBS      0.503000
     21 HC13       56.6690  102.6220   41.4810 ha        1 DBS      0.145000
     22 HC10       58.5070  101.5020   40.2060 ha        1 DBS      0.123000
     23 HN1        55.1250  106.1040   39.6950 hn        1 DBS      0.300500
     24 HC22       52.7430  105.5360   41.3380 h1        1 DBS      0.079700
     25 H281       54.1540  107.4670   42.3940 h1        1 DBS      0.034700
     26 H282       52.4250  107.8320   41.8800 h1        1 DBS      0.034700
     27 HO13       53.3900  108.7630   40.0050 ho        1 DBS      0.434000
@<TRIPOS>BOND
     1    1    2 1   
     2    1   18 1   
     3    2    3 ar  
     4    2    4 ar  
     5    3    8 ar  
     6    3   19 1   
     7    4    5 1   
     8    4    6 ar  
     9    5   20 1   
    10    6    7 ar  
    11    6    9 1   
    12    7    8 ar  
    13    7   21 1   
    14    8   22 1   
    15    9   10 2   
    16    9   11 1   
    17   11   12 1   
    18   11   23 1   
    19   12   13 1   
    20   12   15 1   
    21   12   24 1   
    22   13   14 1   
    23   13   25 1   
    24   13   26 1   
    25   14   27 1   
    26   15   16 1   
    27   15   17 1   
@<TRIPOS>SUBSTRUCTURE
     1 DBS         1 TEMP              0 ****  ****    0 ROOT
