@<TRIPOS>MOLECULE
DBT
   36    37     1     0     0
SMALL
bcc


@<TRIPOS>ATOM
      1 O6          0.0520    0.3440   -0.1320 oh        1 DBT     -0.480100
      2 C6          1.4150    0.1980   -0.0610 cc        1 DBT      0.046900
      3 C5          1.9960    0.0200    1.1510 cd        1 DBT     -0.178400
      4 C4          3.4620   -0.1320    1.2880 c         1 DBT      0.492800
      5 O4          4.0150   -0.2470    2.3840 o         1 DBT     -0.469100
      6 C4A         4.2230   -0.1290    0.0130 cc        1 DBT      0.323800
      7 C7A         3.5960    0.0580   -1.2370 cd        1 DBT     -0.300000
      8 S1          4.7310    0.0160   -2.4600 ss        1 DBT      0.080700
      9 C2          5.9690   -0.2400   -1.3390 cd        1 DBT      0.343300
     10 N3          5.5940   -0.3000   -0.0560 nc        1 DBT     -0.573000
     11 C7          2.1630    0.2480   -1.3490 c         1 DBT      0.596900
     12 O7          1.5570    0.4380   -2.4130 o         1 DBT     -0.524100
     13 C8          1.2030   -0.0180    2.4110 c3        1 DBT     -0.032200
     14 C9          1.0160   -1.4390    2.9120 c3        1 DBT     -0.074400
     15 C10         0.2090   -1.4560    4.1920 c3        1 DBT     -0.077400
     16 C11         0.0200   -2.8690    4.6990 c3        1 DBT     -0.079400
     17 C12        -0.7870   -2.8900    5.9790 c3        1 DBT     -0.079400
     18 C13        -0.9790   -4.3030    6.4870 c3        1 DBT     -0.080400
     19 C14        -1.7810   -4.3280    7.7630 c3        1 DBT     -0.092100
     20 HO6        -0.1910    0.4930   -1.0630 ho        1 DBT      0.444000
     21 H2          7.0240   -0.3540   -1.6120 h5        1 DBT      0.067100
     22 H81         0.1990    0.4560    2.2410 hc        1 DBT      0.065700
     23 H82         1.7410    0.5820    3.1950 hc        1 DBT      0.065700
     24 H91         2.0230   -1.9030    3.0910 hc        1 DBT      0.047200
     25 H92         0.4960   -2.0500    2.1290 hc        1 DBT      0.047200
     26 H101       -0.7920   -0.9830    4.0130 hc        1 DBT      0.041200
     27 H102        0.7310   -0.8430    4.9730 hc        1 DBT      0.041200
     28 H111       -0.5010   -3.4830    3.9170 hc        1 DBT      0.040200
     29 H112        1.0210   -3.3420    4.8780 hc        1 DBT      0.040200
     30 H121       -0.2660   -2.2770    6.7610 hc        1 DBT      0.039700
     31 H122       -1.7880   -2.4160    5.8010 hc        1 DBT      0.039700
     32 H131        0.0240   -4.7750    6.6640 hc        1 DBT      0.038200
     33 H132       -1.4980   -4.9150    5.7030 hc        1 DBT      0.038200
     34 H141       -1.9100   -5.3780    8.1200 hc        1 DBT      0.032033
     35 H142       -1.2670   -3.7440    8.5640 hc        1 DBT      0.032033
     36 H143       -2.7930   -3.8830    7.6010 hc        1 DBT      0.032033
@<TRIPOS>BOND
     1    1    2 1   
     2    1   20 1   
     3    2    3 2   
     4    2   11 1   
     5    3    4 1   
     6    3   13 1   
     7    4    5 2   
     8    4    6 1   
     9    6    7 2   
    10    6   10 1   
    11    7    8 1   
    12    7   11 1   
    13    8    9 1   
    14    9   10 2   
    15    9   21 1   
    16   11   12 2   
    17   13   14 1   
    18   13   22 1   
    19   13   23 1   
    20   14   15 1   
    21   14   24 1   
    22   14   25 1   
    23   15   16 1   
    24   15   26 1   
    25   15   27 1   
    26   16   17 1   
    27   16   28 1   
    28   16   29 1   
    29   17   18 1   
    30   17   30 1   
    31   17   31 1   
    32   18   19 1   
    33   18   32 1   
    34   18   33 1   
    35   19   34 1   
    36   19   35 1   
    37   19   36 1   
@<TRIPOS>SUBSTRUCTURE
     1 DBT         1 TEMP              0 ****  ****    0 ROOT
