@<TRIPOS>MOLECULE
DBT
   36    34     1     0     0
SMALL
bcc


@<TRIPOS>ATOM
      1 O6         -1.2950    1.4140   -3.0490 oh        1 DBT     -0.235000
      2 C6          0.1120    1.4140   -3.0490 c2        1 DBT      0.022000
      3 C5          0.8570    1.4140   -1.7580 c1        1 DBT     -0.155000
      4 C4          2.3580    1.4770   -1.7590 c1        1 DBT      0.324000
      5 O4          2.9670    1.4680   -0.7080 o         1 DBT     -0.230000
      6 C4A         3.1220    1.5400   -3.0870 c2        1 DBT     -0.094000
      7 C7A         2.3940    1.5400   -4.3460 c1        1 DBT     -0.484000
      8 S1          3.4190    1.6450   -5.4780 ss        1 DBT      0.665000
      9 C2          4.8280    1.7090   -4.8280 c1        1 DBT     -0.371000
     10 N3          4.6600    1.6470   -3.4030 n2        1 DBT     -0.047000
     11 C7          0.8620    1.4760   -4.3480 c1        1 DBT      0.318000
     12 O7          0.2550    1.4990   -5.4000 o         1 DBT     -0.285000
     13 C8          0.1000    1.4490   -0.4490 c3        1 DBT     -0.115000
     14 C9         -0.1090    0.0360    0.0500 c3        1 DBT     -0.153000
     15 C10        -0.8130    0.0730    1.3890 c3        1 DBT     -0.156000
     16 C11        -1.0870   -1.3400    1.8530 c3        1 DBT     -0.158000
     17 C12        -1.7730   -1.3030    3.2020 c3        1 DBT     -0.158000
     18 C13        -2.0640   -2.7150    3.6580 c3        1 DBT     -0.159000
     19 C14        -2.7250   -2.6790    5.0190 c3        1 DBT     -0.210000
     20 HO6        -1.5910    2.1120   -3.5110 ho        1 DBT      0.243000
     21 H2          5.6790    1.7370   -5.3050 DU        1 DBT      0.204000
     22 H81         0.6140    1.9540    0.2110 hc        1 DBT      0.105000
     23 H82        -0.7660    1.8780   -0.5850 hc        1 DBT      0.105000
     24 H91         0.7560   -0.4060    0.1500 hc        1 DBT      0.086500
     25 H92        -0.6550   -0.4580   -0.5910 hc        1 DBT      0.086500
     26 H101       -1.6570    0.5560    1.2990 hc        1 DBT      0.080500
     27 H102       -0.2470    0.5260    2.0420 hc        1 DBT      0.080500
     28 H111       -1.6640   -1.7890    1.2070 hc        1 DBT      0.079500
     29 H112       -0.2440   -1.8260    1.9300 hc        1 DBT      0.079500
     30 H121       -1.1910   -0.8650    3.8510 hc        1 DBT      0.079000
     31 H122       -2.6100   -0.8060    3.1270 hc        1 DBT      0.079000
     32 H131       -2.6610   -3.1470    3.0180 hc        1 DBT      0.077500
     33 H132       -1.2300   -3.2180    3.7150 hc        1 DBT      0.077500
     34 H141       -3.5560   -2.1690    4.9640 hc        1 DBT      0.071333
     35 H142       -2.1250   -2.2550    5.6610 hc        1 DBT      0.071333
     36 H143       -2.9210   -3.5900    5.3100 hc        1 DBT      0.071333
@<TRIPOS>BOND
     1    1    2 1   
     2    1   20 1   
     3    2    3 1   
     4    2   11 1   
     5    3   13 1   
     6    4    5 1   
     7    4    6 1   
     8    6    7 1   
     9    6   10 1   
    10    7    8 1   
    11    8    9 1   
    12    9   10 1   
    13   11   12 1   
    14   13   14 1   
    15   13   22 1   
    16   13   23 1   
    17   14   15 1   
    18   14   24 1   
    19   14   25 1   
    20   15   16 1   
    21   15   26 1   
    22   15   27 1   
    23   16   17 1   
    24   16   28 1   
    25   16   29 1   
    26   17   18 1   
    27   17   30 1   
    28   17   31 1   
    29   18   19 1   
    30   18   32 1   
    31   18   33 1   
    32   19   34 1   
    33   19   35 1   
    34   19   36 1   
@<TRIPOS>SUBSTRUCTURE
     1 DBT         1 TEMP              0 ****  ****    0 ROOT
