@<TRIPOS>MOLECULE
DBT
   36    37     1     0     0
SMALL
bcc


@<TRIPOS>ATOM
      1 O6          0.0570    0.3650   -0.1210 oh        1 DBT     -0.480100
      2 C6          1.4190    0.2110   -0.0530 cc        1 DBT      0.046900
      3 C5          2.0020    0.0240    1.1570 cd        1 DBT     -0.178400
      4 C4          3.4660   -0.1370    1.2920 c         1 DBT      0.492800
      5 O4          4.0200   -0.2600    2.3860 o         1 DBT     -0.469100
      6 C4A         4.2260   -0.1310    0.0150 cc        1 DBT      0.323800
      7 C7A         3.5980    0.0650   -1.2330 cd        1 DBT     -0.300000
      8 S1          4.7300    0.0230   -2.4580 ss        1 DBT      0.080700
      9 C2          5.9690   -0.2460   -1.3400 cd        1 DBT      0.343300
     10 N3          5.5950   -0.3100   -0.0570 nc        1 DBT     -0.573000
     11 C7          2.1650    0.2640   -1.3410 c         1 DBT      0.596900
     12 O7          1.5600    0.4630   -2.4030 o         1 DBT     -0.524100
     13 C8          1.2100   -0.0160    2.4180 c3        1 DBT     -0.032200
     14 C9          1.0170   -1.4380    2.9120 c3        1 DBT     -0.074400
     15 C10         0.2110   -1.4570    4.1930 c3        1 DBT     -0.077400
     16 C11         0.0160   -2.8720    4.6940 c3        1 DBT     -0.079400
     17 C12        -0.7900   -2.8950    5.9750 c3        1 DBT     -0.079400
     18 C13        -0.9860   -4.3090    6.4780 c3        1 DBT     -0.080400
     19 C14        -1.7880   -4.3370    7.7530 c3        1 DBT     -0.092100
     20 HO6        -0.1860    0.5210   -1.0510 ho        1 DBT      0.444000
     21 H2          7.0230   -0.3640   -1.6150 h5        1 DBT      0.067100
     22 H81         0.2080    0.4640    2.2520 hc        1 DBT      0.065700
     23 H82         1.7520    0.5780    3.2040 hc        1 DBT      0.065700
     24 H91         2.0220   -1.9070    3.0890 hc        1 DBT      0.047200
     25 H92         0.4930   -2.0430    2.1270 hc        1 DBT      0.047200
     26 H101       -0.7880   -0.9790    4.0170 hc        1 DBT      0.041200
     27 H102        0.7360   -0.8500    4.9770 hc        1 DBT      0.041200
     28 H111       -0.5070   -3.4800    3.9100 hc        1 DBT      0.040200
     29 H112        1.0160   -3.3500    4.8710 hc        1 DBT      0.040200
     30 H121       -0.2670   -2.2870    6.7600 hc        1 DBT      0.039700
     31 H122       -1.7900   -2.4170    5.7990 hc        1 DBT      0.039700
     32 H131        0.0150   -4.7860    6.6520 hc        1 DBT      0.038200
     33 H132       -1.5080   -4.9160    5.6910 hc        1 DBT      0.038200
     34 H141       -1.9210   -5.3880    8.1060 hc        1 DBT      0.032033
     35 H142       -1.2720   -3.7580    8.5560 hc        1 DBT      0.032033
     36 H143       -2.7990   -3.8880    7.5930 hc        1 DBT      0.032033
@<TRIPOS>BOND
     1    1    2 1   
     2    1   20 1   
     3    2    3 2   
     4    2   11 1   
     5    3    4 1   
     6    3   13 1   
     7    4    5 2   
     8    4    6 1   
     9    6    7 2   
    10    6   10 1   
    11    7    8 1   
    12    7   11 1   
    13    8    9 1   
    14    9   10 2   
    15    9   21 1   
    16   11   12 2   
    17   13   14 1   
    18   13   22 1   
    19   13   23 1   
    20   14   15 1   
    21   14   24 1   
    22   14   25 1   
    23   15   16 1   
    24   15   26 1   
    25   15   27 1   
    26   16   17 1   
    27   16   28 1   
    28   16   29 1   
    29   17   18 1   
    30   17   30 1   
    31   17   31 1   
    32   18   19 1   
    33   18   32 1   
    34   18   33 1   
    35   19   34 1   
    36   19   35 1   
    37   19   36 1   
@<TRIPOS>SUBSTRUCTURE
     1 DBT         1 TEMP              0 ****  ****    0 ROOT
