@<TRIPOS>MOLECULE
DBT
   36    37     1     0     0
SMALL
bcc


@<TRIPOS>ATOM
      1 O6          2.6960   -0.6550   -0.5190 oh        1 DBT     -0.480100
      2 C6          1.4810   -0.4790   -1.1330 cc        1 DBT      0.046900
      3 C5          0.3470   -0.7440   -0.4360 cd        1 DBT     -0.178400
      4 C4         -0.9900   -0.5830   -1.0500 c         1 DBT      0.492800
      5 O4         -2.0300   -0.8630   -0.4510 o         1 DBT     -0.469100
      6 C4A        -0.9920   -0.0670   -2.4430 cc        1 DBT      0.323800
      7 C7A         0.2010    0.2010   -3.1470 cd        1 DBT     -0.300000
      8 S1         -0.1510    0.7580   -4.6810 ss        1 DBT      0.080700
      9 C2         -1.8080    0.6330   -4.3740 cd        1 DBT      0.343300
     10 N3         -2.1470    0.1860   -3.1600 nc        1 DBT     -0.573000
     11 C7          1.5040   -0.0030   -2.5440 c         1 DBT      0.596900
     12 O7          2.5850    0.1920   -3.1170 o         1 DBT     -0.524100
     13 C8          0.3780   -1.2230    0.9730 c3        1 DBT     -0.032200
     14 C9          0.0540   -0.1080    1.9500 c3        1 DBT     -0.074400
     15 C10         0.0910   -0.6150    3.3760 c3        1 DBT     -0.077400
     16 C11        -0.2340    0.4910    4.3570 c3        1 DBT     -0.079400
     17 C12        -0.1980   -0.0130    5.7840 c3        1 DBT     -0.079400
     18 C13        -0.5220    1.0920    6.7670 c3        1 DBT     -0.080400
     19 C14        -0.4870    0.5950    8.1890 c3        1 DBT     -0.092100
     20 HO6         3.3960   -0.4540   -1.1660 ho        1 DBT      0.444000
     21 H2         -2.5840    0.8940   -5.1030 h5        1 DBT      0.067100
     22 H81         1.3920   -1.6460    1.2070 hc        1 DBT      0.065700
     23 H82        -0.3770   -2.0490    1.0910 hc        1 DBT      0.065700
     24 H91        -0.9650    0.3010    1.7190 hc        1 DBT      0.047200
     25 H92         0.7920    0.7280    1.8280 hc        1 DBT      0.047200
     26 H101        1.1070   -1.0320    3.6020 hc        1 DBT      0.041200
     27 H102       -0.6460   -1.4530    3.4960 hc        1 DBT      0.041200
     28 H111       -1.2510    0.9070    4.1310 hc        1 DBT      0.040200
     29 H112        0.5010    1.3300    4.2360 hc        1 DBT      0.040200
     30 H121        0.8190   -0.4300    6.0100 hc        1 DBT      0.039700
     31 H122       -0.9330   -0.8520    5.9050 hc        1 DBT      0.039700
     32 H131       -1.5390    1.5080    6.5380 hc        1 DBT      0.038200
     33 H132        0.2130    1.9300    6.6420 hc        1 DBT      0.038200
     34 H141       -0.7290    1.4240    8.8960 hc        1 DBT      0.032033
     35 H142       -1.2310   -0.2250    8.3390 hc        1 DBT      0.032033
     36 H143        0.5250    0.1980    8.4430 hc        1 DBT      0.032033
@<TRIPOS>BOND
     1    1    2 1   
     2    1   20 1   
     3    2    3 2   
     4    2   11 1   
     5    3    4 1   
     6    3   13 1   
     7    4    5 2   
     8    4    6 1   
     9    6    7 2   
    10    6   10 1   
    11    7    8 1   
    12    7   11 1   
    13    8    9 1   
    14    9   10 2   
    15    9   21 1   
    16   11   12 2   
    17   13   14 1   
    18   13   22 1   
    19   13   23 1   
    20   14   15 1   
    21   14   24 1   
    22   14   25 1   
    23   15   16 1   
    24   15   26 1   
    25   15   27 1   
    26   16   17 1   
    27   16   28 1   
    28   16   29 1   
    29   17   18 1   
    30   17   30 1   
    31   17   31 1   
    32   18   19 1   
    33   18   32 1   
    34   18   33 1   
    35   19   34 1   
    36   19   35 1   
    37   19   36 1   
@<TRIPOS>SUBSTRUCTURE
     1 DBT         1 TEMP              0 ****  ****    0 ROOT
