@<TRIPOS>MOLECULE
DBU
   13    11     1     0     0
SMALL
bcc


@<TRIPOS>ATOM
      1 N          -1.3600   -0.0000   -0.6170 n3        1 DBU     -0.315000
      2 CA          0.0590   -0.0000   -0.6170 c2        1 DBU     -0.052000
      3 CB          0.7330   -0.0000    0.5500 c1        1 DBU     -0.300000
      4 CG         -0.0240   -0.0000    1.8600 c2        1 DBU     -0.143000
      5 C           0.8150   -0.0000   -1.9280 c2        1 DBU      0.358000
      6 O           1.1300   -1.0900   -2.4730 o         1 DBU     -0.567000
      7 OXT         1.1300    1.0900   -2.4730 o         1 DBU     -0.567000
      8 H          -1.8160   -0.7900   -0.6380 hn        1 DBU      0.156500
      9 H2         -1.8160    0.7900   -0.6380 hn        1 DBU      0.156500
     10 HB          1.7090   -0.0000    0.5500 ha        1 DBU      0.140000
     11 HG1        -0.5850    0.7970    1.9120 ha        1 DBU      0.044333
     12 HG2        -0.5850   -0.7970    1.9120 ha        1 DBU      0.044333
     13 HG3         0.6100    0.0000    2.6020 ha        1 DBU      0.044333
@<TRIPOS>BOND
     1    1    2 1   
     2    1    8 1   
     3    1    9 1   
     4    2    3 1   
     5    2    5 1   
     6    3   10 1   
     7    4   11 1   
     8    4   12 1   
     9    4   13 1   
    10    5    6 1   
    11    5    7 1   
@<TRIPOS>SUBSTRUCTURE
     1 DBU         1 TEMP              0 ****  ****    0 ROOT
