@<TRIPOS>MOLECULE
DBU
   13    12     1     0     0
SMALL
bcc


@<TRIPOS>ATOM
      1 N           0.9420    2.3350   -0.8350 nh        1 DBU     -0.806600
      2 CA          2.0650    1.5020   -0.9490 ce        1 DBU      0.010800
      3 CB          2.1030    0.2260   -0.5010 c2        1 DBU     -0.304200
      4 CG          0.9630   -0.4960    0.0850 c3        1 DBU     -0.020900
      5 C           3.3140    2.1140   -1.6170 c         1 DBU      0.907800
      6 O           4.4430    1.6390   -1.3270 o         1 DBU     -0.832300
      7 OXT         3.1190    3.0510   -2.4470 o         1 DBU     -0.832300
      8 H           1.0190    3.1220   -1.4530 hn        1 DBU      0.361300
      9 H2          0.0810    1.8470   -0.9700 hn        1 DBU      0.361300
     10 HB          3.0630   -0.3090   -0.5590 ha        1 DBU      0.140000
     11 HG1         0.0730   -0.4760   -0.5970 hc        1 DBU      0.005033
     12 HG2         0.6510   -0.0370    1.0570 hc        1 DBU      0.005033
     13 HG3         1.2220   -1.5670    0.2760 hc        1 DBU      0.005033
@<TRIPOS>BOND
     1    1    2 1   
     2    1    8 1   
     3    1    9 1   
     4    2    3 2   
     5    2    5 1   
     6    3    4 1   
     7    3   10 1   
     8    4   11 1   
     9    4   12 1   
    10    4   13 1   
    11    5    6 1   
    12    5    7 1   
@<TRIPOS>SUBSTRUCTURE
     1 DBU         1 TEMP              0 ****  ****    0 ROOT
