@<TRIPOS>MOLECULE
DBV
   77    80     1     0     0
SMALL
bcc


@<TRIPOS>ATOM
      1 NA          0.1670    0.0830    0.5200 ns        1 DBV     -0.466100
      2 C1A         1.5420    0.1700    0.8090 c         1 DBV      0.686700
      3 C2A         1.6690    0.4390    2.2830 cc        1 DBV     -0.191400
      4 C3A         0.4060    0.5820    2.7970 cd        1 DBV      0.000000
      5 C4A        -0.5800    0.4000    1.6920 cd        1 DBV     -0.048400
      6 CMA         2.9780    0.5040    2.9290 c3        1 DBV     -0.032900
      7 CBA         0.7620    1.3780    5.0980 c2        1 DBV     -0.209000
      8 OA          2.4500    0.0150   -0.0240 o         1 DBV     -0.645500
      9 CHA        -1.9250    0.4990    1.8140 ce        1 DBV     -0.028200
     10 CAA        -0.0040    0.8220    4.1560 cf        1 DBV     -0.110000
     11 NB         -2.7670   -0.4320   -0.3670 na        1 DBV     -0.144100
     12 C1B        -2.9220    0.2900    0.8150 cc        1 DBV     -0.143100
     13 C2B        -4.2540    0.7990    0.8500 cd        1 DBV     -0.081300
     14 C3B        -4.9110    0.3630   -0.3410 cd        1 DBV     -0.071300
     15 C4B        -3.9690   -0.4180   -1.0770 cc        1 DBV     -0.096100
     16 CHB        -4.1720   -1.0800   -2.3350 ce        1 DBV      0.028800
     17 CMB        -4.8300    1.6270    1.9100 c3        1 DBV     -0.067800
     18 CAB        -6.3060    0.6750   -0.6960 c3        1 DBV     -0.020100
     19 CBB        -6.5520    2.1580   -0.9090 c3        1 DBV     -0.192400
     20 CGB        -7.7130    2.7050   -0.0610 c         1 DBV      0.905600
     21 O1B        -7.9260    2.2080    1.0870 o         1 DBV     -0.852800
     22 O2B        -8.3890    3.6610   -0.5380 o         1 DBV     -0.852800
     23 CHC         0.2160   -2.6760   -3.8850 c3        1 DBV     -0.113700
     24 NC         -1.8300   -1.7800   -2.7720 nd        1 DBV     -0.626300
     25 C1C        -3.2290   -1.6960   -3.0900 cd        1 DBV      0.035600
     26 C2C        -3.4490   -2.3740   -4.4060 cd        1 DBV     -0.030200
     27 C3C        -2.2140   -2.8150   -4.8290 cc        1 DBV     -0.256800
     28 C4C        -1.2430   -2.4190   -3.7750 cc        1 DBV      0.421600
     29 CMC        -1.8750   -3.5240   -6.0620 c3        1 DBV     -0.061900
     30 CAC        -4.7320   -2.5160   -5.1100 c3        1 DBV     -0.033200
     31 CBC        -5.1740   -3.9620   -5.2610 c3        1 DBV     -0.191400
     32 CGC        -5.4440   -4.3570   -6.7240 c         1 DBV      0.906600
     33 O1C        -4.7360   -3.8400   -7.6400 o         1 DBV     -0.851800
     34 O2C        -6.3480   -5.2130   -6.9420 o         1 DBV     -0.851800
     35 ND          0.4300   -4.8080   -2.5500 ns        1 DBV     -0.546900
     36 C1D         0.7850   -3.3910   -2.6560 c3        1 DBV      0.105900
     37 C2D         2.3190   -3.3890   -2.6660 c2        1 DBV     -0.061400
     38 C3D         2.7760   -4.6730   -2.6520 ce        1 DBV     -0.167200
     39 C4D         1.5840   -5.6010   -2.6530 c         1 DBV      0.689700
     40 CMD         3.0610   -2.1290   -2.6350 c3        1 DBV     -0.070900
     41 CAD         4.1420   -5.1230   -2.6390 ce        1 DBV     -0.106000
     42 CBD         4.5330   -6.3990   -2.6640 c2        1 DBV     -0.211000
     43 OD          1.5800   -6.8420   -2.6860 o         1 DBV     -0.640500
     44 HNA        -0.1940    0.2420   -0.3890 hn        1 DBV      0.339500
     45 HMA1        2.9600   -0.0160    3.9200 hc        1 DBV      0.045700
     46 HMA2        3.2790    1.5700    3.0990 hc        1 DBV      0.045700
     47 HMA3        3.7530    0.0220    2.2800 hc        1 DBV      0.045700
     48 HBA1        0.3960    1.5360    6.1210 ha        1 DBV      0.111500
     49 HBA2        1.7880    1.7210    4.9110 ha        1 DBV      0.111500
     50 HHA1       -2.3420    0.8120    2.7910 ha        1 DBV      0.148000
     51 HAA1       -1.0370    0.5080    4.3970 ha        1 DBV      0.136000
     52 HNB        -1.9990   -1.0180   -0.5820 hn        1 DBV      0.316700
     53 HHB1       -5.2160   -1.0580   -2.7030 ha        1 DBV      0.162000
     54 HMB1       -4.6950    1.1400    2.9090 hc        1 DBV      0.061700
     55 HMB2       -5.9330    1.7910    1.7280 hc        1 DBV      0.061700
     56 HMB3       -4.3290    2.6280    1.9410 hc        1 DBV      0.061700
     57 HAB1       -6.9690    0.3260    0.1500 hc        1 DBV      0.057700
     58 HAB2       -6.6060    0.1040   -1.6140 hc        1 DBV      0.057700
     59 HBB1       -6.7690    2.3580   -1.9880 hc        1 DBV      0.031700
     60 HBB2       -5.6430    2.7500   -0.6300 hc        1 DBV      0.031700
     61 HHC1        0.7510   -1.6920   -3.9900 hc        1 DBV      0.067200
     62 HHC2        0.4110   -3.2730   -4.8150 hc        1 DBV      0.067200
     63 HMC1       -1.1310   -2.9410   -6.6600 hc        1 DBV      0.057367
     64 HMC2       -1.4300   -4.5250   -5.8320 hc        1 DBV      0.057367
     65 HMC3       -2.8020   -3.6800   -6.6900 hc        1 DBV      0.057367
     66 HAC1       -5.5300   -1.9280   -4.5850 hc        1 DBV      0.060200
     67 HAC2       -4.6140   -2.0780   -6.1460 hc        1 DBV      0.060200
     68 HBC1       -6.1010   -4.1410   -4.6630 hc        1 DBV      0.032200
     69 HBC2       -4.3830   -4.6570   -4.8800 hc        1 DBV      0.032200
     70 HND        -0.4480   -5.1180   -2.8870 hn        1 DBV      0.332500
     71 H1D1        0.4270   -2.8700   -1.7190 h1        1 DBV      0.101700
     72 HMD1        2.9150   -1.5690   -3.5950 hc        1 DBV      0.062367
     73 HMD2        2.6930   -1.4790   -1.7950 hc        1 DBV      0.062367
     74 HMD3        4.1560   -2.3010   -2.4930 hc        1 DBV      0.062367
     75 HAD1        4.8920   -4.3110   -2.6050 ha        1 DBV      0.112000
     76 HBD1        3.8220   -7.2370   -2.6980 ha        1 DBV      0.121500
     77 HBD2        5.5950   -6.6750   -2.6520 ha        1 DBV      0.121500
@<TRIPOS>BOND
     1    1    2 1   
     2    1    5 1   
     3    1   44 1   
     4    2    3 1   
     5    2    8 2   
     6    3    4 2   
     7    3    6 1   
     8    4    5 1   
     9    4   10 1   
    10    5    9 2   
    11    6   45 1   
    12    6   46 1   
    13    6   47 1   
    14    7   10 2   
    15    7   48 1   
    16    7   49 1   
    17    9   12 1   
    18    9   50 1   
    19   10   51 1   
    20   11   12 1   
    21   11   15 1   
    22   11   52 1   
    23   12   13 2   
    24   13   14 1   
    25   13   17 1   
    26   14   15 2   
    27   14   18 1   
    28   15   16 1   
    29   16   25 2   
    30   16   53 1   
    31   17   54 1   
    32   17   55 1   
    33   17   56 1   
    34   18   19 1   
    35   18   57 1   
    36   18   58 1   
    37   19   20 1   
    38   19   59 1   
    39   19   60 1   
    40   20   21 1   
    41   20   22 1   
    42   23   28 1   
    43   23   36 1   
    44   23   61 1   
    45   23   62 1   
    46   24   25 1   
    47   24   28 2   
    48   25   26 1   
    49   26   27 2   
    50   26   30 1   
    51   27   28 1   
    52   27   29 1   
    53   29   63 1   
    54   29   64 1   
    55   29   65 1   
    56   30   31 1   
    57   30   66 1   
    58   30   67 1   
    59   31   32 1   
    60   31   68 1   
    61   31   69 1   
    62   32   33 1   
    63   32   34 1   
    64   35   36 1   
    65   35   39 1   
    66   35   70 1   
    67   36   37 1   
    68   36   71 1   
    69   37   38 2   
    70   37   40 1   
    71   38   39 1   
    72   38   41 1   
    73   39   43 2   
    74   40   72 1   
    75   40   73 1   
    76   40   74 1   
    77   41   42 2   
    78   41   75 1   
    79   42   76 1   
    80   42   77 1   
@<TRIPOS>SUBSTRUCTURE
     1 DBV         1 TEMP              0 ****  ****    0 ROOT
