@<TRIPOS>MOLECULE
DBV
   77    80     1     0     0
SMALL
bcc


@<TRIPOS>ATOM
      1 NA          1.9170   -0.8130    2.5620 n         1 DBV     -0.466100
      2 C1A         1.8540   -1.1740    3.9220 c         1 DBV      0.686700
      3 C2A         3.1170   -0.6780    4.5710 cc        1 DBV     -0.191400
      4 C3A         3.9070   -0.1290    3.5940 cd        1 DBV      0.000000
      5 C4A         3.1900   -0.2320    2.2900 cd        1 DBV     -0.048400
      6 CMA         3.3320   -0.8190    6.0090 c3        1 DBV     -0.032900
      7 CBA         6.0620    0.2910    4.7060 c2        1 DBV     -0.209000
      8 OA          0.8980   -1.7630    4.4520 o         1 DBV     -0.645500
      9 CHA         3.6720    0.1790    1.0930 ce        1 DBV     -0.028200
     10 CAA         5.1970    0.5010    3.7100 cf        1 DBV     -0.110000
     11 NB          1.6490    0.0820   -0.4020 na        1 DBV     -0.144100
     12 C1B         3.0230    0.1560   -0.1790 cc        1 DBV     -0.143100
     13 C2B         3.6760    0.1910   -1.4460 cd        1 DBV     -0.081300
     14 C3B         2.6630    0.1430   -2.4510 cd        1 DBV     -0.071300
     15 C4B         1.4060    0.0930   -1.7770 cc        1 DBV     -0.096100
     16 CHB         0.0970    0.0460   -2.3660 ce        1 DBV      0.028800
     17 CMB         5.1220    0.2520   -1.6670 c3        1 DBV     -0.067800
     18 CAB         2.9150    0.1580   -3.9030 c3        1 DBV     -0.020100
     19 CBB         3.6830   -1.0580   -4.3890 c3        1 DBV     -0.192400
     20 CGB         4.9430   -0.6950   -5.1930 c         1 DBV      0.905600
     21 O1B         5.5880    0.3530   -4.8870 o         1 DBV     -0.852800
     22 O2B         5.3030   -1.4870   -6.1100 o         1 DBV     -0.852800
     23 CHC        -3.1120   -0.8740    1.2490 c3        1 DBV     -0.113700
     24 NC         -1.2250   -0.3670   -0.3040 nd        1 DBV     -0.626300
     25 C1C        -1.0790   -0.1470   -1.7180 cd        1 DBV      0.035600
     26 C2C        -2.4380   -0.2030   -2.3420 cd        1 DBV     -0.030200
     27 C3C        -3.3260   -0.4620   -1.3210 cc        1 DBV     -0.256800
     28 C4C        -2.5180   -0.5550   -0.0750 cc        1 DBV      0.421600
     29 CMC        -4.7760   -0.6300   -1.3980 c3        1 DBV     -0.061900
     30 CAC        -2.7490   -0.0360   -3.7700 c3        1 DBV     -0.033200
     31 CBC        -3.6060    1.1860   -4.0540 c3        1 DBV     -0.191400
     32 CGC        -4.9000    0.8470   -4.8140 c         1 DBV      0.906600
     33 O1C        -5.4770   -0.2590   -4.5830 o         1 DBV     -0.851800
     34 O2C        -5.3490    1.7100   -5.6200 o         1 DBV     -0.851800
     35 ND         -3.4070    1.4410    2.2130 n         1 DBV     -0.546900
     36 C1D        -2.7330    0.1450    2.3270 c3        1 DBV      0.105900
     37 C2D        -3.1140   -0.3520    3.7270 c2        1 DBV     -0.061400
     38 C3D        -3.9760    0.5300    4.3050 ce        1 DBV     -0.167200
     39 C4D        -4.2370    1.6500    3.3250 c         1 DBV      0.689700
     40 CMD        -2.5230   -1.5770    4.2670 c3        1 DBV     -0.070900
     41 CAD        -4.5660    0.4580    5.6140 ce        1 DBV     -0.106000
     42 CBD        -5.4400    1.3340    6.1160 c2        1 DBV     -0.211000
     43 OD         -4.9980    2.6210    3.4580 o         1 DBV     -0.640500
     44 HNA         1.3990   -1.2870    1.8640 hn        1 DBV      0.339500
     45 HMA1        2.3590   -1.0110    6.5280 hc        1 DBV      0.045700
     46 HMA2        4.0170   -1.6800    6.2210 hc        1 DBV      0.045700
     47 HMA3        3.7960    0.1070    6.4350 hc        1 DBV      0.045700
     48 HBA1        7.0330    0.8020    4.7430 ha        1 DBV      0.111500
     49 HBA2        5.8680   -0.4050    5.5320 ha        1 DBV      0.111500
     50 HHA1        4.7110    0.5590    1.0480 ha        1 DBV      0.148000
     51 HAA1        5.4510    1.2030    2.8940 ha        1 DBV      0.136000
     52 HNB         0.9510    0.1960    0.2890 hn        1 DBV      0.316700
     53 HHB1        0.0820    0.1770   -3.4650 ha        1 DBV      0.162000
     54 HMB1        5.6110   -0.6920   -1.3160 hc        1 DBV      0.061700
     55 HMB2        5.3490    0.3790   -2.7660 hc        1 DBV      0.061700
     56 HMB3        5.5720    1.1080   -1.1030 hc        1 DBV      0.061700
     57 HAB1        1.9460    0.2420   -4.4610 hc        1 DBV      0.057700
     58 HAB2        3.5250    1.0780   -4.1430 hc        1 DBV      0.057700
     59 HBB1        4.0230   -1.6800   -3.5210 hc        1 DBV      0.031700
     60 HBB2        3.0220   -1.6980   -5.0260 hc        1 DBV      0.031700
     61 HHC1       -2.7400   -1.8820    1.5800 hc        1 DBV      0.067200
     62 HHC2       -4.2280   -0.9390    1.1410 hc        1 DBV      0.067200
     63 HMC1       -5.0770   -1.6400   -1.0210 hc        1 DBV      0.057367
     64 HMC2       -5.2970    0.1420   -0.7780 hc        1 DBV      0.057367
     65 HMC3       -5.1250   -0.5250   -2.4680 hc        1 DBV      0.057367
     66 HAC1       -1.8030    0.0160   -4.3700 hc        1 DBV      0.060200
     67 HAC2       -3.3200   -0.9490   -4.1130 hc        1 DBV      0.060200
     68 HBC1       -3.9140    1.6820   -3.0980 hc        1 DBV      0.032200
     69 HBC2       -3.0220    1.9300   -4.6510 hc        1 DBV      0.032200
     70 HND        -3.6350    1.7950    1.3170 hn        1 DBV      0.332500
     71 H1D1       -1.6180    0.3270    2.2970 h1        1 DBV      0.101700
     72 HMD1       -2.7810   -1.7160    5.3460 hc        1 DBV      0.062367
     73 HMD2       -2.8940   -2.4690    3.6990 hc        1 DBV      0.062367
     74 HMD3       -1.4040   -1.5460    4.1720 hc        1 DBV      0.062367
     75 HAD1       -4.2400   -0.4100    6.2180 ha        1 DBV      0.112000
     76 HBD1       -5.8530    1.2200    7.1260 ha        1 DBV      0.121500
     77 HBD2       -5.7910    2.2110    5.5520 ha        1 DBV      0.121500
@<TRIPOS>BOND
     1    1    2 1   
     2    1    5 1   
     3    1   44 1   
     4    2    3 1   
     5    2    8 2   
     6    3    4 2   
     7    3    6 1   
     8    4    5 1   
     9    4   10 1   
    10    5    9 2   
    11    6   45 1   
    12    6   46 1   
    13    6   47 1   
    14    7   10 2   
    15    7   48 1   
    16    7   49 1   
    17    9   12 1   
    18    9   50 1   
    19   10   51 1   
    20   11   12 1   
    21   11   15 1   
    22   11   52 1   
    23   12   13 2   
    24   13   14 1   
    25   13   17 1   
    26   14   15 2   
    27   14   18 1   
    28   15   16 1   
    29   16   25 2   
    30   16   53 1   
    31   17   54 1   
    32   17   55 1   
    33   17   56 1   
    34   18   19 1   
    35   18   57 1   
    36   18   58 1   
    37   19   20 1   
    38   19   59 1   
    39   19   60 1   
    40   20   21 1   
    41   20   22 1   
    42   23   28 1   
    43   23   36 1   
    44   23   61 1   
    45   23   62 1   
    46   24   25 1   
    47   24   28 2   
    48   25   26 1   
    49   26   27 2   
    50   26   30 1   
    51   27   28 1   
    52   27   29 1   
    53   29   63 1   
    54   29   64 1   
    55   29   65 1   
    56   30   31 1   
    57   30   66 1   
    58   30   67 1   
    59   31   32 1   
    60   31   68 1   
    61   31   69 1   
    62   32   33 1   
    63   32   34 1   
    64   35   36 1   
    65   35   39 1   
    66   35   70 1   
    67   36   37 1   
    68   36   71 1   
    69   37   38 2   
    70   37   40 1   
    71   38   39 1   
    72   38   41 1   
    73   39   43 2   
    74   40   72 1   
    75   40   73 1   
    76   40   74 1   
    77   41   42 2   
    78   41   75 1   
    79   42   76 1   
    80   42   77 1   
@<TRIPOS>SUBSTRUCTURE
     1 DBV         1 TEMP              0 ****  ****    0 ROOT
