@<TRIPOS>MOLECULE
DBV
   77    80     1     0     0
SMALL
bcc


@<TRIPOS>ATOM
      1 NA          0.1700    0.0920    0.5090 n         1 DBV     -0.466100
      2 C1A         1.5460    0.1850    0.7920 c         1 DBV      0.686700
      3 C2A         1.6790    0.4580    2.2650 cc        1 DBV     -0.191400
      4 C3A         0.4170    0.5990    2.7840 cd        1 DBV      0.000000
      5 C4A        -0.5720    0.4110    1.6830 cd        1 DBV     -0.048400
      6 CMA         2.9900    0.5290    2.9040 c3        1 DBV     -0.032900
      7 CBA         0.7820    1.4040    5.0810 c2        1 DBV     -0.209000
      8 OA          2.4510    0.0300   -0.0450 o         1 DBV     -0.645500
      9 CHA        -1.9170    0.5070    1.8120 ce        1 DBV     -0.028200
     10 CAA         0.0130    0.8420    4.1440 cf        1 DBV     -0.110000
     11 NB         -2.7660   -0.4340   -0.3630 na        1 DBV     -0.144100
     12 C1B        -2.9190    0.2910    0.8170 cc        1 DBV     -0.143100
     13 C2B        -4.2520    0.7960    0.8580 cd        1 DBV     -0.081300
     14 C3B        -4.9130    0.3550   -0.3290 cd        1 DBV     -0.071300
     15 C4B        -3.9720   -0.4250   -1.0670 cc        1 DBV     -0.096100
     16 CHB        -4.1790   -1.0910   -2.3230 ce        1 DBV      0.028800
     17 CMB        -4.8260    1.6250    1.9190 c3        1 DBV     -0.067800
     18 CAB        -6.3110    0.6610   -0.6780 c3        1 DBV     -0.020100
     19 CBB        -6.5630    2.1420   -0.8950 c3        1 DBV     -0.192400
     20 CGB        -7.7220    2.6890   -0.0430 c         1 DBV      0.905600
     21 O1B        -7.9270    2.1950    1.1080 o         1 DBV     -0.852800
     22 O2B        -8.4030    3.6400   -0.5200 o         1 DBV     -0.852800
     23 CHC         0.2080   -2.6700   -3.8940 c3        1 DBV     -0.113700
     24 NC         -1.8360   -1.7810   -2.7710 nd        1 DBV     -0.626300
     25 C1C        -3.2380   -1.7050   -3.0810 cd        1 DBV      0.035600
     26 C2C        -3.4620   -2.3890   -4.3940 cd        1 DBV     -0.030200
     27 C3C        -2.2270   -2.8250   -4.8230 cc        1 DBV     -0.256800
     28 C4C        -1.2520   -2.4210   -3.7750 cc        1 DBV      0.421600
     29 CMC        -1.8930   -3.5360   -6.0560 c3        1 DBV     -0.061900
     30 CAC        -4.7490   -2.5390   -5.0900 c3        1 DBV     -0.033200
     31 CBC        -5.1850   -3.9880   -5.2310 c3        1 DBV     -0.191400
     32 CGC        -5.4620   -4.3900   -6.6910 c         1 DBV      0.906600
     33 O1C        -4.7620   -3.8740   -7.6140 o         1 DBV     -0.851800
     34 O2C        -6.3630   -5.2510   -6.9000 o         1 DBV     -0.851800
     35 ND          0.4380   -4.8070   -2.5680 n         1 DBV     -0.546900
     36 C1D         0.7850   -3.3880   -2.6700 c3        1 DBV      0.105900
     37 C2D         2.3180   -3.3790   -2.6870 c2        1 DBV     -0.061400
     38 C3D         2.7820   -4.6600   -2.6800 ce        1 DBV     -0.167200
     39 C4D         1.5950   -5.5940   -2.6790 c         1 DBV      0.689700
     40 CMD         3.0550   -2.1150   -2.6550 c3        1 DBV     -0.070900
     41 CAD         4.1500   -5.1030   -2.6740 ce        1 DBV     -0.106000
     42 CBD         4.5480   -6.3770   -2.7080 c2        1 DBV     -0.211000
     43 OD          1.5970   -6.8350   -2.7170 o         1 DBV     -0.640500
     44 HNA        -0.1960    0.2470   -0.3980 hn        1 DBV      0.339500
     45 HMA1        3.2890    1.5970    3.0700 hc        1 DBV      0.045700
     46 HMA2        3.7640    0.0480    2.2530 hc        1 DBV      0.045700
     47 HMA3        2.9780    0.0120    3.8970 hc        1 DBV      0.045700
     48 HBA1        0.4190    1.5640    6.1040 ha        1 DBV      0.111500
     49 HBA2        1.8060    1.7490    4.8880 ha        1 DBV      0.111500
     50 HHA1       -2.3310    0.8210    2.7890 ha        1 DBV      0.148000
     51 HAA1       -1.0180    0.5270    4.3900 ha        1 DBV      0.136000
     52 HNB        -1.9980   -1.0170   -0.5810 hn        1 DBV      0.316700
     53 HHB1       -5.2260   -1.0760   -2.6840 ha        1 DBV      0.162000
     54 HMB1       -5.9300    1.7860    1.7410 hc        1 DBV      0.061700
     55 HMB2       -4.6860    1.1400    2.9170 hc        1 DBV      0.061700
     56 HMB3       -4.3270    2.6270    1.9440 hc        1 DBV      0.061700
     57 HAB1       -6.6140    0.0870   -1.5930 hc        1 DBV      0.057700
     58 HAB2       -6.9690    0.3120    0.1720 hc        1 DBV      0.057700
     59 HBB1       -6.7850    2.3380   -1.9730 hc        1 DBV      0.031700
     60 HBB2       -5.6540    2.7380   -0.6220 hc        1 DBV      0.031700
     61 HHC1        0.4010   -3.2640   -4.8270 hc        1 DBV      0.067200
     62 HHC2        0.7380   -1.6840   -3.9980 hc        1 DBV      0.067200
     63 HMC1       -2.8230   -3.7010   -6.6760 hc        1 DBV      0.057367
     64 HMC2       -1.4390   -4.5330   -5.8250 hc        1 DBV      0.057367
     65 HMC3       -1.1570   -2.9500   -6.6610 hc        1 DBV      0.057367
     66 HAC1       -5.5460   -1.9520   -4.5620 hc        1 DBV      0.060200
     67 HAC2       -4.6390   -2.1050   -6.1280 hc        1 DBV      0.060200
     68 HBC1       -4.3890   -4.6770   -4.8520 hc        1 DBV      0.032200
     69 HBC2       -6.1080   -4.1680   -4.6270 hc        1 DBV      0.032200
     70 HND        -0.4410   -5.1190   -2.9030 hn        1 DBV      0.332500
     71 H1D1        0.4290   -2.8720   -1.7300 h1        1 DBV      0.101700
     72 HMD1        2.9040   -1.5540   -3.6140 hc        1 DBV      0.062367
     73 HMD2        2.6850   -1.4680   -1.8130 hc        1 DBV      0.062367
     74 HMD3        4.1510   -2.2820   -2.5150 hc        1 DBV      0.062367
     75 HAD1        4.8970   -4.2880   -2.6390 ha        1 DBV      0.112000
     76 HBD1        3.8400   -7.2190   -2.7430 ha        1 DBV      0.121500
     77 HBD2        5.6110   -6.6480   -2.7010 ha        1 DBV      0.121500
@<TRIPOS>BOND
     1    1    2 1   
     2    1    5 1   
     3    1   44 1   
     4    2    3 1   
     5    2    8 2   
     6    3    4 2   
     7    3    6 1   
     8    4    5 1   
     9    4   10 1   
    10    5    9 2   
    11    6   45 1   
    12    6   46 1   
    13    6   47 1   
    14    7   10 2   
    15    7   48 1   
    16    7   49 1   
    17    9   12 1   
    18    9   50 1   
    19   10   51 1   
    20   11   12 1   
    21   11   15 1   
    22   11   52 1   
    23   12   13 2   
    24   13   14 1   
    25   13   17 1   
    26   14   15 2   
    27   14   18 1   
    28   15   16 1   
    29   16   25 2   
    30   16   53 1   
    31   17   54 1   
    32   17   55 1   
    33   17   56 1   
    34   18   19 1   
    35   18   57 1   
    36   18   58 1   
    37   19   20 1   
    38   19   59 1   
    39   19   60 1   
    40   20   21 1   
    41   20   22 1   
    42   23   28 1   
    43   23   36 1   
    44   23   61 1   
    45   23   62 1   
    46   24   25 1   
    47   24   28 2   
    48   25   26 1   
    49   26   27 2   
    50   26   30 1   
    51   27   28 1   
    52   27   29 1   
    53   29   63 1   
    54   29   64 1   
    55   29   65 1   
    56   30   31 1   
    57   30   66 1   
    58   30   67 1   
    59   31   32 1   
    60   31   68 1   
    61   31   69 1   
    62   32   33 1   
    63   32   34 1   
    64   35   36 1   
    65   35   39 1   
    66   35   70 1   
    67   36   37 1   
    68   36   71 1   
    69   37   38 2   
    70   37   40 1   
    71   38   39 1   
    72   38   41 1   
    73   39   43 2   
    74   40   72 1   
    75   40   73 1   
    76   40   74 1   
    77   41   42 2   
    78   41   75 1   
    79   42   76 1   
    80   42   77 1   
@<TRIPOS>SUBSTRUCTURE
     1 DBV         1 TEMP              0 ****  ****    0 ROOT
