@<TRIPOS>MOLECULE
DBV
   77    80     1     0     0
SMALL
bcc


@<TRIPOS>ATOM
      1 NA          0.1610    0.0820    0.5270 n         1 DBV     -0.466100
      2 C1A         1.5360    0.1720    0.8180 c         1 DBV      0.686700
      3 C2A         1.6600    0.4390    2.2930 cc        1 DBV     -0.191400
      4 C3A         0.3960    0.5790    2.8050 cd        1 DBV      0.000000
      5 C4A        -0.5880    0.3960    1.6980 cd        1 DBV     -0.048400
      6 CMA         2.9680    0.5060    2.9410 c3        1 DBV     -0.032900
      7 CBA         0.7470    1.3740    5.1080 c2        1 DBV     -0.209000
      8 OA          2.4450    0.0200   -0.0140 o         1 DBV     -0.645500
      9 CHA        -1.9330    0.4920    1.8190 ce        1 DBV     -0.028200
     10 CAA        -0.0170    0.8160    4.1640 cf        1 DBV     -0.110000
     11 NB         -2.7700   -0.4380   -0.3650 na        1 DBV     -0.144100
     12 C1B        -2.9290    0.2820    0.8180 cc        1 DBV     -0.143100
     13 C2B        -4.2630    0.7880    0.8530 cd        1 DBV     -0.081300
     14 C3B        -4.9160    0.3520   -0.3400 cd        1 DBV     -0.071300
     15 C4B        -3.9720   -0.4250   -1.0760 cc        1 DBV     -0.096100
     16 CHB        -4.1720   -1.0860   -2.3360 ce        1 DBV      0.028800
     17 CMB        -4.8410    1.6130    1.9140 c3        1 DBV     -0.067800
     18 CAB        -6.3120    0.6610   -0.6960 c3        1 DBV     -0.020100
     19 CBB        -6.5610    2.1440   -0.9080 c3        1 DBV     -0.192400
     20 CGB        -7.7250    2.6880   -0.0600 c         1 DBV      0.905600
     21 O1B        -7.9370    2.1890    1.0870 o         1 DBV     -0.852800
     22 O2B        -8.4020    3.6420   -0.5370 o         1 DBV     -0.852800
     23 CHC         0.2220   -2.6630   -3.8860 c3        1 DBV     -0.113700
     24 NC         -1.8270   -1.7770   -2.7720 nd        1 DBV     -0.626300
     25 C1C        -3.2270   -1.6970   -3.0910 cd        1 DBV      0.035600
     26 C2C        -3.4440   -2.3750   -4.4080 cd        1 DBV     -0.030200
     27 C3C        -2.2070   -2.8100   -4.8310 cc        1 DBV     -0.256800
     28 C4C        -1.2380   -2.4120   -3.7760 cc        1 DBV      0.421600
     29 CMC        -1.8660   -3.5160   -6.0650 c3        1 DBV     -0.061900
     30 CAC        -4.7270   -2.5200   -5.1130 c3        1 DBV     -0.033200
     31 CBC        -5.1630   -3.9670   -5.2650 c3        1 DBV     -0.191400
     32 CGC        -5.4310   -4.3620   -6.7280 c         1 DBV      0.906600
     33 O1C        -4.7250   -3.8410   -7.6440 o         1 DBV     -0.851800
     34 O2C        -6.3320   -5.2200   -6.9480 o         1 DBV     -0.851800
     35 ND          0.4420   -4.8030   -2.5630 n         1 DBV     -0.546900
     36 C1D         0.7920   -3.3840   -2.6610 c3        1 DBV      0.105900
     37 C2D         2.3260   -3.3770   -2.6690 c2        1 DBV     -0.061400
     38 C3D         2.7870   -4.6590   -2.6620 ce        1 DBV     -0.167200
     39 C4D         1.5990   -5.5910   -2.6690 c         1 DBV      0.689700
     40 CMD         3.0630   -2.1140   -2.6300 c3        1 DBV     -0.070900
     41 CAD         4.1550   -5.1040   -2.6500 ce        1 DBV     -0.106000
     42 CBD         4.5510   -6.3780   -2.6830 c2        1 DBV     -0.211000
     43 OD          1.5990   -6.8320   -2.7100 o         1 DBV     -0.640500
     44 HNA        -0.1990    0.2410   -0.3820 hn        1 DBV      0.339500
     45 HMA1        3.2660    1.5730    3.1130 hc        1 DBV      0.045700
     46 HMA2        3.7450    0.0270    2.2920 hc        1 DBV      0.045700
     47 HMA3        2.9490   -0.0140    3.9320 hc        1 DBV      0.045700
     48 HBA1        0.3780    1.5290    6.1300 ha        1 DBV      0.111500
     49 HBA2        1.7720    1.7190    4.9220 ha        1 DBV      0.111500
     50 HHA1       -2.3530    0.8020    2.7960 ha        1 DBV      0.148000
     51 HAA1       -1.0500    0.5000    4.4030 ha        1 DBV      0.136000
     52 HNB        -2.0010   -1.0210   -0.5800 hn        1 DBV      0.316700
     53 HHB1       -5.2160   -1.0670   -2.7040 ha        1 DBV      0.162000
     54 HMB1       -4.7080    1.1240    2.9110 hc        1 DBV      0.061700
     55 HMB2       -5.9440    1.7760    1.7300 hc        1 DBV      0.061700
     56 HMB3       -4.3420    2.6140    1.9470 hc        1 DBV      0.061700
     57 HAB1       -6.9750    0.3100    0.1490 hc        1 DBV      0.057700
     58 HAB2       -6.6100    0.0910   -1.6150 hc        1 DBV      0.057700
     59 HBB1       -6.7780    2.3450   -1.9860 hc        1 DBV      0.031700
     60 HBB2       -5.6540    2.7380   -0.6260 hc        1 DBV      0.031700
     61 HHC1        0.4200   -3.2550   -4.8200 hc        1 DBV      0.067200
     62 HHC2        0.7540   -1.6770   -3.9860 hc        1 DBV      0.067200
     63 HMC1       -1.1240   -2.9290   -6.6630 hc        1 DBV      0.057367
     64 HMC2       -2.7910   -3.6750   -6.6930 hc        1 DBV      0.057367
     65 HMC3       -1.4150   -4.5150   -5.8370 hc        1 DBV      0.057367
     66 HAC1       -4.6090   -2.0800   -6.1480 hc        1 DBV      0.060200
     67 HAC2       -5.5270   -1.9350   -4.5870 hc        1 DBV      0.060200
     68 HBC1       -4.3700   -4.6590   -4.8840 hc        1 DBV      0.032200
     69 HBC2       -6.0900   -4.1500   -4.6670 hc        1 DBV      0.032200
     70 HND        -0.4350   -5.1140   -2.9030 hn        1 DBV      0.332500
     71 H1D1        0.4310   -2.8700   -1.7210 h1        1 DBV      0.101700
     72 HMD1        2.9170   -1.5500   -3.5880 hc        1 DBV      0.062367
     73 HMD2        4.1590   -2.2830   -2.4860 hc        1 DBV      0.062367
     74 HMD3        2.6910   -1.4700   -1.7880 hc        1 DBV      0.062367
     75 HAD1        4.9020   -4.2890   -2.6090 ha        1 DBV      0.112000
     76 HBD1        3.8430   -7.2190   -2.7240 ha        1 DBV      0.121500
     77 HBD2        5.6140   -6.6500   -2.6720 ha        1 DBV      0.121500
@<TRIPOS>BOND
     1    1    2 1   
     2    1    5 1   
     3    1   44 1   
     4    2    3 1   
     5    2    8 2   
     6    3    4 2   
     7    3    6 1   
     8    4    5 1   
     9    4   10 1   
    10    5    9 2   
    11    6   45 1   
    12    6   46 1   
    13    6   47 1   
    14    7   10 2   
    15    7   48 1   
    16    7   49 1   
    17    9   12 1   
    18    9   50 1   
    19   10   51 1   
    20   11   12 1   
    21   11   15 1   
    22   11   52 1   
    23   12   13 2   
    24   13   14 1   
    25   13   17 1   
    26   14   15 2   
    27   14   18 1   
    28   15   16 1   
    29   16   25 2   
    30   16   53 1   
    31   17   54 1   
    32   17   55 1   
    33   17   56 1   
    34   18   19 1   
    35   18   57 1   
    36   18   58 1   
    37   19   20 1   
    38   19   59 1   
    39   19   60 1   
    40   20   21 1   
    41   20   22 1   
    42   23   28 1   
    43   23   36 1   
    44   23   61 1   
    45   23   62 1   
    46   24   25 1   
    47   24   28 2   
    48   25   26 1   
    49   26   27 2   
    50   26   30 1   
    51   27   28 1   
    52   27   29 1   
    53   29   63 1   
    54   29   64 1   
    55   29   65 1   
    56   30   31 1   
    57   30   66 1   
    58   30   67 1   
    59   31   32 1   
    60   31   68 1   
    61   31   69 1   
    62   32   33 1   
    63   32   34 1   
    64   35   36 1   
    65   35   39 1   
    66   35   70 1   
    67   36   37 1   
    68   36   71 1   
    69   37   38 2   
    70   37   40 1   
    71   38   39 1   
    72   38   41 1   
    73   39   43 2   
    74   40   72 1   
    75   40   73 1   
    76   40   74 1   
    77   41   42 2   
    78   41   75 1   
    79   42   76 1   
    80   42   77 1   
@<TRIPOS>SUBSTRUCTURE
     1 DBV         1 TEMP              0 ****  ****    0 ROOT
