@<TRIPOS>MOLECULE
DBV
   77    69     1     0     0
SMALL
bcc


@<TRIPOS>ATOM
      1 NA         -0.8780   -5.2440   -1.2900 n         1 DBV     -0.323000
      2 C1A        -0.4570   -6.6050   -1.9340 c2        1 DBV      0.331000
      3 C2A        -0.1710   -6.2760   -3.3080 c2        1 DBV     -0.154000
      4 C3A        -0.3440   -4.9870   -3.5890 c1        1 DBV     -0.016000
      5 C4A        -0.7780   -4.2090   -2.4570 c1        1 DBV      0.019000
      6 CMA         0.8370   -7.0920   -4.0860 c3        1 DBV     -0.158000
      7 CBA         1.7550   -4.0010   -4.4650 c1        1 DBV     -0.207000
      8 OA         -0.3880   -7.6920   -1.3980 o         1 DBV     -0.354000
      9 CHA        -1.0390   -2.8870   -2.4140 c1        1 DBV     -0.088000
     10 CAA         0.4690   -4.3370   -4.6870 c2        1 DBV     -0.111000
     11 NB         -0.6790   -1.8820   -0.0820 n2        1 DBV     -0.148000
     12 C1B        -1.4890   -2.2460   -1.1170 c1        1 DBV     -0.080500
     13 C2B        -2.7700   -1.8300   -0.8230 c1        1 DBV     -0.078000
     14 C3B        -2.7430   -1.2140    0.3870 c1        1 DBV     -0.078000
     15 C4B        -1.4450   -1.2450    0.8500 c1        1 DBV     -0.080500
     16 CHB        -0.9460   -0.6230    2.1370 c1        1 DBV      0.032000
     17 CMB        -4.0020   -2.0880   -1.6610 c2        1 DBV     -0.190000
     18 CAB        -3.9090   -0.5190    1.0560 c2        1 DBV     -0.106000
     19 CBB        -5.0060   -1.5250    1.3290 c3        1 DBV     -0.221000
     20 CGB        -6.1420   -0.8450    2.0600 c2        1 DBV      0.325000
     21 O1B        -6.8040    0.0630    1.4910 o         1 DBV     -0.588500
     22 O2B        -6.4040   -1.1610    3.2510 o         1 DBV     -0.588500
     23 CHC         1.5370    3.4180    0.5100 c3        1 DBV     -0.114000
     24 NC          0.5410    1.0910    0.8850 n1        1 DBV     -0.200000
     25 C1C        -0.0720    0.4030    2.0950 c1        1 DBV     -0.119000
     26 C2C         0.5670    1.1870    3.2650 c2        1 DBV     -0.018000
     27 C3C         1.4400    2.1980    2.7440 c1        1 DBV     -0.165000
     28 C4C         1.4260    2.1430    1.3170 c1        1 DBV     -0.036000
     29 CMC         2.7170    2.5450    3.4750 c3        1 DBV     -0.178000
     30 CAC        -0.2300    1.4500    4.5240 c3        1 DBV     -0.120000
     31 CBC         0.5420    0.9480    5.7240 c3        1 DBV     -0.216000
     32 CGC        -0.2600    1.2010    6.9820 c2        1 DBV      0.324000
     33 O1C        -1.1480    0.3820    7.3380 o         1 DBV     -0.589000
     34 O2C        -0.0590    2.2450    7.6570 o         1 DBV     -0.589000
     35 ND          1.8550    2.7980   -1.8300 n3        1 DBV     -0.357000
     36 C1D         2.5180    3.2630   -0.4730 c3        1 DBV      0.035000
     37 C2D         3.0260    4.5420   -0.8620 c2        1 DBV     -0.071000
     38 C3D         2.6530    4.9340   -2.0560 c1        1 DBV     -0.137000
     39 C4D         1.8800    4.0290   -2.7270 c1        1 DBV      0.328000
     40 CMD         4.3200    5.0540   -0.2680 c3        1 DBV     -0.180000
     41 CAD         2.5280    6.4110   -2.3630 c2        1 DBV     -0.112000
     42 CBD         3.1210    6.9240   -3.4590 c1        1 DBV     -0.204000
     43 OD          1.4080    4.1420   -3.8420 o         1 DBV     -0.372000
     44 HNA        -1.1270   -5.0890   -0.4270 hn        1 DBV      0.276000
     45 HMA1        1.7080   -6.6440   -4.0630 hc        1 DBV      0.086333
     46 HMA2        0.5390   -7.1790   -5.0160 hc        1 DBV      0.086333
     47 HMA3        0.9180   -7.9820   -3.6840 hc        1 DBV      0.086333
     48 HBA1        2.2810   -3.5810   -5.1750 DU        1 DBV      0.174333
     49 HBA2        2.1640   -4.1800   -3.5950 ha        1 DBV      0.111000
     50 HHA1       -0.9380   -2.3430   -3.2180 ha        1 DBV      0.136000
     51 HAA1        0.0600   -4.1540   -5.5540 ha        1 DBV      0.138000
     52 HNB         0.2170   -2.0370   -0.0220 DU        1 DBV      0.174333
     53 HHB1       -1.2570   -0.9640    2.9970 ha        1 DBV      0.160000
     54 HMB1       -3.7430   -2.1960   -2.6000 ha        1 DBV      0.101000
     55 HMB2       -4.4440   -2.9050   -1.3490 ha        1 DBV      0.101000
     56 HMB3       -4.6190   -1.3310   -1.5780 ha        1 DBV      0.101000
     57 HAB1       -4.2500    0.1840    0.4680 ha        1 DBV      0.096000
     58 HAB2       -3.6120   -0.1240    1.9000 ha        1 DBV      0.096000
     59 HBB1       -4.6520   -2.2510    1.8800 hc        1 DBV      0.070000
     60 HBB2       -5.3340   -1.8880    0.4820 hc        1 DBV      0.070000
     61 HHC1        1.7820    4.1590    1.1020 hc        1 DBV      0.106000
     62 HHC2        0.6760    3.6110    0.0850 hc        1 DBV      0.106000
     63 HMC1        3.4480    2.6400    2.8290 hc        1 DBV      0.093333
     64 HMC2        2.9330    1.8320    4.1120 hc        1 DBV      0.093333
     65 HMC3        2.5970    3.3890    3.9590 hc        1 DBV      0.093333
     66 HAC1       -1.0880    0.9840    4.4700 hc        1 DBV      0.098000
     67 HAC2       -0.3860    2.4110    4.6160 hc        1 DBV      0.098000
     68 HBC1        0.7050   -0.0120    5.6280 hc        1 DBV      0.073000
     69 HBC2        1.3970    1.4200    5.7820 hc        1 DBV      0.073000
     70 HND         1.4210    2.0110   -1.9880 hn        1 DBV      0.257000
     71 H1D1        3.1330    2.6440   -0.0320 h1        1 DBV      0.133000
     72 HMD1        5.0460    4.9370   -0.9160 hc        1 DBV      0.093000
     73 HMD2        4.5260    4.5530    0.5480 hc        1 DBV      0.093000
     74 HMD3        4.2260    6.0060   -0.0520 hc        1 DBV      0.093000
     75 HAD1        2.0170    6.9920   -1.7670 ha        1 DBV      0.111000
     76 HBD1        3.6330    6.3420   -4.0560 DU        1 DBV      0.174333
     77 HBD2        3.0400    7.8780   -3.6570 ha        1 DBV      0.098000
@<TRIPOS>BOND
     1    1    2 1   
     2    1    5 1   
     3    1   44 1   
     4    2    3 1   
     5    2    8 1   
     6    3    4 1   
     7    3    6 1   
     8    4   10 1   
     9    5    9 1   
    10    6   45 1   
    11    6   46 1   
    12    6   47 1   
    13    7   10 1   
    14    7   49 1   
    15    9   50 1   
    16   10   51 1   
    17   11   12 1   
    18   11   15 1   
    19   12   13 1   
    20   13   14 1   
    21   14   15 1   
    22   16   25 1   
    23   16   53 1   
    24   17   54 1   
    25   17   55 1   
    26   17   56 1   
    27   18   19 1   
    28   18   57 1   
    29   18   58 1   
    30   19   20 1   
    31   19   59 1   
    32   19   60 1   
    33   20   21 1   
    34   20   22 1   
    35   23   28 1   
    36   23   36 1   
    37   23   61 1   
    38   23   62 1   
    39   24   28 1   
    40   25   26 1   
    41   26   27 1   
    42   26   30 1   
    43   27   29 1   
    44   29   63 1   
    45   29   64 1   
    46   29   65 1   
    47   30   31 1   
    48   30   66 1   
    49   30   67 1   
    50   31   32 1   
    51   31   68 1   
    52   31   69 1   
    53   32   33 1   
    54   32   34 1   
    55   35   36 1   
    56   35   39 1   
    57   35   70 1   
    58   36   37 1   
    59   36   71 1   
    60   37   38 1   
    61   37   40 1   
    62   38   41 1   
    63   39   43 1   
    64   40   72 1   
    65   40   73 1   
    66   40   74 1   
    67   41   42 1   
    68   41   75 1   
    69   42   77 1   
@<TRIPOS>SUBSTRUCTURE
     1 DBV         1 TEMP              0 ****  ****    0 ROOT
