@<TRIPOS>MOLECULE
DBW
   38    42     1     0     0
SMALL
bcc


@<TRIPOS>ATOM
      1 C1         -0.0930    0.2500    0.0810 cc        1 DBW      0.101700
      2 C2         -1.5620    0.2310    0.0740 cc        1 DBW     -0.123300
      3 N3          0.5410    1.5040    0.0440 na        1 DBW     -0.120100
      4 C4          0.6440   -0.9080    0.1220 cf        1 DBW     -0.273200
      5 C5         -2.2730    1.4030    0.0330 cd        1 DBW     -0.011300
      6 C6         -2.1910   -1.1300    0.1150 c3        1 DBW      0.052100
      7 C7          1.9890    1.6320    0.0470 c3        1 DBW      0.105600
      8 C8         -0.2050    2.6640    0.0030 cc        1 DBW     -0.010300
      9 C9          2.0820   -0.8920    0.1280 ca        1 DBW      0.021200
     10 C10        -3.7700    1.5040    0.0230 c3        1 DBW      0.041100
     11 C11        -1.5710    2.6540   -0.0030 cd        1 DBW     -0.246000
     12 C12        -3.6520   -1.0000    0.1040 c2        1 DBW     -0.012100
     13 C13         2.7470    0.3460    0.0920 ca        1 DBW     -0.132300
     14 C14         2.8270   -2.0820    0.1700 ca        1 DBW     -0.139000
     15 C15        -4.3510    0.1600    0.0630 c2        1 DBW     -0.024100
     16 O16        -4.5260   -2.0920    0.1340 os        1 DBW     -0.340900
     17 C17         4.1490    0.3870    0.0980 ca        1 DBW      0.128100
     18 C18         4.2170   -2.0480    0.1760 ca        1 DBW     -0.149000
     19 O19        -5.7260   -0.0980    0.0640 os        1 DBW     -0.340900
     20 C20        -5.8620   -1.5370    0.1100 c3        1 DBW      0.320200
     21 C21         4.8810   -0.8180    0.1400 ca        1 DBW      0.018100
     22 O22         4.7520    1.6220    0.0610 oh        1 DBW     -0.504100
     23 O23         6.2580   -0.6910    0.1420 oh        1 DBW     -0.520100
     24 H4          0.1540   -1.8890    0.1510 ha        1 DBW      0.146000
     25 H6         -1.8540   -1.7340   -0.7730 hc        1 DBW      0.078700
     26 H7          2.3000    2.2000   -0.8810 h1        1 DBW      0.058700
     27 H8          0.3750    3.6050   -0.0240 h4        1 DBW      0.156000
     28 H10        -4.1140    2.1070    0.9090 hc        1 DBW      0.078700
     29 H11        -2.1380    3.5920   -0.0360 ha        1 DBW      0.150000
     30 H14         2.3030   -3.0480    0.1980 ha        1 DBW      0.139000
     31 H18         4.7960   -2.9820    0.2080 ha        1 DBW      0.134000
     32 H20        -6.3780   -1.8800   -0.8200 h2        1 DBW      0.065700
     33 H20A       -6.3870   -1.8200    1.0550 h2        1 DBW      0.065700
     34 HO22        5.7120    1.4850    0.0700 ho        1 DBW      0.441000
     35 HO23        6.6320   -1.5830    0.1720 ho        1 DBW      0.428000
     36 H10A       -4.1040    2.0490   -0.9030 hc        1 DBW      0.078700
     37 H6A        -1.8630   -1.6760    1.0430 hc        1 DBW      0.078700
     38 H7A         2.2900    2.2580    0.9410 h1        1 DBW      0.058700
@<TRIPOS>BOND
     1    1    2 1   
     2    1    3 1   
     3    1    4 2   
     4    2    5 2   
     5    2    6 1   
     6    3    7 1   
     7    3    8 1   
     8    4    9 1   
     9    4   24 1   
    10    5   10 1   
    11    5   11 1   
    12    6   12 1   
    13    6   25 1   
    14    6   37 1   
    15    7   13 1   
    16    7   26 1   
    17    7   38 1   
    18    8   11 2   
    19    8   27 1   
    20    9   13 ar  
    21    9   14 ar  
    22   10   15 1   
    23   10   28 1   
    24   10   36 1   
    25   11   29 1   
    26   12   15 2   
    27   12   16 1   
    28   13   17 ar  
    29   14   18 ar  
    30   14   30 1   
    31   15   19 1   
    32   16   20 1   
    33   17   21 ar  
    34   17   22 1   
    35   18   21 ar  
    36   18   31 1   
    37   19   20 1   
    38   20   32 1   
    39   20   33 1   
    40   21   23 1   
    41   22   34 1   
    42   23   35 1   
@<TRIPOS>SUBSTRUCTURE
     1 DBW         1 TEMP              0 ****  ****    0 ROOT
