@<TRIPOS>MOLECULE
DBW
   38    42     1     0     0
SMALL
bcc


@<TRIPOS>ATOM
      1 C1          0.0080   -0.0960   -0.0480 cc        1 DBW      0.101700
      2 C2          1.4750   -0.1650   -0.0250 cc        1 DBW     -0.123300
      3 N3         -0.6590   -0.0290    1.1880 na        1 DBW     -0.120100
      4 C4         -0.6980   -0.0950   -1.2270 cf        1 DBW     -0.273200
      5 C5          2.1530   -0.1630    1.1660 cd        1 DBW     -0.011300
      6 C6          2.1390   -0.2350   -1.3680 c3        1 DBW      0.052100
      7 C7         -2.1090    0.0410    1.2750 c3        1 DBW      0.105600
      8 C8          0.0540   -0.0290    2.3690 cc        1 DBW     -0.010300
      9 C9         -2.1340   -0.0270   -1.2510 ca        1 DBW      0.021200
     10 C10         3.6450   -0.2300    1.3100 c3        1 DBW      0.041100
     11 C11         1.4190   -0.0930    2.3970 cd        1 DBW     -0.246000
     12 C12         3.5950   -0.3000   -1.1970 c2        1 DBW     -0.012100
     13 C13        -2.8310    0.0400   -0.0320 ca        1 DBW     -0.132300
     14 C14        -2.8460   -0.0260   -2.4610 ca        1 DBW     -0.139000
     15 C15         4.2620   -0.2980   -0.0170 c2        1 DBW     -0.024100
     16 O16         4.4960   -0.3740   -2.2640 os        1 DBW     -0.340900
     17 C17        -4.2320    0.1070   -0.0310 ca        1 DBW      0.128100
     18 C18        -4.2350    0.0410   -2.4670 ca        1 DBW     -0.149000
     19 O19         5.6410   -0.3700   -0.2360 os        1 DBW     -0.340900
     20 C20         5.8150   -0.4200   -1.6710 c3        1 DBW      0.320200
     21 C21        -4.9310    0.1070   -1.2560 ca        1 DBW      0.018100
     22 O22        -4.8670    0.1720    1.1870 oh        1 DBW     -0.504100
     23 O23        -6.3090    0.1760   -1.1680 oh        1 DBW     -0.520100
     24 H4         -0.1820   -0.1470   -2.1930 ha        1 DBW      0.146000
     25 H6          1.8660    0.6700   -1.9780 hc        1 DBW      0.078700
     26 H7         -2.4730   -0.8380    1.8880 h1        1 DBW      0.058700
     27 H8         -0.5500    0.0250    3.2930 h4        1 DBW      0.156000
     28 H10         4.0110    0.6760    1.8670 hc        1 DBW      0.078700
     29 H11         1.9600   -0.0920    3.3510 ha        1 DBW      0.150000
     30 H14        -2.2970   -0.0790   -3.4130 ha        1 DBW      0.139000
     31 H18        -4.7880    0.0410   -3.4170 ha        1 DBW      0.134000
     32 H20         6.3880    0.4820   -1.9970 h2        1 DBW      0.065700
     33 H20A        6.2980   -1.3900   -1.9430 h2        1 DBW      0.065700
     34 HO22       -5.8220    0.2130    1.0230 ho        1 DBW      0.441000
     35 HO23       -6.6590    0.1680   -2.0700 ho        1 DBW      0.428000
     36 H10A        3.9250   -1.1340    1.9190 hc        1 DBW      0.078700
     37 H6A         1.7790   -1.1440   -1.9270 hc        1 DBW      0.078700
     38 H7A        -2.3880    0.9830    1.8390 h1        1 DBW      0.058700
@<TRIPOS>BOND
     1    1    2 1   
     2    1    3 1   
     3    1    4 2   
     4    2    5 2   
     5    2    6 1   
     6    3    7 1   
     7    3    8 1   
     8    4    9 1   
     9    4   24 1   
    10    5   10 1   
    11    5   11 1   
    12    6   12 1   
    13    6   25 1   
    14    6   37 1   
    15    7   13 1   
    16    7   26 1   
    17    7   38 1   
    18    8   11 2   
    19    8   27 1   
    20    9   13 ar  
    21    9   14 ar  
    22   10   15 1   
    23   10   28 1   
    24   10   36 1   
    25   11   29 1   
    26   12   15 2   
    27   12   16 1   
    28   13   17 ar  
    29   14   18 ar  
    30   14   30 1   
    31   15   19 1   
    32   16   20 1   
    33   17   21 ar  
    34   17   22 1   
    35   18   21 ar  
    36   18   31 1   
    37   19   20 1   
    38   20   32 1   
    39   20   33 1   
    40   21   23 1   
    41   22   34 1   
    42   23   35 1   
@<TRIPOS>SUBSTRUCTURE
     1 DBW         1 TEMP              0 ****  ****    0 ROOT
