@<TRIPOS>MOLECULE
DBW
   38    42     1     0     0
SMALL
bcc


@<TRIPOS>ATOM
      1 C1          0.0070   -0.0950   -0.0480 cc        1 DBW      0.101700
      2 C2          1.4740   -0.1630   -0.0180 cc        1 DBW     -0.123300
      3 N3         -0.6670   -0.0230    1.1850 na        1 DBW     -0.120100
      4 C4         -0.6930   -0.1000   -1.2300 cf        1 DBW     -0.273200
      5 C5          2.1460   -0.1560    1.1780 cd        1 DBW     -0.011300
      6 C6          2.1450   -0.2380   -1.3560 c3        1 DBW      0.052100
      7 C7         -2.1170    0.0480    1.2640 c3        1 DBW      0.105600
      8 C8          0.0410   -0.0180    2.3680 cc        1 DBW     -0.010300
      9 C9         -2.1290   -0.0340   -1.2630 ca        1 DBW      0.021200
     10 C10         3.6370   -0.2210    1.3290 c3        1 DBW      0.041100
     11 C11         1.4050   -0.0810    2.4050 cd        1 DBW     -0.246000
     12 C12         3.6000   -0.3010   -1.1780 c2        1 DBW     -0.012100
     13 C13        -2.8320    0.0390   -0.0470 ca        1 DBW     -0.132300
     14 C14        -2.8350   -0.0400   -2.4760 ca        1 DBW     -0.139000
     15 C15         4.2610   -0.2930    0.0050 c2        1 DBW     -0.024100
     16 O16         4.5070   -0.3780   -2.2400 os        1 DBW     -0.340900
     17 C17        -4.2330    0.1050   -0.0540 ca        1 DBW      0.128100
     18 C18        -4.2230    0.0250   -2.4890 ca        1 DBW     -0.149000
     19 O19         5.6410   -0.3650   -0.2060 os        1 DBW     -0.340900
     20 C20         5.8220   -0.4210   -1.6400 c3        1 DBW      0.320200
     21 C21        -4.9260    0.0980   -1.2820 ca        1 DBW      0.018100
     22 O22        -4.8750    0.1750    1.1610 oh        1 DBW     -0.504100
     23 O23        -6.3040    0.1660   -1.2020 oh        1 DBW     -0.520100
     24 H4         -0.1720   -0.1560   -2.1940 ha        1 DBW      0.146000
     25 H6          1.8740    0.6640   -1.9720 hc        1 DBW      0.078700
     26 H7         -2.4840   -0.8280    1.8800 h1        1 DBW      0.058700
     27 H8         -0.5680    0.0410    3.2900 h4        1 DBW      0.156000
     28 H10         3.9150   -1.1220    1.9440 hc        1 DBW      0.078700
     29 H11         1.9420   -0.0750    3.3610 ha        1 DBW      0.150000
     30 H14        -2.2810   -0.0970   -3.4240 ha        1 DBW      0.139000
     31 H18        -4.7720    0.0200   -3.4420 ha        1 DBW      0.134000
     32 H20         6.3960    0.4810   -1.9660 h2        1 DBW      0.065700
     33 H20A        6.3080   -1.3910   -1.9050 h2        1 DBW      0.065700
     34 HO22       -5.8290    0.2150    0.9920 ho        1 DBW      0.441000
     35 HO23       -6.6500    0.1530   -2.1050 ho        1 DBW      0.428000
     36 H10A        4.0000    0.6880    1.8840 hc        1 DBW      0.078700
     37 H6A         1.7890   -1.1500   -1.9130 hc        1 DBW      0.078700
     38 H7A        -2.3980    0.9930    1.8200 h1        1 DBW      0.058700
@<TRIPOS>BOND
     1    1    2 1   
     2    1    3 1   
     3    1    4 2   
     4    2    5 2   
     5    2    6 1   
     6    3    7 1   
     7    3    8 1   
     8    4    9 1   
     9    4   24 1   
    10    5   10 1   
    11    5   11 1   
    12    6   12 1   
    13    6   25 1   
    14    6   37 1   
    15    7   13 1   
    16    7   26 1   
    17    7   38 1   
    18    8   11 2   
    19    8   27 1   
    20    9   13 ar  
    21    9   14 ar  
    22   10   15 1   
    23   10   28 1   
    24   10   36 1   
    25   11   29 1   
    26   12   15 2   
    27   12   16 1   
    28   13   17 ar  
    29   14   18 ar  
    30   14   30 1   
    31   15   19 1   
    32   16   20 1   
    33   17   21 ar  
    34   17   22 1   
    35   18   21 ar  
    36   18   31 1   
    37   19   20 1   
    38   20   32 1   
    39   20   33 1   
    40   21   23 1   
    41   22   34 1   
    42   23   35 1   
@<TRIPOS>SUBSTRUCTURE
     1 DBW         1 TEMP              0 ****  ****    0 ROOT
