@<TRIPOS>MOLECULE
DBW
   38    42     1     0     0
SMALL
bcc


@<TRIPOS>ATOM
      1 C1          0.0070   -0.0880   -0.0480 cc        1 DBW      0.101700
      2 C2          1.4740   -0.1550   -0.0190 cc        1 DBW     -0.123300
      3 N3         -0.6640    0.0310    1.1820 na        1 DBW     -0.120100
      4 C4         -0.6950   -0.1400   -1.2280 cf        1 DBW     -0.273200
      5 C5          2.1490   -0.1010    1.1740 cd        1 DBW     -0.011300
      6 C6          2.1420   -0.2820   -1.3550 c3        1 DBW      0.052100
      7 C7         -2.1140    0.1050    1.2620 c3        1 DBW      0.105600
      8 C8          0.0470    0.0820    2.3630 cc        1 DBW     -0.010300
      9 C9         -2.1310   -0.0750   -1.2590 ca        1 DBW      0.021200
     10 C10         3.6400   -0.1600    1.3250 c3        1 DBW      0.041100
     11 C11         1.4110    0.0210    2.3990 cd        1 DBW     -0.246000
     12 C12         3.5970   -0.3370   -1.1780 c2        1 DBW     -0.012100
     13 C13        -2.8320    0.0450   -0.0460 ca        1 DBW     -0.132300
     14 C14        -2.8410   -0.1280   -2.4700 ca        1 DBW     -0.139000
     15 C15         4.2610   -0.2840    0.0030 c2        1 DBW     -0.024100
     16 O16         4.5020   -0.4560   -2.2380 os        1 DBW     -0.340900
     17 C17        -4.2330    0.1100   -0.0510 ca        1 DBW      0.128100
     18 C18        -4.2290   -0.0640   -2.4820 ca        1 DBW     -0.149000
     19 O19         5.6410   -0.3640   -0.2090 os        1 DBW     -0.340900
     20 C20         5.8190   -0.4740   -1.6400 c3        1 DBW      0.320200
     21 C21        -4.9280    0.0550   -1.2770 ca        1 DBW      0.018100
     22 O22        -4.8720    0.2270    1.1610 oh        1 DBW     -0.504100
     23 O23        -6.3070    0.1260   -1.1960 oh        1 DBW     -0.520100
     24 H4         -0.1770   -0.2330   -2.1900 ha        1 DBW      0.146000
     25 H6          1.8690    0.5960   -2.0050 hc        1 DBW      0.078700
     26 H7         -2.3940    1.0700    1.7820 h1        1 DBW      0.058700
     27 H8         -0.5600    0.1760    3.2830 h4        1 DBW      0.156000
     28 H10         4.0050    0.7690    1.8430 hc        1 DBW      0.078700
     29 H11         1.9500    0.0640    3.3530 ha        1 DBW      0.150000
     30 H14        -2.2890   -0.2220   -3.4160 ha        1 DBW      0.139000
     31 H18        -4.7800   -0.1060   -3.4320 ha        1 DBW      0.134000
     32 H20         6.3040   -1.4550   -1.8690 h2        1 DBW      0.065700
     33 H20A        6.3920    0.4140   -2.0020 h2        1 DBW      0.065700
     34 HO22       -5.8270    0.2600    0.9930 ho        1 DBW      0.441000
     35 HO23       -6.6540    0.0780   -2.0970 ho        1 DBW      0.428000
     36 H10A        3.9200   -1.0370    1.9720 hc        1 DBW      0.078700
     37 H6A         1.7850   -1.2140   -1.8750 hc        1 DBW      0.078700
     38 H7A        -2.4790   -0.7470    1.9120 h1        1 DBW      0.058700
@<TRIPOS>BOND
     1    1    2 1   
     2    1    3 1   
     3    1    4 2   
     4    2    5 2   
     5    2    6 1   
     6    3    7 1   
     7    3    8 1   
     8    4    9 1   
     9    4   24 1   
    10    5   10 1   
    11    5   11 1   
    12    6   12 1   
    13    6   25 1   
    14    6   37 1   
    15    7   13 1   
    16    7   26 1   
    17    7   38 1   
    18    8   11 2   
    19    8   27 1   
    20    9   13 ar  
    21    9   14 ar  
    22   10   15 1   
    23   10   28 1   
    24   10   36 1   
    25   11   29 1   
    26   12   15 2   
    27   12   16 1   
    28   13   17 ar  
    29   14   18 ar  
    30   14   30 1   
    31   15   19 1   
    32   16   20 1   
    33   17   21 ar  
    34   17   22 1   
    35   18   21 ar  
    36   18   31 1   
    37   19   20 1   
    38   20   32 1   
    39   20   33 1   
    40   21   23 1   
    41   22   34 1   
    42   23   35 1   
@<TRIPOS>SUBSTRUCTURE
     1 DBW         1 TEMP              0 ****  ****    0 ROOT
