@<TRIPOS>MOLECULE
DBW
   38    38     1     0     0
SMALL
bcc


@<TRIPOS>ATOM
      1 C1         -0.0080   -0.0660    0.2410 c1        1 DBW      0.126000
      2 C2          1.5350   -0.0660    0.2410 c1        1 DBW     -0.116000
      3 N3         -0.7320    0.0120    1.4940 n3        1 DBW     -0.188000
      4 C4         -0.7580   -0.0720   -1.0570 c1        1 DBW     -0.285000
      5 C5          2.2630   -0.0660    1.5140 c1        1 DBW     -0.004000
      6 C6          2.2900   -0.2490   -1.0670 c3        1 DBW     -0.038000
      7 C7         -2.1730    0.2330    1.4880 c3        1 DBW      0.039000
      8 C8         -0.0060   -0.1150    2.7780 c2        1 DBW      0.014000
      9 C9         -2.2720   -0.0140   -1.0530 c1        1 DBW      0.033000
     10 C10         3.7550    0.2770    1.5410 c2        1 DBW     -0.049000
     11 C11         1.5080   -0.1140    2.7960 c2        1 DBW     -0.246000
     12 C12         3.7610    0.1770   -1.0050 c2        1 DBW     -0.052000
     13 C13        -2.9590    0.0620    0.1500 c2        1 DBW     -0.125000
     14 C14        -2.9800   -0.1040   -2.2590 c2        1 DBW     -0.139000
     15 C15         4.4720    0.0600    0.1920 c2        1 DBW     -0.064000
     16 O16         4.5780    0.1570   -2.1150 os        1 DBW     -0.225000
     17 C17        -4.3590    0.0480    0.1580 c2        1 DBW      0.083000
     18 C18        -4.3700   -0.1170   -2.2490 c1        1 DBW     -0.149000
     19 O19         5.7140    0.2340    0.0370 os        1 DBW     -0.225000
     20 C20         5.9310   -0.0310   -1.5270 c3        1 DBW      0.098000
     21 C21        -5.0610   -0.0410   -1.0400 c1        1 DBW     -0.027000
     22 O22        -5.2780    0.6300    1.0510 oh        1 DBW     -0.258000
     23 O23        -6.3590   -0.5830   -1.0480 oh        1 DBW     -0.274000
     24 H4         -0.2710   -0.0520   -1.9020 ha        1 DBW      0.146000
     25 H6          1.9200    0.1590   -1.8720 hc        1 DBW      0.118000
     26 H7         -2.3310    1.1420    1.8060 h1        1 DBW      0.098000
     27 H8         -0.5040   -0.2210    3.6110 h4        1 DBW      0.156000
     28 H10         4.2290   -0.1120    2.3010 ha        1 DBW      0.118000
     29 H11         1.9860   -0.2150    3.6400 ha        1 DBW      0.150000
     30 H14        -2.4980   -0.1570   -3.1050 ha        1 DBW      0.139000
     31 H18        -4.8640   -0.1800   -3.0890 ha        1 DBW      0.134000
     32 H20         6.2460   -0.9420   -1.6790 h2        1 DBW      0.105000
     33 H20A        6.5590    0.6170   -1.9000 h2        1 DBW      0.105000
     34 HO22       -5.4940    0.0400    1.6780 ho        1 DBW      0.240000
     35 HO23       -6.9300    0.0220   -1.3580 ho        1 DBW      0.227000
     36 H10A        3.8310    1.2250    1.7630 ha        1 DBW      0.118000
     37 H6A         2.1930   -1.1940   -1.2900 hc        1 DBW      0.118000
     38 H7A        -2.5660   -0.3810    2.1380 h1        1 DBW      0.098000
@<TRIPOS>BOND
     1    1    3 1   
     2    1    4 1   
     3    2    5 1   
     4    2    6 1   
     5    3    7 1   
     6    3    8 1   
     7    4   24 1   
     8    5   11 1   
     9    6   12 1   
    10    6   25 1   
    11    6   37 1   
    12    7   13 1   
    13    7   26 1   
    14    7   38 1   
    15    8   11 1   
    16    8   27 1   
    17    9   13 1   
    18    9   14 1   
    19   10   15 1   
    20   10   28 1   
    21   10   36 1   
    22   11   29 1   
    23   12   15 1   
    24   12   16 1   
    25   13   17 1   
    26   14   18 1   
    27   14   30 1   
    28   15   19 1   
    29   16   20 1   
    30   17   21 1   
    31   17   22 1   
    32   18   31 1   
    33   19   20 1   
    34   20   32 1   
    35   20   33 1   
    36   21   23 1   
    37   22   34 1   
    38   23   35 1   
@<TRIPOS>SUBSTRUCTURE
     1 DBW         1 TEMP              0 ****  ****    0 ROOT
