@<TRIPOS>MOLECULE
DBX
   17    13     1     0     0
SMALL
bcc


@<TRIPOS>ATOM
      1 C1         -0.3740    0.1220   -0.6420 c1        1 DBX     -0.298400
      2 O1         -0.4500    0.8200   -3.2640 o         1 DBX     -0.679400
      3 S1         -1.2230    0.9310   -1.9720 s4        1 DBX      1.639200
      4 C2          0.9920   -0.1080   -0.6790 c1        1 DBX      0.103600
      5 O2         -1.4940    2.3740   -1.6180 os        1 DBX     -1.055000
      6 C3         -1.0520    0.0740    0.5660 c1        1 DBX      0.024500
      7 O3         -2.4980    0.2060   -2.3290 o         1 DBX     -0.679400
      8 C4          1.0020   -0.4340    1.7000 c1        1 DBX     -0.114500
      9 O4          1.7590   -0.1850   -1.8550 oh        1 DBX     -0.512100
     10 C5         -0.3650   -0.2040    1.7370 c1        1 DBX      0.103600
     11 O5         -1.0460   -0.2100    2.9670 oh        1 DBX     -0.512100
     12 C6          1.6800   -0.3860    0.4920 c1        1 DBX     -0.114500
     13 H3         -2.0180    0.2160    0.5890 ha        1 DBX      0.103500
     14 H4          1.4860   -0.6300    2.5240 ha        1 DBX      0.060500
     15 HO4         2.1320   -0.9900   -1.9140 ho        1 DBX      0.435500
     16 HO5        -1.1740   -1.0490    3.2310 ho        1 DBX      0.435500
     17 H6          2.6420   -0.5480    0.4660 ha        1 DBX      0.060500
@<TRIPOS>BOND
     1    1    3 1   
     2    1    6 3   
     3    2    3 1   
     4    3    7 1   
     5    4    9 1   
     6    4   12 3   
     7    6   13 1   
     8    8   10 3   
     9    8   14 1   
    10    9   15 1   
    11   10   11 1   
    12   11   16 1   
    13   12   17 1   
@<TRIPOS>SUBSTRUCTURE
     1 DBX         1 TEMP              0 ****  ****    0 ROOT
