@<TRIPOS>MOLECULE
DBX
   17    17     1     0     0
SMALL
bcc


@<TRIPOS>ATOM
      1 C1          0.0000   -0.0730   -0.0200 ca        1 DBX     -0.221500
      2 O1         -0.7820   -1.2400   -2.1700 o         1 DBX     -0.740867
      3 S1         -1.0360   -0.0310   -1.4960 s6        1 DBX      1.463100
      4 C2          1.4030   -0.1480   -0.0190 ca        1 DBX      0.177100
      5 O2         -2.3480    0.0440   -0.9620 o         1 DBX     -0.740867
      6 C3         -0.6410   -0.0280    1.2120 ca        1 DBX     -0.100000
      7 O3         -0.6560    1.1330   -2.1910 o         1 DBX     -0.740867
      8 C4          1.4840   -0.1310    2.4010 ca        1 DBX     -0.116000
      9 O4          2.0390   -0.1930   -1.2400 oh        1 DBX     -0.473100
     10 C5          0.0870   -0.0560    2.4100 ca        1 DBX      0.041100
     11 O5         -0.5270   -0.0120    3.6520 oh        1 DBX     -0.526100
     12 C6          2.1420   -0.1770    1.1750 ca        1 DBX     -0.231000
     13 H3         -1.7450    0.0310    1.2340 ha        1 DBX      0.166000
     14 H4          2.0420   -0.1520    3.3450 ha        1 DBX      0.124000
     15 HO4         2.9900   -0.2420   -1.0750 ho        1 DBX      0.395000
     16 HO5        -1.4790    0.0370    3.4930 ho        1 DBX      0.411000
     17 H6          3.2380   -0.2350    1.1450 ha        1 DBX      0.112000
@<TRIPOS>BOND
     1    1    3 1   
     2    1    4 ar  
     3    1    6 ar  
     4    2    3 1   
     5    3    5 1   
     6    3    7 1   
     7    4    9 1   
     8    4   12 ar  
     9    6   10 ar  
    10    6   13 1   
    11    8   10 ar  
    12    8   12 ar  
    13    8   14 1   
    14    9   15 1   
    15   10   11 1   
    16   11   16 1   
    17   12   17 1   
@<TRIPOS>SUBSTRUCTURE
     1 DBX         1 TEMP              0 ****  ****    0 ROOT
