@<TRIPOS>MOLECULE
DBX
   17    17     1     0     0
SMALL
bcc


@<TRIPOS>ATOM
      1 C1         -0.0650    0.1190   -0.0180 ca        1 DBX     -0.311500
      2 O1          1.9080   -0.6700    1.3810 o         1 DBX     -0.743867
      3 S1          1.6210   -0.4410    0.0200 s6        1 DBX      1.468100
      4 C2         -0.5100    1.4430   -0.1410 ca        1 DBX      0.206100
      5 O2          1.6350   -1.6140   -0.7640 o         1 DBX     -0.743867
      6 C3         -1.0280   -0.8830    0.1070 ca        1 DBX     -0.087000
      7 O3          2.3520    0.6440   -0.5350 o         1 DBX     -0.743867
      8 C4         -2.8290    0.7510    0.0160 ca        1 DBX     -0.111000
      9 O4          0.3130    2.5310   -0.2850 oh        1 DBX     -0.543100
     10 C5         -2.3910   -0.5770    0.1240 ca        1 DBX      0.034100
     11 O5         -3.3730   -1.5480    0.2460 oh        1 DBX     -0.525100
     12 C6         -1.8870    1.7590   -0.1190 ca        1 DBX     -0.182000
     13 H3         -0.6950   -1.9330    0.1790 ha        1 DBX      0.146000
     14 H4         -3.9030    0.9760    0.0370 ha        1 DBX      0.125000
     15 HO4         1.2360    2.2320   -0.3940 ho        1 DBX      0.475000
     16 HO5        -2.9220   -2.4010    0.2980 ho        1 DBX      0.408000
     17 H6         -2.1950    2.8090   -0.2100 ha        1 DBX      0.129000
@<TRIPOS>BOND
     1    1    3 1   
     2    1    4 ar  
     3    1    6 ar  
     4    2    3 1   
     5    3    5 1   
     6    3    7 1   
     7    4    9 1   
     8    4   12 ar  
     9    6   10 ar  
    10    6   13 1   
    11    8   10 ar  
    12    8   12 ar  
    13    8   14 1   
    14    9   15 1   
    15   10   11 1   
    16   11   16 1   
    17   12   17 1   
@<TRIPOS>SUBSTRUCTURE
     1 DBX         1 TEMP              0 ****  ****    0 ROOT
