@<TRIPOS>MOLECULE
DBY
   23    23     1     0     0
SMALL
bcc


@<TRIPOS>ATOM
      1 N           1.4930    0.8980    3.1480 n3        1 DBY     -0.891800
      2 CA          0.1260    0.4130    3.2890 c3        1 DBY      0.017500
      3 C          -0.3090    0.1230    4.7680 c         1 DBY      0.889600
      4 O           0.5130    0.3960    5.6870 o         1 DBY     -0.837300
      5 CB         -0.1420   -0.8520    2.4660 c3        1 DBY     -0.032100
      6 CG         -0.1650   -0.5970    1.0000 ca        1 DBY     -0.067300
      7 CD1         1.0280   -0.4610    0.2810 ca        1 DBY     -0.055000
      8 CE1         1.0080   -0.2420   -1.0960 ca        1 DBY     -0.084900
      9 CD2        -1.3830   -0.4940    0.3210 ca        1 DBY     -0.055000
     10 CE2        -1.4270   -0.2730   -1.0580 ca        1 DBY     -0.084900
     11 CZ         -0.2230   -0.1470   -1.7760 ca        1 DBY      0.153100
     12 OH         -0.3120    0.0600   -3.1340 oh        1 DBY     -0.492100
     13 BR1         2.6470   -0.0780   -2.0060 br        1 DBY     -0.106600
     14 BR2        -3.1110   -0.1560   -1.8810 br        1 DBY     -0.106600
     15 OXT        -1.4640   -0.3490    4.9490 o         1 DBY     -0.837300
     16 H           1.5780    1.7190    3.7240 hn        1 DBY      0.333300
     17 H2          2.1100    0.2130    3.5490 hn        1 DBY      0.333300
     18 HA         -0.5570    1.2280    2.9120 h1        1 DBY      0.046700
     19 HB2         0.6340   -1.6300    2.6960 hc        1 DBY      0.064200
     20 HB3        -1.1370   -1.2540    2.8070 hc        1 DBY      0.064200
     21 HD1         1.9860   -0.5130    0.8260 ha        1 DBY      0.163000
     22 HD2        -2.3210   -0.5860    0.8950 ha        1 DBY      0.163000
     23 HH          0.5890    0.1720   -3.4780 ho        1 DBY      0.424000
@<TRIPOS>BOND
     1    1    2 1   
     2    1   16 1   
     3    1   17 1   
     4    2    3 1   
     5    2    5 1   
     6    2   18 1   
     7    3    4 1   
     8    3   15 1   
     9    5    6 1   
    10    5   19 1   
    11    5   20 1   
    12    6    7 ar  
    13    6    9 ar  
    14    7    8 ar  
    15    7   21 1   
    16    8   11 ar  
    17    8   13 1   
    18    9   10 ar  
    19    9   22 1   
    20   10   11 ar  
    21   10   14 1   
    22   11   12 1   
    23   12   23 1   
@<TRIPOS>SUBSTRUCTURE
     1 DBY         1 TEMP              0 ****  ****    0 ROOT
