@<TRIPOS>MOLECULE
DBZ
   26    24     1     0     0
SMALL
bcc


@<TRIPOS>ATOM
      1 N          -3.6140   -0.1650   -2.2770 n3        1 DBZ     -0.316000
      2 CA         -2.5360   -0.7850   -1.6580 c3        1 DBZ     -0.143000
      3 CB         -1.9970    0.1220   -0.5470 c3        1 DBZ     -0.022000
      4 NG         -0.5740   -0.0180   -0.4610 n         1 DBZ     -0.329000
      5 CD2         0.2010    1.0440   -0.0130 c2        1 DBZ      0.326000
      6 OD2        -0.1130    2.1430   -0.2600 o         1 DBZ     -0.399000
      7 C1          1.5210    0.7710    0.7340 c2        1 DBZ     -0.116000
      8 C2          1.5170    0.6240    2.1460 c2        1 DBZ     -0.091000
      9 C6          2.7130    0.7420    0.0410 c1        1 DBZ     -0.090000
     10 C3          2.7000    0.4520    2.8260 c1        1 DBZ     -0.147000
     11 C5          3.9280    0.5660    0.7370 c1        1 DBZ     -0.145000
     12 C4          3.9180    0.4210    2.1290 c1        1 DBZ     -0.145000
     13 C          -2.9920   -2.0880   -1.0650 c2        1 DBZ      0.306000
     14 O1         -3.9190   -2.1090   -0.3320 o         1 DBZ     -0.579000
     15 O          -2.3450   -3.1130   -1.2650 o         1 DBZ     -0.579000
     16 HN1        -3.3230    0.4540   -2.8220 hn        1 DBZ      0.131000
     17 HN2        -4.1070   -0.8080   -2.7630 hn        1 DBZ      0.131000
     18 HA         -1.8410   -0.9530   -2.3080 h1        1 DBZ      0.089000
     19 HB1        -2.2070    0.9890   -0.7380 h1        1 DBZ      0.079500
     20 HB2        -2.4110   -0.1360    0.3220 h1        1 DBZ      0.079500
     21 HNG        -0.1560   -0.8380   -0.7270 hn        1 DBZ      0.252000
     22 H2          0.6820    0.7150    2.6430 ha        1 DBZ      0.207000
     23 H6          2.7160    0.8490   -1.0040 ha        1 DBZ      0.141000
     24 H3          2.6880    0.3480    3.8110 ha        1 DBZ      0.130000
     25 H5          4.7860    0.4730    0.2300 ha        1 DBZ      0.115500
     26 H4          4.7650    0.3010    2.6190 ha        1 DBZ      0.115500
@<TRIPOS>BOND
     1    1    2 1   
     2    1   16 1   
     3    1   17 1   
     4    2    3 1   
     5    2   13 1   
     6    2   18 1   
     7    3    4 1   
     8    3   19 1   
     9    3   20 1   
    10    4    5 1   
    11    4   21 1   
    12    5    6 1   
    13    5    7 1   
    14    7    8 1   
    15    7    9 1   
    16    8   10 1   
    17    8   22 1   
    18    9   23 1   
    19   10   24 1   
    20   11   12 1   
    21   11   25 1   
    22   12   26 1   
    23   13   14 1   
    24   13   15 1   
@<TRIPOS>SUBSTRUCTURE
     1 DBZ         1 TEMP              0 ****  ****    0 ROOT
