@<TRIPOS>MOLECULE
DBZ
   26    26     1     0     0
SMALL
bcc


@<TRIPOS>ATOM
      1 N           2.8440    0.8640    0.4370 n3        1 DBZ     -0.883800
      2 CA          2.6030   -0.3400   -0.3470 c3        1 DBZ      0.004500
      3 CB          1.5970   -1.2730    0.3750 c3        1 DBZ      0.094000
      4 NG          1.3280   -2.4820   -0.3690 n         1 DBZ     -0.519900
      5 CD2         0.0490   -3.0060   -0.3980 c         1 DBZ      0.652700
      6 OD2        -0.7760   -2.8150    0.5250 o         1 DBZ     -0.638100
      7 C1         -0.2890   -3.9060   -1.5450 ca        1 DBZ     -0.136600
      8 C2         -1.0330   -5.0650   -1.3010 ca        1 DBZ     -0.090500
      9 C6          0.0980   -3.5780   -2.8500 ca        1 DBZ     -0.090500
     10 C3         -1.3790   -5.9050   -2.3570 ca        1 DBZ     -0.154000
     11 C5         -0.2590   -4.4240   -3.9020 ca        1 DBZ     -0.154000
     12 C4         -0.9910   -5.5850   -3.6590 ca        1 DBZ     -0.129000
     13 C           2.1380   -0.0670   -1.8130 c         1 DBZ      0.886600
     14 O1          1.7930    1.1050   -2.1260 o         1 DBZ     -0.844300
     15 O           2.1610   -1.0390   -2.6280 o         1 DBZ     -0.844300
     16 HN1         3.3890    1.4870   -0.1350 hn        1 DBZ      0.335800
     17 HN2         1.9630    1.3240    0.5930 hn        1 DBZ      0.335800
     18 HA          3.5910   -0.8810   -0.4200 h1        1 DBZ      0.049700
     19 HB1         2.0220   -1.5750    1.3750 h1        1 DBZ      0.040200
     20 HB2         0.6340   -0.7190    0.5700 h1        1 DBZ      0.040200
     21 HNG         1.8470   -2.5480   -1.2310 hn        1 DBZ      0.338500
     22 H2         -1.3490   -5.2940   -0.2720 ha        1 DBZ      0.174000
     23 H6          0.6760   -2.6520   -3.0550 ha        1 DBZ      0.174000
     24 H3         -1.9610   -6.8170   -2.1650 ha        1 DBZ      0.123500
     25 H5          0.0430   -4.1660   -4.9280 ha        1 DBZ      0.123500
     26 H4         -1.2650   -6.2470   -4.4920 ha        1 DBZ      0.114000
@<TRIPOS>BOND
     1    1    2 1   
     2    1   16 1   
     3    1   17 1   
     4    2    3 1   
     5    2   13 1   
     6    2   18 1   
     7    3    4 1   
     8    3   19 1   
     9    3   20 1   
    10    4    5 1   
    11    4   21 1   
    12    5    6 2   
    13    5    7 1   
    14    7    8 ar  
    15    7    9 ar  
    16    8   10 ar  
    17    8   22 1   
    18    9   11 ar  
    19    9   23 1   
    20   10   12 ar  
    21   10   24 1   
    22   11   12 ar  
    23   11   25 1   
    24   12   26 1   
    25   13   14 1   
    26   13   15 1   
@<TRIPOS>SUBSTRUCTURE
     1 DBZ         1 TEMP              0 ****  ****    0 ROOT
