@<TRIPOS>MOLECULE
DC
   32    32     1     0     0
SMALL
bcc


@<TRIPOS>ATOM
      1 OP3        -1.7280   -1.6330    4.0430 o         1 DC      -0.923500
      2 P          -0.3820   -1.9130    3.4150 p5        1 DC       1.543500
      3 OP1         0.6340   -2.1750    4.5010 o         1 DC      -0.923500
      4 OP2        -0.4870   -3.1240    2.5200 o         1 DC      -0.923500
      5 O5'         0.0710   -0.6620    2.5600 os        1 DC      -0.717000
      6 C5'        -0.5890   -0.4080    1.3410 c3        1 DC       0.077000
      7 C4'        -1.1180    1.0110    1.3410 c3        1 DC      -0.071000
      8 O4'        -0.0520    1.9990    0.6400 os        1 DC      -0.257000
      9 C3'        -2.1950    1.0820    0.6370 c3        1 DC      -0.002000
     10 O3'        -3.0930    2.1330    1.1770 oh        1 DC      -0.350000
     11 C2'        -1.7140    1.4660   -0.8020 c3        1 DC      -0.214000
     12 C1'        -0.2370    1.8810   -0.6450 c3        1 DC       0.150000
     13 N1          0.6280    0.8630   -1.1830 n         1 DC      -0.266000
     14 C2          0.2850    0.2030   -2.4410 c2        1 DC       0.336000
     15 O2         -0.6910    0.5640   -3.0680 o         1 DC      -0.411000
     16 N3          1.1090   -0.8940   -2.9400 n2        1 DC      -0.333000
     17 C4          2.3380   -1.2050   -2.3030 c1        1 DC       0.184000
     18 N4          3.2280   -2.1390   -2.8960 n2        1 DC      -0.334000
     19 C5          2.7320   -0.4870   -1.0820 c2        1 DC      -0.379000
     20 C6          1.8490    0.5520   -0.5290 c2        1 DC       0.102000
     21 H5'        -1.3350   -1.0340    1.2370 h1        1 DC       0.034500
     22 H5''        0.0400   -0.5220    0.5990 h1        1 DC       0.034500
     23 H4'        -1.2960    1.3040    2.2560 h1        1 DC       0.190000
     24 H3'        -2.6510    0.2170    0.6240 h1        1 DC       0.121000
     25 HO3'       -3.9340    1.8450    1.1540 ho        1 DC       0.201000
     26 H2'        -1.7880    0.6960   -1.4010 hc        1 DC       0.098500
     27 H2''       -2.2410    2.2140   -1.1470 hc        1 DC       0.098500
     28 H1'        -0.0750    2.7360   -1.0920 h2        1 DC       0.108000
     29 H41         3.0010   -2.5540   -3.6780 hn        1 DC       0.188000
     30 H42         4.0250   -2.3310   -2.4910 hn        1 DC       0.188000
     31 H5          3.5350   -0.7540   -0.5960 ha        1 DC       0.164000
     32 H6          2.1310    1.0690    0.2490 h4        1 DC       0.287000
@<TRIPOS>BOND
     1    1    2 1   
     2    2    3 1   
     3    2    4 1   
     4    2    5 1   
     5    5    6 1   
     6    6    7 1   
     7    6   21 1   
     8    6   22 1   
     9    7    8 1   
    10    7    9 1   
    11    7   23 1   
    12    8   12 1   
    13    9   10 1   
    14    9   11 1   
    15    9   24 1   
    16   10   25 1   
    17   11   12 1   
    18   11   26 1   
    19   11   27 1   
    20   12   13 1   
    21   12   28 1   
    22   13   14 1   
    23   13   20 1   
    24   14   15 1   
    25   14   16 1   
    26   16   17 1   
    27   17   19 1   
    28   18   29 1   
    29   18   30 1   
    30   19   20 1   
    31   19   31 1   
    32   20   32 1   
@<TRIPOS>SUBSTRUCTURE
     1 DC          1 TEMP              0 ****  ****    0 ROOT
