@<TRIPOS>MOLECULE
DC
   32    33     1     0     0
SMALL
bcc


@<TRIPOS>ATOM
      1 OP3         0.7280   -0.8010   -4.7340 o         1 DC      -0.929500
      2 P           0.6640   -0.2580   -3.3420 p5        1 DC       1.329900
      3 OP1         1.9560    0.0300   -2.6300 o         1 DC      -0.929500
      4 OP2        -0.4390    0.7340   -3.0320 o         1 DC      -0.929500
      5 O5'         0.0480   -1.5960   -2.4000 os        1 DC      -0.553200
      6 C5'         0.0540   -1.3580   -1.0550 c3        1 DC       0.224400
      7 C4'        -1.3780   -1.0870   -0.5350 c3        1 DC       0.050100
      8 O4'        -1.4940   -1.5600    0.8350 os        1 DC      -0.441600
      9 C3'        -1.7830    0.4010   -0.5490 c3        1 DC       0.153100
     10 O3'        -2.7550    0.6600   -1.5340 oh        1 DC      -0.668800
     11 C2'        -2.3980    0.6580    0.8340 c3        1 DC      -0.129400
     12 C1'        -1.9210   -0.5210    1.7050 c3        1 DC       0.293500
     13 N1         -0.8280   -0.1640    2.6350 n         1 DC      -0.368000
     14 C2         -1.1150    0.0970    4.0180 c         1 DC       0.823900
     15 O2         -2.3020    0.0080    4.4140 o         1 DC      -0.666500
     16 N3         -0.0870    0.4610    4.9030 nc        1 DC      -0.750100
     17 C4          1.1740    0.5130    4.4360 cd        1 DC       0.714500
     18 N4          2.2280    0.7910    5.3190 nh        1 DC      -0.897800
     19 C5          1.4980    0.2400    3.0530 cd        1 DC      -0.463600
     20 C6          0.4640   -0.0930    2.2010 cc        1 DC       0.103600
     21 H5'         0.7240   -0.4830   -0.8080 h1        1 DC      -0.003800
     22 H5''        0.4290   -2.2720   -0.5040 h1        1 DC      -0.003800
     23 H4'        -2.1120   -1.6980   -1.1250 h1        1 DC       0.074700
     24 H3'        -0.8840    1.0550   -0.7260 h1        1 DC       0.098700
     25 HO3'       -2.2530    0.7270   -2.3800 ho        1 DC       0.500000
     26 H2'        -3.5140    0.6340    0.7730 hc        1 DC       0.053200
     27 H2''       -2.0920    1.6510    1.2370 hc        1 DC       0.053200
     28 H1'        -2.7470   -0.9500    2.3440 h2        1 DC       0.087700
     29 H41         1.9760    1.2050    6.1880 hn        1 DC       0.396800
     30 H42         3.0150    1.2090    4.8790 hn        1 DC       0.396800
     31 H5          2.5260    0.2850    2.6800 ha        1 DC       0.158000
     32 H6          0.6440   -0.3200    1.1230 h4        1 DC       0.224000
@<TRIPOS>BOND
     1    1    2 1   
     2    2    3 1   
     3    2    4 1   
     4    2    5 1   
     5    5    6 1   
     6    6    7 1   
     7    6   21 1   
     8    6   22 1   
     9    7    8 1   
    10    7    9 1   
    11    7   23 1   
    12    8   12 1   
    13    9   10 1   
    14    9   11 1   
    15    9   24 1   
    16   10   25 1   
    17   11   12 1   
    18   11   26 1   
    19   11   27 1   
    20   12   13 1   
    21   12   28 1   
    22   13   14 1   
    23   13   20 1   
    24   14   15 2   
    25   14   16 1   
    26   16   17 2   
    27   17   18 1   
    28   17   19 1   
    29   18   29 1   
    30   18   30 1   
    31   19   20 2   
    32   19   31 1   
    33   20   32 1   
@<TRIPOS>SUBSTRUCTURE
     1 DC          1 TEMP              0 ****  ****    0 ROOT
