@<TRIPOS>MOLECULE
DC0
   42    42     1     0     0
SMALL
bcc


@<TRIPOS>ATOM
      1 N          -1.9690    1.9900    0.0240 n3        1 DC0     -0.901800
      2 C1         -2.2830    0.5720    0.0530 c3        1 DC0      0.149500
      3 C2         -1.1520   -0.2960   -0.5620 c3        1 DC0      0.162800
      4 C3         -3.5890    0.1840   -0.6650 c3        1 DC0     -0.115400
      5 C4         -4.8410    0.6100    0.0870 c3        1 DC0     -0.066700
      6 C5         -6.0270    0.6490   -0.8560 c3        1 DC0     -0.089100
      7 C6         -5.1290   -0.3270    1.2430 c3        1 DC0     -0.089100
      8 N2          0.0740   -0.2610    0.2030 n3        1 DC0     -0.799200
      9 C7          1.1420   -1.0560   -0.3950 c3        1 DC0      0.053500
     10 C           0.7890   -2.5830   -0.4990 c         1 DC0      0.926600
     11 O          -0.1160   -2.9080   -1.3180 o         1 DC0     -0.838300
     12 C9          2.4570   -0.9090    0.3850 c3        1 DC0     -0.040100
     13 C10         3.0290    0.4610    0.3010 ca        1 DC0     -0.049300
     14 C11         2.6920    1.4370    1.2500 ca        1 DC0     -0.135000
     15 C12         3.9220    0.7970   -0.7250 ca        1 DC0     -0.135000
     16 C13         3.2370    2.7170    1.1730 ca        1 DC0     -0.138500
     17 C14         4.4670    2.0770   -0.8000 ca        1 DC0     -0.138500
     18 C15         4.1270    3.0400    0.1490 ca        1 DC0     -0.159000
     19 OXT         1.4570   -3.3970    0.1920 o         1 DC0     -0.838300
     20 H          -1.5680    2.2410   -0.8590 hn        1 DC0      0.331300
     21 H1         -2.3900    0.2980    1.1450 h1        1 DC0      0.070700
     22 H3         -1.4940   -1.3730   -0.5870 h1        1 DC0      0.052200
     23 H4         -1.0050    0.0270   -1.6360 h1        1 DC0      0.052200
     24 H5         -3.5970    0.6360   -1.6910 hc        1 DC0      0.048700
     25 H6         -3.6070   -0.9300   -0.7970 hc        1 DC0      0.048700
     26 H7         -4.6940    1.6460    0.5050 hc        1 DC0      0.034700
     27 H8         -6.1830   -0.3510   -1.3270 hc        1 DC0      0.030200
     28 H9         -6.9550    0.9290   -0.3030 hc        1 DC0      0.030200
     29 H10        -5.8580    1.3980   -1.6670 hc        1 DC0      0.030200
     30 H11        -4.2620   -0.3610    1.9450 hc        1 DC0      0.030200
     31 H12        -6.0300    0.0180    1.8050 hc        1 DC0      0.030200
     32 H13        -5.3190   -1.3620    0.8700 hc        1 DC0      0.030200
     33 H14         0.3910    0.6880    0.3070 hn        1 DC0      0.334800
     34 H15         1.3380   -0.7170   -1.4600 h1        1 DC0     -0.000300
     35 H16         2.2830   -1.2000    1.4540 hc        1 DC0      0.070200
     36 H17         3.1760   -1.6580   -0.0440 hc        1 DC0      0.070200
     37 H18         1.9840    1.1830    2.0540 ha        1 DC0      0.138000
     38 H19         4.1870    0.0390   -1.4770 ha        1 DC0      0.138000
     39 H20         2.9610    3.4740    1.9200 ha        1 DC0      0.114000
     40 H21         5.1660    2.3280   -1.6100 ha        1 DC0      0.114000
     41 H22         4.5570    4.0490    0.0900 ha        1 DC0      0.111000
     42 H2         -2.8000    2.5330    0.1580 hn        1 DC0      0.331300
@<TRIPOS>BOND
     1    1    2 1   
     2    1   20 1   
     3    1   42 1   
     4    2    3 1   
     5    2    4 1   
     6    2   21 1   
     7    3    8 1   
     8    3   22 1   
     9    3   23 1   
    10    4    5 1   
    11    4   24 1   
    12    4   25 1   
    13    5    6 1   
    14    5    7 1   
    15    5   26 1   
    16    6   27 1   
    17    6   28 1   
    18    6   29 1   
    19    7   30 1   
    20    7   31 1   
    21    7   32 1   
    22    8    9 1   
    23    8   33 1   
    24    9   10 1   
    25    9   12 1   
    26    9   34 1   
    27   10   11 1   
    28   10   19 1   
    29   12   13 1   
    30   12   35 1   
    31   12   36 1   
    32   13   14 ar  
    33   13   15 ar  
    34   14   16 ar  
    35   14   37 1   
    36   15   17 ar  
    37   15   38 1   
    38   16   18 ar  
    39   16   39 1   
    40   17   18 ar  
    41   17   40 1   
    42   18   41 1   
@<TRIPOS>SUBSTRUCTURE
     1 DC0         1 TEMP              0 ****  ****    0 ROOT
