@<TRIPOS>MOLECULE
DC0
   42    40     1     0     0
SMALL
bcc


@<TRIPOS>ATOM
      1 N          -2.3300    1.3170   -1.8440 n3        1 DC0     -0.333000
      2 C1         -0.9810    0.8480   -1.9150 c3        1 DC0     -0.043000
      3 C2         -0.3810    0.7920   -0.5000 c3        1 DC0     -0.117000
      4 C3         -0.1770    1.7820   -2.7500 c3        1 DC0     -0.145000
      5 C4         -0.2050    1.3280   -4.2440 c3        1 DC0     -0.108000
      6 C5         -0.3100    2.5900   -5.1660 c3        1 DC0     -0.205000
      7 C6          1.0640    0.5810   -4.5650 c3        1 DC0     -0.205000
      8 N2         -0.5410   -0.5320    0.0340 n3        1 DC0     -0.289000
      9 C7          0.1400   -0.6300    1.3030 c3        1 DC0     -0.116000
     10 C           1.6130   -0.7750    1.0690 c2        1 DC0      0.308000
     11 O           2.0570   -1.7870    0.4770 o         1 DC0     -0.572000
     12 C9         -0.3720   -1.8310    2.0490 c3        1 DC0     -0.108000
     13 C10        -0.0180   -1.7000    3.5600 c2        1 DC0     -0.048000
     14 C11        -1.0340   -1.5430    4.5010 c2        1 DC0     -0.145000
     15 C12         1.3140   -1.8400    3.9820 c1        1 DC0     -0.122000
     16 C13        -0.7260   -1.5250    5.8710 c1        1 DC0     -0.151000
     17 C14         1.6210   -1.8230    5.3440 c1        1 DC0     -0.149000
     18 C15         0.6030   -1.6650    6.2890 c1        1 DC0     -0.149000
     19 OXT         2.3910    0.1090    1.4540 o         1 DC0     -0.572000
     20 H          -2.3690    2.1910   -2.1460 hn        1 DC0      0.138000
     21 H1         -0.9650   -0.0720   -2.3250 h1        1 DC0      0.097000
     22 H3         -0.8430    1.4410    0.0810 h1        1 DC0      0.079500
     23 H4          0.5960    1.0190   -0.5440 h1        1 DC0      0.079500
     24 H5          0.7960    1.7860   -2.4140 hc        1 DC0      0.079000
     25 H6         -0.5500    2.6820   -2.6780 hc        1 DC0      0.079000
     26 H7         -1.0030    0.7260   -4.4030 hc        1 DC0      0.104000
     27 H8          0.3510    3.2310   -4.9060 hc        1 DC0      0.066500
     28 H9         -1.1950    2.9830   -5.0790 hc        1 DC0      0.066500
     29 H10        -0.1580    2.3260   -6.1010 hc        1 DC0      0.066500
     30 H11         1.8490    1.1930   -4.4460 hc        1 DC0      0.066500
     31 H12         1.1530   -0.1720   -3.9750 hc        1 DC0      0.066500
     32 H13         1.0320    0.2680   -5.4870 hc        1 DC0      0.066500
     33 H14        -0.1760   -1.1630   -0.5700 hn        1 DC0      0.152000
     34 H15        -0.0300    0.1810    1.8310 h1        1 DC0      0.091000
     35 H16        -1.3670   -1.8880    1.9440 hc        1 DC0      0.088000
     36 H17         0.0400   -2.6360    1.6870 hc        1 DC0      0.088000
     37 H18        -1.9830   -1.4440    4.2010 ha        1 DC0      0.118000
     38 H19         2.0380   -2.0450    3.3060 ha        1 DC0      0.207000
     39 H20        -1.4410   -1.5270    6.5270 ha        1 DC0      0.108000
     40 H21         2.5330   -1.9190    5.6320 ha        1 DC0      0.113500
     41 H22         0.8270   -1.6520    7.2790 ha        1 DC0      0.113500
     42 H2         -2.8610    0.7940   -2.3630 hn        1 DC0      0.138000
@<TRIPOS>BOND
     1    1    2 1   
     2    1   20 1   
     3    1   42 1   
     4    2    3 1   
     5    2    4 1   
     6    2   21 1   
     7    3    8 1   
     8    3   22 1   
     9    3   23 1   
    10    4    5 1   
    11    4   24 1   
    12    4   25 1   
    13    5    6 1   
    14    5    7 1   
    15    5   26 1   
    16    6   27 1   
    17    6   28 1   
    18    6   29 1   
    19    7   30 1   
    20    7   31 1   
    21    7   32 1   
    22    8    9 1   
    23    8   33 1   
    24    9   10 1   
    25    9   12 1   
    26    9   34 1   
    27   10   11 1   
    28   10   19 1   
    29   12   13 1   
    30   12   35 1   
    31   12   36 1   
    32   13   14 1   
    33   13   15 1   
    34   14   16 1   
    35   14   37 1   
    36   15   38 1   
    37   16   39 1   
    38   17   18 1   
    39   17   40 1   
    40   18   41 1   
@<TRIPOS>SUBSTRUCTURE
     1 DC0         1 TEMP              0 ****  ****    0 ROOT
