@<TRIPOS>MOLECULE
DC2
   24    23     1     0     0
SMALL
bcc


@<TRIPOS>ATOM
      1 O1         -3.6190    1.7580   -0.2430 o         1 DC2     -0.818300
      2 CL1         2.8360   -0.4630   -1.8330 cl        1 DC2     -0.221400
      3 C2         -2.5360    1.8630    0.3950 c         1 DC2      0.914600
      4 CL2         3.5800   -1.4080    1.2910 cl        1 DC2     -0.204400
      5 C4         -1.4180    0.7610    0.1540 c3        1 DC2     -0.069300
      6 N          -1.8670   -0.2380   -0.7990 n         1 DC2     -0.514900
      7 C6         -1.8090   -1.5890   -0.5430 c         1 DC2      0.637100
      8 O7         -0.9980   -2.0950    0.2700 o         1 DC2     -0.663100
      9 C8         -2.7080   -2.4880   -1.3650 c3        1 DC2     -0.178100
     10 C9         -0.1460    1.4850   -0.2720 c3        1 DC2      0.000700
     11 S10         1.3870    0.8520    0.3540 ss        1 DC2     -0.269200
     12 C11         1.6630   -0.6520   -0.5170 c3        1 DC2      0.107800
     13 C12         2.0890   -1.7490    0.4260 c3        1 DC2      0.053000
     14 OXT        -2.2510    2.7670    1.2190 o         1 DC2     -0.818300
     15 H4         -1.2320    0.2680    1.1530 h1        1 DC2      0.078700
     16 H2         -2.6680    0.0770   -1.3190 hn        1 DC2      0.322500
     17 H8         -2.5480   -2.3190   -2.4560 hc        1 DC2      0.054700
     18 H8A        -2.4780   -3.5530   -1.1230 hc        1 DC2      0.054700
     19 H8B        -3.7780   -2.2800   -1.1180 hc        1 DC2      0.054700
     20 H9         -0.0930    1.6060   -1.3790 h1        1 DC2      0.091700
     21 H9A        -0.1720    2.5070    0.2030 h1        1 DC2      0.091700
     22 H11         0.7200   -0.9840   -1.0240 h2        1 DC2      0.117700
     23 H12         2.2660   -2.7020   -0.1300 h1        1 DC2      0.088700
     24 H12A        1.2850   -1.9000    1.1930 h1        1 DC2      0.088700
@<TRIPOS>BOND
     1    1    3 1   
     2    2   12 1   
     3    3    5 1   
     4    3   14 1   
     5    4   13 1   
     6    5    6 1   
     7    5   10 1   
     8    5   15 1   
     9    6    7 1   
    10    6   16 1   
    11    7    8 2   
    12    7    9 1   
    13    9   17 1   
    14    9   18 1   
    15    9   19 1   
    16   10   11 1   
    17   10   20 1   
    18   10   21 1   
    19   11   12 1   
    20   12   13 1   
    21   12   22 1   
    22   13   23 1   
    23   13   24 1   
@<TRIPOS>SUBSTRUCTURE
     1 DC2         1 TEMP              0 ****  ****    0 ROOT
