@<TRIPOS>MOLECULE
DC2
   24    22     1     0     0
SMALL
bcc


@<TRIPOS>ATOM
      1 O1          0.1600   -0.6140   -2.7340 o         1 DC2     -0.567000
      2 CL1        -0.2270    4.1460   -0.4650 cl        1 DC2     -0.145000
      3 C2         -0.6140   -0.8400   -1.7600 c1        1 DC2      0.333000
      4 CL2        -3.1220    4.3840   -0.1490 cl        1 DC2     -0.127000
      5 C4         -0.0780   -0.8200   -0.3490 c3        1 DC2     -0.098000
      6 N           1.1340   -1.6050   -0.2830 n         1 DC2     -0.320000
      7 C6          1.0590   -3.0090   -0.1020 c2        1 DC2      0.283000
      8 O7         -0.0200   -3.5600   -0.0730 o         1 DC2     -0.423000
      9 C8          2.3560   -3.8350    0.0910 c3        1 DC2     -0.245000
     10 C9          0.2200    0.5990    0.0600 c3        1 DC2     -0.253000
     11 S10        -1.2700    1.5280    0.0930 ss        1 DC2      0.086000
     12 C11        -0.9440    3.1440    0.7630 c3        1 DC2     -0.199000
     13 C12        -2.2420    3.7690    1.2310 c3        1 DC2     -0.096000
     14 OXT        -1.8180   -1.1180   -1.9680 os        1 DC2     -0.539000
     15 H4         -0.7480   -1.2010    0.2610 h1        1 DC2      0.120000
     16 H2          1.9510   -1.2030   -0.4270 hn        1 DC2      0.234000
     17 H8          2.8630   -3.4750    0.8500 hc        1 DC2      0.094333
     18 H8A         2.1250   -4.7710    0.2670 hc        1 DC2      0.094333
     19 H8B         2.9070   -3.7800   -0.7270 hc        1 DC2      0.094333
     20 H9          0.8440    1.0020   -0.5830 h1        1 DC2      0.131000
     21 H9A         0.6220    0.6030    0.9470 h1        1 DC2      0.131000
     22 H11        -0.3260    3.0650    1.5250 h2        1 DC2      0.175000
     23 H12        -2.0480    4.4990    1.8440 h1        1 DC2      0.119500
     24 H12A       -2.7850    3.0920    1.6890 h1        1 DC2      0.119500
@<TRIPOS>BOND
     1    1    3 1   
     2    2   12 1   
     3    3    5 1   
     4    4   13 1   
     5    5    6 1   
     6    5   10 1   
     7    5   15 1   
     8    6    7 1   
     9    6   16 1   
    10    7    8 1   
    11    7    9 1   
    12    9   17 1   
    13    9   18 1   
    14    9   19 1   
    15   10   11 1   
    16   10   20 1   
    17   10   21 1   
    18   11   12 1   
    19   12   13 1   
    20   12   22 1   
    21   13   23 1   
    22   13   24 1   
@<TRIPOS>SUBSTRUCTURE
     1 DC2         1 TEMP              0 ****  ****    0 ROOT
