@<TRIPOS>MOLECULE
DC3
   45    47     1     0     0
SMALL
bcc


@<TRIPOS>ATOM
      1 FAG         4.7180   -2.3150   -0.0460 f         1 DC3     -0.134900
      2 CAE         5.0550   -1.0150    0.1400 ca        1 DC3      0.126900
      3 CAF         6.3640   -0.6060   -0.1570 ca        1 DC3     -0.178000
      4 CAA         6.7300    0.7340    0.0260 ca        1 DC3      0.119900
      5 FAH         7.9870    1.1400   -0.2570 f         1 DC3     -0.115900
      6 CAB         5.7730    1.6650    0.5130 ca        1 DC3      0.086900
      7 FAI         6.1190    2.9600    0.6920 f         1 DC3     -0.118900
      8 CAC         4.4700    1.2340    0.8070 ca        1 DC3     -0.121000
      9 CAD         4.0960   -0.0970    0.6270 ca        1 DC3     -0.101300
     10 CAJ         2.7170   -0.5380    0.9620 c3        1 DC3     -0.081100
     11 CAK         1.7850   -0.5230   -0.2710 c3        1 DC3      0.171500
     12 NAM         2.1940   -1.3890   -1.3570 n3        1 DC3     -0.905800
     13 CAL         0.3670   -0.8390    0.2290 c3        1 DC3     -0.091400
     14 CAN        -0.6370   -0.7540   -0.9190 c3        1 DC3      0.062300
     15 NAO        -2.0230   -0.7780   -0.4870 na        1 DC3      0.045400
     16 CAP        -2.9830    0.1920   -0.7980 cc        1 DC3     -0.218600
     17 NAS        -2.5820   -1.7370    0.2920 nc        1 DC3     -0.167800
     18 NAR        -3.8050   -1.4730    0.4980 nd        1 DC3     -0.350000
     19 CAQ        -4.1580   -0.2610   -0.1570 cd        1 DC3      0.314800
     20 CAT        -5.4700    0.3460   -0.1420 ca        1 DC3     -0.098500
     21 CAY        -6.5380   -0.2600    0.5340 ca        1 DC3     -0.102000
     22 CAX        -7.8030    0.3370    0.5420 ca        1 DC3     -0.078300
     23 CAZ        -8.9200   -0.3050    1.2730 c3        1 DC3     -0.054800
     24 CAW        -8.0010    1.5460   -0.1330 ca        1 DC3     -0.128000
     25 CAV        -6.9420    2.1520   -0.8070 ca        1 DC3     -0.128000
     26 CAU        -5.6830    1.5600   -0.8150 ca        1 DC3     -0.131000
     27 H1          7.1020   -1.3320   -0.5310 ha        1 DC3      0.173000
     28 H2          3.7400    1.9660    1.1890 ha        1 DC3      0.162000
     29 H3          2.7480   -1.5750    1.3910 hc        1 DC3      0.066700
     30 H4          2.2840    0.1390    1.7450 hc        1 DC3      0.066700
     31 H5          1.7860    0.5310   -0.6840 h1        1 DC3      0.060700
     32 H6          3.1230   -1.1570   -1.6530 hn        1 DC3      0.355800
     33 H7          2.1790   -2.3500   -1.0730 hn        1 DC3      0.355800
     34 H9          0.3360   -1.8610    0.6870 hc        1 DC3      0.063200
     35 H10         0.1080   -0.0990    1.0310 hc        1 DC3      0.063200
     36 H11        -0.4800    0.2040   -1.4900 h1        1 DC3      0.073700
     37 H12        -0.4750   -1.6190   -1.6240 h1        1 DC3      0.073700
     38 H13        -2.7750    1.0630   -1.4150 h4        1 DC3      0.190000
     39 H14        -6.3880   -1.2130    1.0660 ha        1 DC3      0.153000
     40 H15        -8.8940   -0.0020    2.3500 hc        1 DC3      0.045367
     41 H16        -9.9070   -0.0010    0.8470 hc        1 DC3      0.045367
     42 H17        -8.8410   -1.4190    1.2230 hc        1 DC3      0.045367
     43 H18        -8.9950    2.0180   -0.1320 ha        1 DC3      0.131000
     44 H19        -7.1020    3.1030   -1.3370 ha        1 DC3      0.130000
     45 H20        -4.8540    2.0450   -1.3500 ha        1 DC3      0.124000
@<TRIPOS>BOND
     1    1    2 1   
     2    2    3 ar  
     3    2    9 ar  
     4    3    4 ar  
     5    3   27 1   
     6    4    5 1   
     7    4    6 ar  
     8    6    7 1   
     9    6    8 ar  
    10    8    9 ar  
    11    8   28 1   
    12    9   10 1   
    13   10   11 1   
    14   10   29 1   
    15   10   30 1   
    16   11   12 1   
    17   11   13 1   
    18   11   31 1   
    19   12   32 1   
    20   12   33 1   
    21   13   14 1   
    22   13   34 1   
    23   13   35 1   
    24   14   15 1   
    25   14   36 1   
    26   14   37 1   
    27   15   16 1   
    28   15   17 1   
    29   16   19 2   
    30   16   38 1   
    31   17   18 2   
    32   18   19 1   
    33   19   20 1   
    34   20   21 ar  
    35   20   26 ar  
    36   21   22 ar  
    37   21   39 1   
    38   22   23 1   
    39   22   24 ar  
    40   23   40 1   
    41   23   41 1   
    42   23   42 1   
    43   24   25 ar  
    44   24   43 1   
    45   25   26 ar  
    46   25   44 1   
    47   26   45 1   
@<TRIPOS>SUBSTRUCTURE
     1 DC3         1 TEMP              0 ****  ****    0 ROOT
