@<TRIPOS>MOLECULE
DC3
   46    48     1     0     0
SMALL
bcc


@<TRIPOS>ATOM
      1 FAG        -0.0910    0.9600   -1.9500 f         1 DC3     -0.147900
      2 CAE         0.7150    0.5550   -0.9330 ca        1 DC3      0.106900
      3 CAF         0.3630    0.8710    0.3870 ca        1 DC3     -0.164000
      4 CAA         1.1800    0.4400    1.4420 ca        1 DC3      0.153900
      5 FAH         0.8550    0.7340    2.7150 f         1 DC3     -0.086900
      6 CAB         2.3570   -0.3130    1.1610 ca        1 DC3      0.106900
      7 FAI         3.1450   -0.7360    2.1700 f         1 DC3     -0.093900
      8 CAC         2.6960   -0.6040   -0.1700 ca        1 DC3     -0.111000
      9 CAD         1.8870   -0.1790   -1.2240 ca        1 DC3     -0.169300
     10 CAJ         2.3070   -0.4210   -2.6290 c3        1 DC3     -0.056100
     11 CAK         1.7140   -1.7090   -3.2270 c3        1 DC3      0.128500
     12 NAM         0.2140   -1.6640   -3.2090 nz        1 DC3     -0.833600
     13 CAL         2.2790   -1.9070   -4.6360 c3        1 DC3     -0.124400
     14 CAN         1.9450   -3.2600   -5.2630 c3        1 DC3      0.044300
     15 NAO         0.7800   -3.2710   -6.1190 na        1 DC3      0.020400
     16 CAP         0.7230   -3.7920   -7.4210 cc        1 DC3     -0.197600
     17 NAS        -0.4400   -2.7800   -5.7800 nc        1 DC3     -0.284800
     18 NAR        -1.2610   -2.9420   -6.7300 nd        1 DC3     -0.308000
     19 CAQ        -0.6160   -3.5820   -7.8240 cd        1 DC3      0.365800
     20 CAT        -1.2460   -3.9280   -9.0790 ca        1 DC3     -0.138500
     21 CAY        -2.5420   -3.4880   -9.3820 ca        1 DC3     -0.094000
     22 CAX        -3.1370   -3.8280  -10.6010 ca        1 DC3     -0.071300
     23 CAZ        -4.5120   -3.3740  -10.9140 c3        1 DC3     -0.060800
     24 CAW        -2.4290   -4.6120  -11.5200 ca        1 DC3     -0.106000
     25 CAV        -1.1410   -5.0530  -11.2210 ca        1 DC3     -0.122000
     26 CAU        -0.5470   -4.7160  -10.0080 ca        1 DC3     -0.119000
     27 H1         -0.5430    1.4630    0.5970 ha        1 DC3      0.193000
     28 H2          3.6250   -1.1630   -0.3690 ha        1 DC3      0.170000
     29 H3          3.4270   -0.5190   -2.6770 hc        1 DC3      0.098700
     30 H4          2.0230    0.4610   -3.2690 hc        1 DC3      0.098700
     31 H5          2.0090   -2.5870   -2.5750 hx        1 DC3      0.106700
     32 H6         -0.1100   -1.3910   -2.2750 hn        1 DC3      0.468133
     33 H7         -0.1280   -0.9700   -3.8860 hn        1 DC3      0.468133
     34 H9          3.3990   -1.8520   -4.5390 hc        1 DC3      0.099700
     35 H10         1.9690   -1.0580   -5.3030 hc        1 DC3      0.099700
     36 H11         2.8220   -3.5830   -5.8990 h1        1 DC3      0.081200
     37 H12         1.8060   -4.0320   -4.4510 h1        1 DC3      0.081200
     38 H13         1.5760   -4.2430   -7.9260 h4        1 DC3      0.208000
     39 H14        -3.1030   -2.8700   -8.6640 ha        1 DC3      0.148000
     40 H15        -4.6130   -3.1320  -12.0010 hc        1 DC3      0.052700
     41 H16        -5.2450   -4.1840  -10.6680 hc        1 DC3      0.052700
     42 H17        -4.7820   -2.4650  -10.3230 hc        1 DC3      0.052700
     43 H18        -2.8930   -4.8800  -12.4820 ha        1 DC3      0.146000
     44 H19        -0.5900   -5.6700  -11.9470 ha        1 DC3      0.144000
     45 H20         0.4670   -5.0720   -9.7790 ha        1 DC3      0.124000
     46 HAM3       -0.1740   -2.5830   -3.4480 hn        1 DC3      0.468133
@<TRIPOS>BOND
     1    1    2 1   
     2    2    3 ar  
     3    2    9 ar  
     4    3    4 ar  
     5    3   27 1   
     6    4    5 1   
     7    4    6 ar  
     8    6    7 1   
     9    6    8 ar  
    10    8    9 ar  
    11    8   28 1   
    12    9   10 1   
    13   10   11 1   
    14   10   29 1   
    15   10   30 1   
    16   11   12 1   
    17   11   13 1   
    18   11   31 1   
    19   12   32 1   
    20   12   33 1   
    21   12   46 1   
    22   13   14 1   
    23   13   34 1   
    24   13   35 1   
    25   14   15 1   
    26   14   36 1   
    27   14   37 1   
    28   15   16 1   
    29   15   17 1   
    30   16   19 2   
    31   16   38 1   
    32   17   18 2   
    33   18   19 1   
    34   19   20 1   
    35   20   21 ar  
    36   20   26 ar  
    37   21   22 ar  
    38   21   39 1   
    39   22   23 1   
    40   22   24 ar  
    41   23   40 1   
    42   23   41 1   
    43   23   42 1   
    44   24   25 ar  
    45   24   43 1   
    46   25   26 ar  
    47   25   44 1   
    48   26   45 1   
@<TRIPOS>SUBSTRUCTURE
     1 DC3         1 TEMP              0 ****  ****    0 ROOT
