@<TRIPOS>MOLECULE
DC3
   45    38     1     0     0
SMALL
bcc


@<TRIPOS>ATOM
      1 FAG         0.6460    3.4900    5.1480 f         1 DC3     -0.100000
      2 CAE         1.7820    2.8520    5.2210 c2        1 DC3      0.118000
      3 CAF         2.4840    2.8140    6.4210 c2        1 DC3     -0.181000
      4 CAA         3.7150    2.1920    6.4810 c1        1 DC3      0.085000
      5 FAH         4.3290    2.0190    7.6870 f         1 DC3     -0.085000
      6 CAB         4.2500    1.6070    5.3500 c1        1 DC3      0.026500
      7 FAI         5.5250    1.0930    5.3810 f         1 DC3     -0.089000
      8 CAC         3.5470    1.6450    4.1450 c1        1 DC3     -0.125500
      9 CAD         2.3200    2.2640    4.0830 c1        1 DC3     -0.079000
     10 CAJ         1.6010    2.4330    2.7070 c2        1 DC3     -0.122000
     11 CAK         0.8060    1.1770    2.3980 c3        1 DC3     -0.021000
     12 NAM        -0.2980    1.0770    3.3040 n3        1 DC3     -0.343000
     13 CAL         0.2950    1.2340    0.9900 c3        1 DC3     -0.223000
     14 CAN         0.1860   -0.2130    0.4240 c3        1 DC3     -0.002000
     15 NAO        -0.3810   -0.1660   -0.9140 n3        1 DC3     -0.171000
     16 CAP        -0.5970   -1.2160   -1.7180 c1        1 DC3     -0.128000
     17 NAS        -0.6860    0.9540   -1.6010 n2        1 DC3      0.005000
     18 NAR        -1.0940    0.5900   -2.8380 n2        1 DC3     -0.084000
     19 CAQ        -1.0420   -0.7420   -2.9160 c1        1 DC3     -0.116000
     20 CAT        -1.4790   -1.5850   -4.1090 c1        1 DC3      0.026500
     21 CAY        -2.8320   -1.8320   -4.3310 c1        1 DC3     -0.101000
     22 CAX        -3.2200   -2.6610   -5.3610 c1        1 DC3     -0.071000
     23 CAZ        -4.7830   -2.9380   -5.6290 c3        1 DC3     -0.180000
     24 CAW        -2.2650   -3.2480   -6.1730 c1        1 DC3     -0.127000
     25 CAV        -0.9160   -3.0000   -5.9490 c1        1 DC3     -0.127000
     26 CAU        -0.5280   -2.1720   -4.9210 c1        1 DC3     -0.125500
     27 H1          2.0760    3.1790    7.2420 ha        1 DC3      0.171000
     28 H2          3.9190    1.2380    3.3600 ha        1 DC3      0.140000
     29 H3          0.9800    3.2240    2.7500 ha        1 DC3      0.101500
     30 H4          2.2650    2.5790    2.0070 ha        1 DC3      0.101500
     31 H5          1.3970    0.3780    2.5040 h1        1 DC3      0.099000
     32 H6         -0.2930    0.2490    3.7030 hn        1 DC3      0.152500
     33 H7         -1.0890    1.1910    2.8390 hn        1 DC3      0.152500
     34 H9         -0.5950    1.6600    0.9760 hc        1 DC3      0.105000
     35 H10         0.9390    1.7770    0.4160 hc        1 DC3      0.105000
     36 H11        -0.3700   -0.7290    0.9840 h1        1 DC3      0.104000
     37 H12         1.0570   -0.6070    0.3890 h1        1 DC3      0.104000
     38 H13        -0.4590   -2.1590   -1.4850 DU        1 DC3      0.190000
     39 H14        -3.4900   -1.4590   -3.7440 ha        1 DC3      0.153000
     40 H15        -5.2530   -3.0870   -4.7540 hc        1 DC3      0.084667
     41 H16        -5.1960   -2.1310   -6.1050 hc        1 DC3      0.084667
     42 H17        -4.8820   -3.7360   -6.1920 hc        1 DC3      0.084667
     43 H18        -2.5310   -3.8190   -6.8820 ha        1 DC3      0.131500
     44 H19        -0.2440   -3.4120   -6.5200 ha        1 DC3      0.131500
     45 H20         0.4030   -2.0010   -4.7680 ha        1 DC3      0.140000
@<TRIPOS>BOND
     1    1    2 1   
     2    2    3 1   
     3    2    9 1   
     4    3    4 1   
     5    3   27 1   
     6    4    5 1   
     7    6    8 1   
     8    8   28 1   
     9   10   11 1   
    10   10   29 1   
    11   10   30 1   
    12   11   12 1   
    13   11   13 1   
    14   11   31 1   
    15   12   32 1   
    16   12   33 1   
    17   13   14 1   
    18   13   34 1   
    19   13   35 1   
    20   14   15 1   
    21   14   36 1   
    22   14   37 1   
    23   15   16 1   
    24   15   17 1   
    25   16   19 1   
    26   17   18 1   
    27   18   19 1   
    28   20   26 1   
    29   21   22 1   
    30   21   39 1   
    31   22   23 1   
    32   23   40 1   
    33   23   41 1   
    34   23   42 1   
    35   24   25 1   
    36   24   43 1   
    37   25   44 1   
    38   26   45 1   
@<TRIPOS>SUBSTRUCTURE
     1 DC3         1 TEMP              0 ****  ****    0 ROOT
