@<TRIPOS>MOLECULE
DC3
   46    48     1     0     0
SMALL
bcc


@<TRIPOS>ATOM
      1 FAG        -0.0690    0.9310   -1.9190 f         1 DC3     -0.147900
      2 CAE         0.7360    0.5120   -0.9070 ca        1 DC3      0.106900
      3 CAF         0.3850    0.8150    0.4160 ca        1 DC3     -0.164000
      4 CAA         1.2010    0.3690    1.4660 ca        1 DC3      0.153900
      5 FAH         0.8770    0.6510    2.7420 f         1 DC3     -0.086900
      6 CAB         2.3750   -0.3850    1.1770 ca        1 DC3      0.106900
      7 FAI         3.1610   -0.8230    2.1810 f         1 DC3     -0.093900
      8 CAC         2.7110   -0.6640   -0.1570 ca        1 DC3     -0.111000
      9 CAD         1.9050   -0.2240   -1.2060 ca        1 DC3     -0.169300
     10 CAJ         2.3220   -0.4530   -2.6140 c3        1 DC3     -0.056100
     11 CAK         1.7240   -1.7310   -3.2250 c3        1 DC3      0.128500
     12 NAM         0.2240   -1.6800   -3.2060 n4        1 DC3     -0.833600
     13 CAL         2.2870   -1.9160   -4.6370 c3        1 DC3     -0.124400
     14 CAN         1.9480   -3.2610   -5.2790 c3        1 DC3      0.044300
     15 NAO         0.7820   -3.2580   -6.1340 na        1 DC3      0.020400
     16 CAP         0.7220   -3.7630   -7.4420 cc        1 DC3     -0.197600
     17 NAS        -0.4350   -2.7660   -5.7880 nc        1 DC3     -0.284800
     18 NAR        -1.2580   -2.9140   -6.7400 nd        1 DC3     -0.308000
     19 CAQ        -0.6160   -3.5430   -7.8420 cd        1 DC3      0.365800
     20 CAT        -1.2480   -3.8720   -9.1000 ca        1 DC3     -0.138500
     21 CAY        -2.5450   -3.4280   -9.3950 ca        1 DC3     -0.094000
     22 CAX        -3.1420   -3.7520  -10.6180 ca        1 DC3     -0.071300
     23 CAZ        -4.5180   -3.2940  -10.9220 c3        1 DC3     -0.060800
     24 CAW        -2.4350   -4.5230  -11.5480 ca        1 DC3     -0.106000
     25 CAV        -1.1470   -4.9670  -11.2580 ca        1 DC3     -0.122000
     26 CAU        -0.5510   -4.6470  -10.0410 ca        1 DC3     -0.119000
     27 H1         -0.5190    1.4090    0.6330 ha        1 DC3      0.193000
     28 H2          3.6380   -1.2250   -0.3620 ha        1 DC3      0.170000
     29 H3          3.4420   -0.5550   -2.6630 hc        1 DC3      0.098700
     30 H4          2.0430    0.4380   -3.2440 hc        1 DC3      0.098700
     31 H5          2.0160   -2.6180   -2.5830 hx        1 DC3      0.106700
     32 H6         -0.1680   -2.5950   -3.4550 hn        1 DC3      0.468133
     33 H7         -0.0980   -1.4160   -2.2690 hn        1 DC3      0.468133
     34 H9          1.9800   -1.0580   -5.2940 hc        1 DC3      0.099700
     35 H10         3.4080   -1.8660   -4.5400 hc        1 DC3      0.099700
     36 H11         2.8230   -3.5800   -5.9190 h1        1 DC3      0.081200
     37 H12         1.8060   -4.0410   -4.4750 h1        1 DC3      0.081200
     38 H13         1.5730   -4.2110   -7.9520 h4        1 DC3      0.208000
     39 H14        -3.1050   -2.8210   -8.6670 ha        1 DC3      0.149000
     40 H15        -4.6200   -3.0350  -12.0050 hc        1 DC3      0.052700
     41 H16        -5.2500   -4.1080  -10.6870 hc        1 DC3      0.052700
     42 H17        -4.7880   -2.3940  -10.3160 hc        1 DC3      0.052700
     43 H18        -2.9010   -4.7780  -12.5130 ha        1 DC3      0.146000
     44 H19        -0.5970   -5.5750  -11.9930 ha        1 DC3      0.144000
     45 H20         0.4640   -5.0060   -9.8190 ha        1 DC3      0.124000
     46 HAM3       -0.1150   -0.9780   -3.8760 hn        1 DC3      0.468133
@<TRIPOS>BOND
     1    1    2 1   
     2    2    3 ar  
     3    2    9 ar  
     4    3    4 ar  
     5    3   27 1   
     6    4    5 1   
     7    4    6 ar  
     8    6    7 1   
     9    6    8 ar  
    10    8    9 ar  
    11    8   28 1   
    12    9   10 1   
    13   10   11 1   
    14   10   29 1   
    15   10   30 1   
    16   11   12 1   
    17   11   13 1   
    18   11   31 1   
    19   12   32 1   
    20   12   33 1   
    21   12   46 1   
    22   13   14 1   
    23   13   34 1   
    24   13   35 1   
    25   14   15 1   
    26   14   36 1   
    27   14   37 1   
    28   15   16 1   
    29   15   17 1   
    30   16   19 2   
    31   16   38 1   
    32   17   18 2   
    33   18   19 1   
    34   19   20 1   
    35   20   21 ar  
    36   20   26 ar  
    37   21   22 ar  
    38   21   39 1   
    39   22   23 1   
    40   22   24 ar  
    41   23   40 1   
    42   23   41 1   
    43   23   42 1   
    44   24   25 ar  
    45   24   43 1   
    46   25   26 ar  
    47   25   44 1   
    48   26   45 1   
@<TRIPOS>SUBSTRUCTURE
     1 DC3         1 TEMP              0 ****  ****    0 ROOT
