@<TRIPOS>MOLECULE
DC3
   46    48     1     0     0
SMALL
bcc


@<TRIPOS>ATOM
      1 FAG         0.0060    0.9810   -1.9630 f         1 DC3     -0.147900
      2 CAE         0.7820    0.5460   -0.9360 ca        1 DC3      0.106900
      3 CAF         0.4280    0.8810    0.3790 ca        1 DC3     -0.164000
      4 CAA         1.2130    0.4190    1.4450 ca        1 DC3      0.153900
      5 FAH         0.8850    0.7310    2.7130 f         1 DC3     -0.086900
      6 CAB         2.3600   -0.3840    1.1810 ca        1 DC3      0.106900
      7 FAI         3.1170   -0.8370    2.2010 f         1 DC3     -0.093900
      8 CAC         2.7020   -0.6940   -0.1440 ca        1 DC3     -0.111000
      9 CAD         1.9250   -0.2380   -1.2100 ca        1 DC3     -0.169300
     10 CAJ         2.3510   -0.5030   -2.6090 c3        1 DC3     -0.056100
     11 CAK         1.7110   -1.7670   -3.2100 c3        1 DC3      0.128500
     12 NAM         0.2140   -1.6580   -3.2110 n4        1 DC3     -0.833600
     13 CAL         2.2840   -1.9940   -4.6110 c3        1 DC3     -0.124400
     14 CAN         1.9010   -3.3340   -5.2390 c3        1 DC3      0.044300
     15 NAO         0.7470   -3.2990   -6.1080 na        1 DC3      0.020400
     16 CAP         0.6830   -3.8230   -7.4090 cc        1 DC3     -0.197600
     17 NAS        -0.4540   -2.7540   -5.7860 nc        1 DC3     -0.284800
     18 NAR        -1.2710   -2.8850   -6.7460 nd        1 DC3     -0.308000
     19 CAQ        -0.6410   -3.5570   -7.8290 cd        1 DC3      0.365800
     20 CAT        -1.2700   -3.8820   -9.0900 ca        1 DC3     -0.138500
     21 CAY        -2.5370   -3.3790   -9.4150 ca        1 DC3     -0.094000
     22 CAX        -3.1310   -3.6990  -10.6410 ca        1 DC3     -0.071300
     23 CAZ        -4.4770   -3.1780  -10.9770 c3        1 DC3     -0.060800
     24 CAW        -2.4520   -4.5270  -11.5420 ca        1 DC3     -0.106000
     25 CAV        -1.1930   -5.0300  -11.2210 ca        1 DC3     -0.122000
     26 CAU        -0.6000   -4.7140  -10.0020 ca        1 DC3     -0.119000
     27 H1         -0.4550    1.5120    0.5760 ha        1 DC3      0.193000
     28 H2          3.6090   -1.2930   -0.3300 ha        1 DC3      0.170000
     29 H3          3.4660   -0.6490   -2.6430 hc        1 DC3      0.098700
     30 H4          2.1130    0.3880   -3.2550 hc        1 DC3      0.098700
     31 H5          1.9600   -2.6550   -2.5510 hx        1 DC3      0.106700
     32 H6         -0.1090   -1.3680   -2.2820 hn        1 DC3      0.468133
     33 H7         -0.2100   -2.5600   -3.4520 hn        1 DC3      0.468133
     34 H9          2.0180   -1.1350   -5.2850 hc        1 DC3      0.099700
     35 H10         3.4050   -1.9860   -4.5010 hc        1 DC3      0.099700
     36 H11         1.7190   -4.0960   -4.4250 h1        1 DC3      0.081200
     37 H12         2.7710   -3.6960   -5.8620 h1        1 DC3      0.081200
     38 H13         1.5220   -4.3130   -7.9010 h4        1 DC3      0.208000
     39 H14        -3.0760   -2.7260   -8.7110 ha        1 DC3      0.148000
     40 H15        -5.2550   -3.9430  -10.7250 hc        1 DC3      0.052700
     41 H16        -4.7040   -2.2450  -10.4040 hc        1 DC3      0.052700
     42 H17        -4.5530   -2.9490  -12.0690 hc        1 DC3      0.052700
     43 H18        -2.9160   -4.7790  -12.5080 ha        1 DC3      0.146000
     44 H19        -0.6640   -5.6830  -11.9330 ha        1 DC3      0.144000
     45 H20         0.3920   -5.1200   -9.7550 ha        1 DC3      0.124000
     46 HAM3       -0.0890   -0.9530   -3.8940 hn        1 DC3      0.468133
@<TRIPOS>BOND
     1    1    2 1   
     2    2    3 ar  
     3    2    9 ar  
     4    3    4 ar  
     5    3   27 1   
     6    4    5 1   
     7    4    6 ar  
     8    6    7 1   
     9    6    8 ar  
    10    8    9 ar  
    11    8   28 1   
    12    9   10 1   
    13   10   11 1   
    14   10   29 1   
    15   10   30 1   
    16   11   12 1   
    17   11   13 1   
    18   11   31 1   
    19   12   32 1   
    20   12   33 1   
    21   12   46 1   
    22   13   14 1   
    23   13   34 1   
    24   13   35 1   
    25   14   15 1   
    26   14   36 1   
    27   14   37 1   
    28   15   16 1   
    29   15   17 1   
    30   16   19 2   
    31   16   38 1   
    32   17   18 2   
    33   18   19 1   
    34   19   20 1   
    35   20   21 ar  
    36   20   26 ar  
    37   21   22 ar  
    38   21   39 1   
    39   22   23 1   
    40   22   24 ar  
    41   23   40 1   
    42   23   41 1   
    43   23   42 1   
    44   24   25 ar  
    45   24   43 1   
    46   25   26 ar  
    47   25   44 1   
    48   26   45 1   
@<TRIPOS>SUBSTRUCTURE
     1 DC3         1 TEMP              0 ****  ****    0 ROOT
