@<TRIPOS>MOLECULE
DC4
   21    15     1     0     0
SMALL
bcc


@<TRIPOS>ATOM
      1 CAH        -2.0220   -0.0030   -0.3530 c1        1 DC4     -0.072000
      2 CAN        -0.6180   -0.0030   -0.3530 c1        1 DC4     -0.073000
      3 CAM         0.3230   -0.0030    0.6900 c1        1 DC4     -0.022000
      4 CAF         0.1790   -0.0030    2.0870 c1        1 DC4     -0.114250
      5 CAC         1.3040   -0.0030    2.9000 c1        1 DC4     -0.114250
      6 CAB         2.5730   -0.0030    2.3330 c1        1 DC4     -0.114250
      7 CAE         2.7160   -0.0030    0.9520 c1        1 DC4     -0.114250
      8 CAK         1.5790   -0.0030    0.1280 c1        1 DC4     -0.022000
      9 OAI         1.4310   -0.0030   -1.2560 o         1 DC4     -0.109000
     10 CAL         0.0690   -0.0030   -1.5440 c1        1 DC4      0.039000
     11 CAG        -0.6340   -0.0030   -2.7600 c1        1 DC4     -0.122000
     12 CAD        -2.0220   -0.0030   -2.7590 c1        1 DC4     -0.101000
     13 CAJ        -2.7160   -0.0030   -1.5550 c1        1 DC4     -0.084000
     14 CL1        -4.4580    0.0620   -1.6090 cl        1 DC4     -0.014000
     15 HAH        -2.5100   -0.0030    0.4920 ha        1 DC4      0.155000
     16 HAF        -0.7120   -0.0030    2.4850 ha        1 DC4      0.142750
     17 HAC         1.2040   -0.0030    3.8710 ha        1 DC4      0.142750
     18 HAB         3.3630   -0.0030    2.9050 ha        1 DC4      0.142750
     19 HAE         3.6070   -0.0030    0.5540 ha        1 DC4      0.142750
     20 HAG        -0.1460   -0.0030   -3.6060 ha        1 DC4      0.158000
     21 HAD        -2.5100   -0.0030   -3.6040 ha        1 DC4      0.152000
@<TRIPOS>BOND
     1    1    2 1   
     2    1   15 1   
     3    3    8 1   
     4    4    5 1   
     5    4   16 1   
     6    5   17 1   
     7    6    7 1   
     8    6   18 1   
     9    7   19 1   
    10    9   10 1   
    11   10   11 1   
    12   11   20 1   
    13   12   13 1   
    14   12   21 1   
    15   13   14 1   
@<TRIPOS>SUBSTRUCTURE
     1 DC4         1 TEMP              0 ****  ****    0 ROOT
