@<TRIPOS>MOLECULE
DC4
   21    23     1     0     0
SMALL
bcc


@<TRIPOS>ATOM
      1 CAH         1.2470   -0.8430    0.0000 ca        1 DC4     -0.072000
      2 CAN         0.0450   -0.1540    0.0000 cp        1 DC4     -0.073000
      3 CAM        -1.3560   -0.5380    0.0000 cp        1 DC4     -0.084000
      4 CAF        -2.0470   -1.7410    0.0000 ca        1 DC4     -0.074000
      5 CAC        -3.4450   -1.7050    0.0000 ca        1 DC4     -0.151000
      6 CAB        -4.1450   -0.4950   -0.0000 ca        1 DC4     -0.103000
      7 CAE        -3.4800    0.7360   -0.0010 ca        1 DC4     -0.129000
      8 CAK        -2.0950    0.6900   -0.0000 ca        1 DC4      0.085100
      9 OAI        -1.2440    1.8090   -0.0010 os        1 DC4     -0.199200
     10 CAL         0.0560    1.2790   -0.0000 ca        1 DC4      0.084100
     11 CAG         1.2260    2.0220   -0.0000 ca        1 DC4     -0.122000
     12 CAD         2.4270    1.3080   -0.0000 ca        1 DC4     -0.101000
     13 CAJ         2.4320   -0.0930    0.0000 ca        1 DC4     -0.005600
     14 CL1         3.9240   -0.9130    0.0010 cl        1 DC4     -0.092400
     15 HAH         1.2710   -1.9430    0.0010 ha        1 DC4      0.155000
     16 HAF        -1.5100   -2.6990    0.0010 ha        1 DC4      0.142000
     17 HAC        -4.0060   -2.6510    0.0000 ha        1 DC4      0.137000
     18 HAB        -5.2460   -0.5060   -0.0000 ha        1 DC4      0.138000
     19 HAE        -4.0240    1.6890   -0.0010 ha        1 DC4      0.154000
     20 HAG         1.2100    3.1200   -0.0010 ha        1 DC4      0.158000
     21 HAD         3.3800    1.8600   -0.0000 ha        1 DC4      0.152000
@<TRIPOS>BOND
     1    1    2 ar  
     2    1   13 ar  
     3    1   15 1   
     4    2    3 1   
     5    2   10 ar  
     6    3    4 ar  
     7    3    8 ar  
     8    4    5 ar  
     9    4   16 1   
    10    5    6 ar  
    11    5   17 1   
    12    6    7 ar  
    13    6   18 1   
    14    7    8 ar  
    15    7   19 1   
    16    8    9 1   
    17    9   10 1   
    18   10   11 ar  
    19   11   12 ar  
    20   11   20 1   
    21   12   13 ar  
    22   12   21 1   
    23   13   14 1   
@<TRIPOS>SUBSTRUCTURE
     1 DC4         1 TEMP              0 ****  ****    0 ROOT
