@<TRIPOS>MOLECULE
DC5
   22    23     1     0     0
SMALL
bcc


@<TRIPOS>ATOM
      1 CA1         0.0040    0.0040    0.0050 cp        1 DC5     -0.050000
      2 CA6         1.3750   -0.2830    0.0220 ca        1 DC5     -0.101000
      3 CA5         2.0720   -0.2860    1.2290 ca        1 DC5     -0.133000
      4 CA4         1.4080   -0.0040    2.4230 ca        1 DC5     -0.121000
      5 CA3         0.0430    0.2830    2.4090 ca        1 DC5     -0.133000
      6 CA2        -0.6600    0.2870    1.2060 ca        1 DC5     -0.101000
      7 CB1        -0.7330    0.0080   -1.2630 cp        1 DC5     -0.025000
      8 CB2        -0.8480    1.1810   -2.0290 ca        1 DC5      0.034400
      9 CB3        -1.5500    1.1870   -3.2390 ca        1 DC5     -0.129000
     10 CB4        -2.1470    0.0160   -3.6970 ca        1 DC5     -0.113000
     11 CB5        -2.0480   -1.1590   -2.9570 ca        1 DC5     -0.129000
     12 CB6        -1.3450   -1.1610   -1.7480 ca        1 DC5      0.034400
     13 Cl6        -1.2450   -2.6150   -0.8720 cl        1 DC5     -0.077400
     14 Cl1        -0.1320    2.6310   -1.5020 cl        1 DC5     -0.077400
     15 HA2        -1.7360    0.5140    1.1970 ha        1 DC5      0.138000
     16 HA6         1.9000   -0.5060   -0.9180 ha        1 DC5      0.138000
     17 HA3        -0.4820    0.5060    3.3490 ha        1 DC5      0.133000
     18 HA4         1.9610   -0.0060    3.3740 ha        1 DC5      0.132000
     19 HA5         3.1480   -0.5120    1.2380 ha        1 DC5      0.133000
     20 HB3        -1.6290    2.1150   -3.8260 ha        1 DC5      0.151000
     21 HB4        -2.7000    0.0190   -4.6490 ha        1 DC5      0.143000
     22 HB5        -2.5210   -2.0840   -3.3210 ha        1 DC5      0.151000
@<TRIPOS>BOND
     1    1    2 ar  
     2    1    6 ar  
     3    1    7 1   
     4    2    3 ar  
     5    2   16 1   
     6    3    4 ar  
     7    3   19 1   
     8    4    5 ar  
     9    4   18 1   
    10    5    6 ar  
    11    5   17 1   
    12    6   15 1   
    13    7    8 ar  
    14    7   12 ar  
    15    8    9 ar  
    16    8   14 1   
    17    9   10 ar  
    18    9   20 1   
    19   10   11 ar  
    20   10   21 1   
    21   11   12 ar  
    22   11   22 1   
    23   12   13 1   
@<TRIPOS>SUBSTRUCTURE
     1 DC5         1 TEMP              0 ****  ****    0 ROOT
