@<TRIPOS>MOLECULE
DC5
   22    23     1     0     0
SMALL
bcc


@<TRIPOS>ATOM
      1 CA1         0.0040    0.0040    0.0050 cp        1 DC5     -0.050000
      2 CA6         1.3730   -0.2880    0.0230 ca        1 DC5     -0.101000
      3 CA5         2.0700   -0.2910    1.2310 ca        1 DC5     -0.133000
      4 CA4         1.4070   -0.0040    2.4240 ca        1 DC5     -0.121000
      5 CA3         0.0430    0.2870    2.4090 ca        1 DC5     -0.133000
      6 CA2        -0.6590    0.2920    1.2050 ca        1 DC5     -0.101000
      7 CB1        -0.7330    0.0080   -1.2630 cp        1 DC5     -0.025000
      8 CB2        -0.8440    1.1810   -2.0310 ca        1 DC5      0.034400
      9 CB3        -1.5460    1.1870   -3.2400 ca        1 DC5     -0.129000
     10 CB4        -2.1460    0.0170   -3.6980 ca        1 DC5     -0.113000
     11 CB5        -2.0500   -1.1580   -2.9560 ca        1 DC5     -0.129000
     12 CB6        -1.3470   -1.1600   -1.7470 ca        1 DC5      0.034400
     13 CL6        -1.2520   -2.6130   -0.8690 cl        1 DC5     -0.077400
     14 CL1        -0.1250    2.6290   -1.5050 cl        1 DC5     -0.077400
     15 HA2        -1.7350    0.5220    1.1950 ha        1 DC5      0.138000
     16 HA6         1.8980   -0.5150   -0.9170 ha        1 DC5      0.138000
     17 HA3        -0.4820    0.5140    3.3480 ha        1 DC5      0.133000
     18 HA4         1.9590   -0.0070    3.3750 ha        1 DC5      0.132000
     19 HA5         3.1460   -0.5210    1.2400 ha        1 DC5      0.133000
     20 HB3        -1.6230    2.1140   -3.8290 ha        1 DC5      0.151000
     21 HB4        -2.6980    0.0200   -4.6500 ha        1 DC5      0.143000
     22 HB5        -2.5250   -2.0820   -3.3200 ha        1 DC5      0.151000
@<TRIPOS>BOND
     1    1    2 ar  
     2    1    6 ar  
     3    1    7 1   
     4    2    3 ar  
     5    2   16 1   
     6    3    4 ar  
     7    3   19 1   
     8    4    5 ar  
     9    4   18 1   
    10    5    6 ar  
    11    5   17 1   
    12    6   15 1   
    13    7    8 ar  
    14    7   12 ar  
    15    8    9 ar  
    16    8   14 1   
    17    9   10 ar  
    18    9   20 1   
    19   10   11 ar  
    20   10   21 1   
    21   11   12 ar  
    22   11   22 1   
    23   12   13 1   
@<TRIPOS>SUBSTRUCTURE
     1 DC5         1 TEMP              0 ****  ****    0 ROOT
