@<TRIPOS>MOLECULE
DC5
   22    23     1     0     0
SMALL
bcc


@<TRIPOS>ATOM
      1 CA1         0.9250   -0.0020    0.0020 cp        1 DC5     -0.050000
      2 CA6         1.6290    0.3050   -1.1690 ca        1 DC5     -0.101000
      3 CA5         3.0230    0.3000   -1.1650 ca        1 DC5     -0.133000
      4 CA4         3.7210   -0.0110    0.0020 ca        1 DC5     -0.121000
      5 CA3         3.0220   -0.3180    1.1690 ca        1 DC5     -0.133000
      6 CA2         1.6280   -0.3140    1.1720 ca        1 DC5     -0.101000
      7 CB1        -0.5420    0.0020    0.0020 cp        1 DC5     -0.025000
      8 CB2        -1.2620    1.1700    0.3100 ca        1 DC5      0.034400
      9 CB3        -2.6600    1.1770    0.3110 ca        1 DC5     -0.129000
     10 CB4        -3.3570    0.0110    0.0020 ca        1 DC5     -0.113000
     11 CB5        -2.6670   -1.1580   -0.3070 ca        1 DC5     -0.129000
     12 CB6        -1.2690   -1.1610   -0.3060 ca        1 DC5      0.034400
     13 CL6        -0.4620   -2.6070   -0.6890 cl        1 DC5     -0.077400
     14 CL1        -0.4460    2.6120    0.6920 cl        1 DC5     -0.077400
     15 HA2         1.0780   -0.5560    2.0940 ha        1 DC5      0.138000
     16 HA6         1.0810    0.5510   -2.0910 ha        1 DC5      0.138000
     17 HA3         3.5690   -0.5630    2.0910 ha        1 DC5      0.133000
     18 HA4         4.8200   -0.0150    0.0020 ha        1 DC5      0.132000
     19 HA5         3.5720    0.5420   -2.0870 ha        1 DC5      0.133000
     20 HB3        -3.2080    2.1000    0.5550 ha        1 DC5      0.151000
     21 HB4        -4.4580    0.0150    0.0020 ha        1 DC5      0.143000
     22 HB5        -3.2210   -2.0780   -0.5510 ha        1 DC5      0.151000
@<TRIPOS>BOND
     1    1    2 ar  
     2    1    6 ar  
     3    1    7 1   
     4    2    3 ar  
     5    2   16 1   
     6    3    4 ar  
     7    3   19 1   
     8    4    5 ar  
     9    4   18 1   
    10    5    6 ar  
    11    5   17 1   
    12    6   15 1   
    13    7    8 ar  
    14    7   12 ar  
    15    8    9 ar  
    16    8   14 1   
    17    9   10 ar  
    18    9   20 1   
    19   10   11 ar  
    20   10   21 1   
    21   11   12 ar  
    22   11   22 1   
    23   12   13 1   
@<TRIPOS>SUBSTRUCTURE
     1 DC5         1 TEMP              0 ****  ****    0 ROOT
