@<TRIPOS>MOLECULE
DC5
   22    16     1     0     0
SMALL
bcc


@<TRIPOS>ATOM
      1 CA1         0.3180   -0.0520    0.5760 c1        1 DC5     -0.050000
      2 CA6         1.7040   -0.0400    0.5480 c1        1 DC5     -0.121667
      3 CA5         2.4200   -0.0240    1.7350 c1        1 DC5     -0.121667
      4 CA4         1.7510   -0.0210    2.9490 c1        1 DC5     -0.121667
      5 CA3         0.3660   -0.0330    2.9760 c1        1 DC5     -0.121667
      6 CA2        -0.3510   -0.0480    1.7900 c1        1 DC5     -0.101000
      7 CB1        -0.3990   -0.0090   -0.6100 c1        1 DC5     -0.025000
      8 CB2        -0.6550    1.2080   -1.2220 c1        1 DC5     -0.044000
      9 CB3        -1.3360    1.2480   -2.4290 c1        1 DC5     -0.121667
     10 CB4        -1.7590    0.0700   -3.0250 c1        1 DC5     -0.121667
     11 CB5        -1.5020   -1.1470   -2.4130 c1        1 DC5     -0.129000
     12 CB6        -0.8220   -1.1870   -1.2060 c1        1 DC5     -0.044000
     13 CL6        -0.4920   -2.7190   -0.4420 cl        1 DC5      0.001000
     14 CL1        -0.0850    2.6860   -0.4940 cl        1 DC5      0.001000
     15 HA2        -1.3270   -0.0570    1.8090 ha        1 DC5      0.138000
     16 HA6         2.1750   -0.0420   -0.3060 ha        1 DC5      0.138333
     17 HA3        -0.1060   -0.0310    3.8310 ha        1 DC5      0.138333
     18 HA4         2.2560   -0.0110    3.7840 ha        1 DC5      0.138333
     19 HA5         3.3960   -0.0160    1.7150 ha        1 DC5      0.138333
     20 HB3        -1.5160    2.1050   -2.8590 ha        1 DC5      0.138333
     21 HB4        -2.2380    0.0980   -3.8750 ha        1 DC5      0.138333
     22 HB5        -1.8000   -1.9770   -2.8330 ha        1 DC5      0.151000
@<TRIPOS>BOND
     1    1    6 1   
     2    2    3 1   
     3    2   16 1   
     4    3   19 1   
     5    4    5 1   
     6    4   18 1   
     7    5   17 1   
     8    6   15 1   
     9    7    8 1   
    10    8   14 1   
    11    9   10 1   
    12    9   20 1   
    13   10   21 1   
    14   11   12 1   
    15   11   22 1   
    16   12   13 1   
@<TRIPOS>SUBSTRUCTURE
     1 DC5         1 TEMP              0 ****  ****    0 ROOT
