@<TRIPOS>MOLECULE
DC8
   39    42     1     0     0
SMALL
bcc


@<TRIPOS>ATOM
      1 C4          0.0100   -0.0240    0.0320 ca        1 DC8      0.088100
      2 C6         -0.0410   -0.3180   -2.3040 c3        1 DC8      0.202400
      3 C8          1.3230    0.3520   -2.4580 c3        1 DC8     -0.084700
      4 C10         1.2360    1.8510   -2.7000 c3        1 DC8     -0.118400
      5 C15         2.2030    0.1510   -1.2140 c3        1 DC8     -0.011400
      6 C17         1.4140   -0.0250    0.0410 ca        1 DC8     -0.101300
      7 C20        -0.7650   -0.8470   -4.6300 ca        1 DC8     -0.076000
      8 C21        -1.5760   -0.6480   -5.7440 ca        1 DC8     -0.186500
      9 C22        -2.5740    0.3360   -5.6970 ca        1 DC8      0.131100
     10 C24        -2.7620    1.1170   -4.5450 ca        1 DC8     -0.186500
     11 C1          1.3380   -0.3440    2.4390 ca        1 DC8      0.103100
     12 C2         -0.0650   -0.3200    2.4240 ca        1 DC8     -0.185000
     13 C3         -0.7320   -0.1670    1.2140 ca        1 DC8     -0.107000
     14 O5         -0.7270    0.1550   -1.1280 os        1 DC8     -0.322900
     15 C11         2.5000    2.4770   -2.0490 c3        1 DC8      0.406600
     16 F12         3.4020    2.9400   -2.9880 f         1 DC8     -0.241800
     17 F13         2.2160    3.6350   -1.3540 f         1 DC8     -0.241800
     18 C14         3.1180    1.3740   -1.1410 c3        1 DC8     -0.120400
     19 C18         2.0790   -0.1990    1.2580 ca        1 DC8     -0.131000
     20 C19        -0.9360   -0.0700   -3.4790 ca        1 DC8     -0.128300
     21 O23        -3.4150    0.5900   -6.7550 oh        1 DC8     -0.495100
     22 C25        -1.9380    0.9070   -3.4450 ca        1 DC8     -0.076000
     23 O26         2.0650   -0.5090    3.5980 oh        1 DC8     -0.498100
     24 H6          0.1200   -1.4300   -2.1810 h1        1 DC8      0.058700
     25 H8          1.8330   -0.1300   -3.3380 hc        1 DC8      0.067700
     26 H101        1.2050    2.0900   -3.7900 hc        1 DC8      0.083700
     27 H102        0.3210    2.2770   -2.2150 hc        1 DC8      0.083700
     28 H15         2.8320   -0.7730   -1.3530 hc        1 DC8      0.068700
     29 H20         0.0160   -1.6220   -4.6590 ha        1 DC8      0.143000
     30 H21        -1.4370   -1.2570   -6.6480 ha        1 DC8      0.145000
     31 H24        -3.5530    1.8800   -4.5290 ha        1 DC8      0.145000
     32 H2         -0.6320   -0.4260    3.3590 ha        1 DC8      0.138000
     33 H3         -1.8300   -0.1510    1.1700 ha        1 DC8      0.153000
     34 H141        3.2110    1.7580   -0.0950 hc        1 DC8      0.079200
     35 H142        4.1400    1.1220   -1.5180 hc        1 DC8      0.079200
     36 H18         3.1780   -0.2180    1.3010 ha        1 DC8      0.152000
     37 HO23       -3.1820   -0.0150   -7.4750 ho        1 DC8      0.420000
     38 H25        -2.0780    1.5100   -2.5320 ha        1 DC8      0.143000
     39 HO26        1.4390   -0.5810    4.3330 ho        1 DC8      0.419000
@<TRIPOS>BOND
     1    1    6 ar  
     2    1   13 ar  
     3    1   14 1   
     4    2    3 1   
     5    2   14 1   
     6    2   20 1   
     7    2   24 1   
     8    3    4 1   
     9    3    5 1   
    10    3   25 1   
    11    4   15 1   
    12    4   26 1   
    13    4   27 1   
    14    5    6 1   
    15    5   18 1   
    16    5   28 1   
    17    6   19 ar  
    18    7    8 ar  
    19    7   20 ar  
    20    7   29 1   
    21    8    9 ar  
    22    8   30 1   
    23    9   10 ar  
    24    9   21 1   
    25   10   22 ar  
    26   10   31 1   
    27   11   12 ar  
    28   11   19 ar  
    29   11   23 1   
    30   12   13 ar  
    31   12   32 1   
    32   13   33 1   
    33   15   16 1   
    34   15   17 1   
    35   15   18 1   
    36   18   34 1   
    37   18   35 1   
    38   19   36 1   
    39   20   22 ar  
    40   21   37 1   
    41   22   38 1   
    42   23   39 1   
@<TRIPOS>SUBSTRUCTURE
     1 DC8         1 TEMP              0 ****  ****    0 ROOT
