@<TRIPOS>MOLECULE
DC8
   39    42     1     0     0
SMALL
bcc


@<TRIPOS>ATOM
      1 C4         -1.3310   -1.3650   -0.2560 ca        1 DC8      0.089100
      2 C6          0.7360   -0.7050    0.6610 c3        1 DC8      0.202400
      3 C8          0.1820    0.6730    1.0150 c3        1 DC8     -0.084700
      4 C10         0.4010    1.7110   -0.0750 c3        1 DC8     -0.117400
      5 C15        -1.3290    0.6300    1.2940 c3        1 DC8     -0.011400
      6 C17        -2.0280   -0.4700    0.5670 ca        1 DC8     -0.099300
      7 C20         3.1300   -0.6290    1.3540 ca        1 DC8     -0.075500
      8 C21         4.4920   -0.5910    1.0810 ca        1 DC8     -0.186500
      9 C22         4.9190   -0.5960   -0.2590 ca        1 DC8      0.131100
     10 C24         3.9910   -0.6390   -1.3080 ca        1 DC8     -0.186500
     11 C1         -4.0710   -1.6460    0.0120 ca        1 DC8      0.104100
     12 C2         -3.3660   -2.5280   -0.8290 ca        1 DC8     -0.129000
     13 C3         -1.9930   -2.3900   -0.9560 ca        1 DC8     -0.112000
     14 O5          0.0370   -1.2770   -0.4630 os        1 DC8     -0.322900
     15 C11        -0.8030    2.6900   -0.0010 c3        1 DC8      0.406600
     16 F12        -0.4420    3.9340    0.4810 f         1 DC8     -0.241300
     17 F13        -1.2940    3.0170   -1.2490 f         1 DC8     -0.241300
     18 C14        -1.8720    2.0040    0.8980 c3        1 DC8     -0.120400
     19 C18        -3.4120   -0.6270    0.7060 ca        1 DC8     -0.187000
     20 C19         2.1920   -0.6650    0.3130 ca        1 DC8     -0.129300
     21 O23         6.2780   -0.5580   -0.4680 oh        1 DC8     -0.496100
     22 C25         2.6300   -0.6720   -1.0140 ca        1 DC8     -0.075500
     23 O26        -5.4290   -1.8520    0.1060 oh        1 DC8     -0.496100
     24 H6          0.5780   -1.3910    1.5450 h1        1 DC8      0.058700
     25 H8          0.7080    1.0120    1.9510 hc        1 DC8      0.068700
     26 H101        1.3590    2.2650    0.0730 hc        1 DC8      0.083700
     27 H102        0.4210    1.2250   -1.0840 hc        1 DC8      0.083700
     28 H15        -1.4950    0.4700    2.3960 hc        1 DC8      0.067700
     29 H20         2.7870   -0.6320    2.4000 ha        1 DC8      0.143500
     30 H21         5.2370   -0.5600    1.8880 ha        1 DC8      0.145500
     31 H24         4.3330   -0.6470   -2.3530 ha        1 DC8      0.145500
     32 H2         -3.9120   -3.3150   -1.3680 ha        1 DC8      0.155000
     33 H3         -1.4120   -3.0660   -1.6000 ha        1 DC8      0.154000
     34 H141       -2.8350    1.9220    0.3380 hc        1 DC8      0.077200
     35 H142       -2.0420    2.6340    1.8060 hc        1 DC8      0.077200
     36 H18        -3.9770    0.0560    1.3570 ha        1 DC8      0.136000
     37 HO23        6.4340   -0.5740   -1.4230 ho        1 DC8      0.421000
     38 H25         1.8910   -0.7120   -1.8310 ha        1 DC8      0.143500
     39 HO26       -5.7930   -1.1730    0.6930 ho        1 DC8      0.418000
@<TRIPOS>BOND
     1    1    6 ar  
     2    1   13 ar  
     3    1   14 1   
     4    2    3 1   
     5    2   14 1   
     6    2   20 1   
     7    2   24 1   
     8    3    4 1   
     9    3    5 1   
    10    3   25 1   
    11    4   15 1   
    12    4   26 1   
    13    4   27 1   
    14    5    6 1   
    15    5   18 1   
    16    5   28 1   
    17    6   19 ar  
    18    7    8 ar  
    19    7   20 ar  
    20    7   29 1   
    21    8    9 ar  
    22    8   30 1   
    23    9   10 ar  
    24    9   21 1   
    25   10   22 ar  
    26   10   31 1   
    27   11   12 ar  
    28   11   19 ar  
    29   11   23 1   
    30   12   13 ar  
    31   12   32 1   
    32   13   33 1   
    33   15   16 1   
    34   15   17 1   
    35   15   18 1   
    36   18   34 1   
    37   18   35 1   
    38   19   36 1   
    39   20   22 ar  
    40   21   37 1   
    41   22   38 1   
    42   23   39 1   
@<TRIPOS>SUBSTRUCTURE
     1 DC8         1 TEMP              0 ****  ****    0 ROOT
