@<TRIPOS>MOLECULE
DC8
   39    42     1     0     0
SMALL
bcc


@<TRIPOS>ATOM
      1 C4          0.0090   -0.0260    0.0480 ca        1 DC8      0.088100
      2 C6         -0.0540   -0.3800   -2.2790 c3        1 DC8      0.202400
      3 C8          1.3030    0.2990   -2.4590 c3        1 DC8     -0.084700
      4 C10         1.2000    1.7900   -2.7400 c3        1 DC8     -0.118400
      5 C15         2.1920    0.1380   -1.2150 c3        1 DC8     -0.011400
      6 C17         1.4130   -0.0130    0.0490 ca        1 DC8     -0.101300
      7 C20        -0.7860   -0.9760   -4.5880 ca        1 DC8     -0.076000
      8 C21        -1.6010   -0.8180   -5.7010 ca        1 DC8     -0.186500
      9 C22        -2.6110    0.1600   -5.6740 ca        1 DC8      0.131100
     10 C24        -2.7980    0.9680   -4.5450 ca        1 DC8     -0.186500
     11 C1          1.3550   -0.2730    2.4540 ca        1 DC8      0.103100
     12 C2         -0.0480   -0.2630    2.4470 ca        1 DC8     -0.185000
     13 C3         -0.7240   -0.1470    1.2390 ca        1 DC8     -0.107000
     14 O5         -0.7370    0.1180   -1.1110 os        1 DC8     -0.323900
     15 C11         2.4580    2.4460   -2.1070 c3        1 DC8      0.406600
     16 F12         3.3500    2.9010   -3.0610 f         1 DC8     -0.241800
     17 F13         2.1620    3.6150   -1.4360 f         1 DC8     -0.241800
     18 C14         3.0950    1.3710   -1.1790 c3        1 DC8     -0.120400
     19 C18         2.0870   -0.1500    1.2650 ca        1 DC8     -0.131000
     20 C19        -0.9590   -0.1690   -3.4540 ca        1 DC8     -0.129300
     21 O23        -3.3860    0.2700   -6.8050 oh        1 DC8     -0.496100
     22 C25        -1.9680    0.7980   -3.4390 ca        1 DC8     -0.076000
     23 O26         2.0910   -0.4030    3.6120 oh        1 DC8     -0.497100
     24 H6          0.1180   -1.4860   -2.1280 h1        1 DC8      0.058700
     25 H8          1.8120   -0.2020   -3.3290 hc        1 DC8      0.068700
     26 H101        0.2810    2.2180   -2.2650 hc        1 DC8      0.083700
     27 H102        1.1660    1.9990   -3.8360 hc        1 DC8      0.083700
     28 H15         2.8290   -0.7830   -1.3350 hc        1 DC8      0.069700
     29 H20         0.0030   -1.7430   -4.5980 ha        1 DC8      0.143000
     30 H21        -1.4730   -1.4420   -6.5970 ha        1 DC8      0.145000
     31 H24        -3.5920    1.7280   -4.5300 ha        1 DC8      0.145000
     32 H2         -0.6090   -0.3520    3.3890 ha        1 DC8      0.138000
     33 H3         -1.8230   -0.1430    1.2020 ha        1 DC8      0.153000
     34 H141        4.1160    1.1210   -1.5590 hc        1 DC8      0.079200
     35 H142        3.1940    1.7810   -0.1430 hc        1 DC8      0.079200
     36 H18         3.1860   -0.1590    1.3020 ha        1 DC8      0.152000
     37 HO23       -4.0390    0.9700   -6.6530 ho        1 DC8      0.421000
     38 H25        -2.1100    1.4230   -2.5430 ha        1 DC8      0.143000
     39 HO26        1.4700   -0.4640    4.3520 ho        1 DC8      0.419000
@<TRIPOS>BOND
     1    1    6 ar  
     2    1   13 ar  
     3    1   14 1   
     4    2    3 1   
     5    2   14 1   
     6    2   20 1   
     7    2   24 1   
     8    3    4 1   
     9    3    5 1   
    10    3   25 1   
    11    4   15 1   
    12    4   26 1   
    13    4   27 1   
    14    5    6 1   
    15    5   18 1   
    16    5   28 1   
    17    6   19 ar  
    18    7    8 ar  
    19    7   20 ar  
    20    7   29 1   
    21    8    9 ar  
    22    8   30 1   
    23    9   10 ar  
    24    9   21 1   
    25   10   22 ar  
    26   10   31 1   
    27   11   12 ar  
    28   11   19 ar  
    29   11   23 1   
    30   12   13 ar  
    31   12   32 1   
    32   13   33 1   
    33   15   16 1   
    34   15   17 1   
    35   15   18 1   
    36   18   34 1   
    37   18   35 1   
    38   19   36 1   
    39   20   22 ar  
    40   21   37 1   
    41   22   38 1   
    42   23   39 1   
@<TRIPOS>SUBSTRUCTURE
     1 DC8         1 TEMP              0 ****  ****    0 ROOT
