@<TRIPOS>MOLECULE
DCD
   20    19     1     0     0
SMALL
bcc


@<TRIPOS>ATOM
      1 C5          0.2410   -0.6130   -0.0610 c3        1 DCD     -0.130100
      2 C3          1.3420    0.3380    0.3560 c3        1 DCD      0.110800
      3 N1          1.6910    0.2400    1.8150 nx        1 DCD     -0.525200
      4 C1          2.6690    1.3080    2.2120 c         1 DCD      0.077000
      5 S2          3.9040    1.6470    1.3760 s         1 DCD     -0.032400
      6 S1          2.1390    1.9960    3.6830 sh        1 DCD     -0.119400
      7 C2          2.1900   -1.1260    2.2070 c3        1 DCD      0.110800
      8 C4          3.3370   -1.6660    1.3830 c3        1 DCD     -0.130100
      9 H5C1        0.5720   -1.6790   -0.0080 hc        1 DCD      0.079367
     10 H5C2       -0.0220   -0.3830   -1.1260 hc        1 DCD      0.079367
     11 H5C3       -0.6810   -0.4860    0.5580 hc        1 DCD      0.079367
     12 H3C1        2.2820    0.1390   -0.2380 hx        1 DCD      0.107700
     13 H3C2        1.0170    1.4020    0.1650 hx        1 DCD      0.107700
     14 HS          3.1070    2.9060    3.8720 hs        1 DCD      0.279800
     15 H2C1        1.3050   -1.8230    2.1220 hx        1 DCD      0.107700
     16 H2C2        2.4940   -1.0620    3.2930 hx        1 DCD      0.107700
     17 H4C1        4.1900   -0.9440    1.3270 hc        1 DCD      0.079367
     18 H4C2        3.0110   -1.9200    0.3440 hc        1 DCD      0.079367
     19 H4C3        3.7010   -2.6050    1.8750 hc        1 DCD      0.079367
     20 H11         0.8150    0.3900    2.3430 hn        1 DCD      0.451800
@<TRIPOS>BOND
     1    1    2 1   
     2    1    9 1   
     3    1   10 1   
     4    1   11 1   
     5    2    3 1   
     6    2   12 1   
     7    2   13 1   
     8    3    4 1   
     9    3    7 1   
    10    3   20 1   
    11    4    5 2   
    12    4    6 1   
    13    6   14 1   
    14    7    8 1   
    15    7   15 1   
    16    7   16 1   
    17    8   17 1   
    18    8   18 1   
    19    8   19 1   
@<TRIPOS>SUBSTRUCTURE
     1 DCD         1 TEMP              0 ****  ****    0 ROOT
