@<TRIPOS>MOLECULE
DCD
   20    19     1     0     0
SMALL
bcc


@<TRIPOS>ATOM
      1 C5          0.0470    0.3120   -0.0690 c3        1 DCD     -0.131100
      2 C3          1.3510   -0.3490    0.3230 c3        1 DCD      0.108800
      3 N1          1.6560   -0.2330    1.7900 n4        1 DCD     -0.526200
      4 C1          2.2020    1.1170    2.1590 c         1 DCD      0.078000
      5 S2          3.2520    1.8410    1.3150 s         1 DCD     -0.034400
      6 S1          1.4580    1.6150    3.6140 sh        1 DCD     -0.119400
      7 C2          2.5810   -1.3310    2.2500 c3        1 DCD      0.108800
      8 C4          3.8630   -1.4680    1.4590 c3        1 DCD     -0.131100
      9 H5C1       -0.8260   -0.1420    0.4600 hc        1 DCD      0.079700
     10 H5C2       -0.0960    0.1610   -1.1700 hc        1 DCD      0.079700
     11 H5C3        0.0600    1.4110    0.1310 hc        1 DCD      0.079700
     12 H3C1        1.3070   -1.4510    0.0810 hx        1 DCD      0.109450
     13 H3C2        2.2150    0.1080   -0.2470 hx        1 DCD      0.109450
     14 HS          2.0560    2.8050    3.7800 hs        1 DCD      0.278800
     15 H2C1        1.9930   -2.2930    2.1840 hx        1 DCD      0.109450
     16 H2C2        2.8170   -1.1290    3.3360 hx        1 DCD      0.109450
     17 H4C1        4.4390   -0.5080    1.4310 hc        1 DCD      0.079700
     18 H4C2        3.6670   -1.7990    0.4100 hc        1 DCD      0.079700
     19 H4C3        4.4960   -2.2440    1.9610 hc        1 DCD      0.079700
     20 H11         0.7640   -0.3650    2.2970 hn        1 DCD      0.453800
@<TRIPOS>BOND
     1    1    2 1   
     2    1    9 1   
     3    1   10 1   
     4    1   11 1   
     5    2    3 1   
     6    2   12 1   
     7    2   13 1   
     8    3    4 1   
     9    3    7 1   
    10    3   20 1   
    11    4    5 2   
    12    4    6 1   
    13    6   14 1   
    14    7    8 1   
    15    7   15 1   
    16    7   16 1   
    17    8   17 1   
    18    8   18 1   
    19    8   19 1   
@<TRIPOS>SUBSTRUCTURE
     1 DCD         1 TEMP              0 ****  ****    0 ROOT
