@<TRIPOS>MOLECULE
DCD
   19    18     1     0     0
SMALL
bcc


@<TRIPOS>ATOM
      1 C5         -1.2740   -0.7700    2.4860 c3        1 DCD     -0.117100
      2 C3         -0.9900    0.3960    1.5530 c3        1 DCD      0.072500
      3 N1         -0.6050    0.0150    0.2030 n         1 DCD     -0.395800
      4 C1          0.7060    0.0460   -0.1650 c         1 DCD      0.424000
      5 S2          1.9650    0.3550    0.7440 s         1 DCD     -0.430400
      6 S1          1.2670   -0.2640   -1.7500 sh        1 DCD     -0.199400
      7 C2         -1.6750   -0.3840   -0.6860 c3        1 DCD      0.072500
      8 C4         -2.2610    0.7370   -1.5320 c3        1 DCD     -0.117100
      9 H5C1       -1.5670   -0.3590    3.4830 hc        1 DCD      0.048533
     10 H5C2       -2.1080   -1.4070    2.1050 hc        1 DCD      0.048533
     11 H5C3       -0.3690   -1.4100    2.6170 hc        1 DCD      0.048533
     12 H3C1       -1.9130    1.0390    1.4690 h1        1 DCD      0.065700
     13 H3C2       -0.1580    1.0220    1.9960 h1        1 DCD      0.065700
     14 HS          0.2250   -0.4020   -2.5380 hs        1 DCD      0.136800
     15 H2C1       -1.3060   -1.2100   -1.3610 h1        1 DCD      0.065700
     16 H2C2       -2.4990   -0.8220   -0.0510 h1        1 DCD      0.065700
     17 H4C1       -3.0850    0.3170   -2.1580 hc        1 DCD      0.048533
     18 H4C2       -2.6790    1.5480   -0.8890 hc        1 DCD      0.048533
     19 H4C3       -1.4920    1.1840   -2.2070 hc        1 DCD      0.048533
@<TRIPOS>BOND
     1    1    2 1   
     2    1    9 1   
     3    1   10 1   
     4    1   11 1   
     5    2    3 1   
     6    2   12 1   
     7    2   13 1   
     8    3    4 1   
     9    3    7 1   
    10    4    5 2   
    11    4    6 1   
    12    6   14 1   
    13    7    8 1   
    14    7   15 1   
    15    7   16 1   
    16    8   17 1   
    17    8   18 1   
    18    8   19 1   
@<TRIPOS>SUBSTRUCTURE
     1 DCD         1 TEMP              0 ****  ****    0 ROOT
