@<TRIPOS>MOLECULE
DCD
   20    19     1     0     0
SMALL
bcc


@<TRIPOS>ATOM
      1 C5         -0.0710    0.2240    0.0720 c3        1 DCD     -0.131100
      2 C3          1.2880   -0.3720    0.3660 c3        1 DCD      0.108800
      3 N1          1.6880   -0.2520    1.8100 n4        1 DCD     -0.526200
      4 C1          2.1890    1.1220    2.1560 c         1 DCD      0.078000
      5 S2          3.1400    1.9040    1.2490 s         1 DCD     -0.034400
      6 S1          1.5230    1.5710    3.6630 sh        1 DCD     -0.119400
      7 C2          2.6970   -1.3050    2.1930 c3        1 DCD      0.108800
      8 C4          3.9260   -1.3700    1.3150 c3        1 DCD     -0.131100
      9 H5C1       -0.2820    0.0740   -1.0190 hc        1 DCD      0.079700
     10 H5C2       -0.1010    1.3210    0.2820 hc        1 DCD      0.079700
     11 H5C3       -0.8820   -0.2790    0.6540 hc        1 DCD      0.079700
     12 H3C1        2.0860    0.1330   -0.2570 hx        1 DCD      0.109450
     13 H3C2        1.2840   -1.4730    0.1150 hx        1 DCD      0.109450
     14 HS          2.0710    2.7870    3.8010 hs        1 DCD      0.278800
     15 H2C1        2.1540   -2.2950    2.1580 hx        1 DCD      0.109450
     16 H2C2        2.9960   -1.0990    3.2620 hx        1 DCD      0.109450
     17 H4C1        4.6300   -2.1170    1.7630 hc        1 DCD      0.079700
     18 H4C2        4.4490   -0.3820    1.2580 hc        1 DCD      0.079700
     19 H4C3        3.6750   -1.7020    0.2780 hc        1 DCD      0.079700
     20 H11         0.8410   -0.4320    2.3750 hn        1 DCD      0.453800
@<TRIPOS>BOND
     1    1    2 1   
     2    1    9 1   
     3    1   10 1   
     4    1   11 1   
     5    2    3 1   
     6    2   12 1   
     7    2   13 1   
     8    3    4 1   
     9    3    7 1   
    10    3   20 1   
    11    4    5 2   
    12    4    6 1   
    13    6   14 1   
    14    7    8 1   
    15    7   15 1   
    16    7   16 1   
    17    8   17 1   
    18    8   18 1   
    19    8   19 1   
@<TRIPOS>SUBSTRUCTURE
     1 DCD         1 TEMP              0 ****  ****    0 ROOT
