@<TRIPOS>MOLECULE
DCD
   19    18     1     0     0
SMALL
bcc


@<TRIPOS>ATOM
      1 C5         -0.8490   -0.7080   -1.9550 c3        1 DCD     -0.117600
      2 C3         -0.7670    0.6610   -1.2650 c3        1 DCD      0.069000
      3 N1         -0.2660    0.4880    0.1290 n         1 DCD     -0.374800
      4 C1         -1.0320   -0.2950    1.0860 c         1 DCD      0.445000
      5 S2         -2.2600    0.4390    1.9860 s         1 DCD     -0.508400
      6 S1         -0.5640   -1.9790    1.4330 sh        1 DCD     -0.298400
      7 C2          0.9380    1.1670    0.5510 c3        1 DCD      0.069000
      8 C4          1.9740    0.1490    0.9530 c3        1 DCD     -0.117600
      9 H5C1       -1.0360   -0.5800   -2.9200 hc        1 DCD      0.049200
     10 H5C2       -1.5760   -1.2430   -1.5460 hc        1 DCD      0.049200
     11 H5C3        0.0070   -1.1820   -1.8460 hc        1 DCD      0.049200
     12 H3C1       -0.1470    1.2440   -1.7670 h1        1 DCD      0.070950
     13 H3C2       -1.6590    1.0730   -1.2440 h1        1 DCD      0.070950
     14 HS         -1.3810   -2.4790    2.1610 hs        1 DCD      0.254800
     15 H2C1        1.2840    1.7110   -0.1900 h1        1 DCD      0.070950
     16 H2C2        0.7360    1.7470    1.3160 h1        1 DCD      0.070950
     17 H4C1        2.8400    0.5930    1.0770 hc        1 DCD      0.049200
     18 H4C2        1.7040   -0.2770    1.7870 hc        1 DCD      0.049200
     19 H4C3        2.0530   -0.5290    0.2530 hc        1 DCD      0.049200
@<TRIPOS>BOND
     1    1    2 1   
     2    1    9 1   
     3    1   10 1   
     4    1   11 1   
     5    2    3 1   
     6    2   12 1   
     7    2   13 1   
     8    3    4 1   
     9    3    7 1   
    10    4    5 2   
    11    4    6 1   
    12    6   14 1   
    13    7    8 1   
    14    7   15 1   
    15    7   16 1   
    16    8   17 1   
    17    8   18 1   
    18    8   19 1   
@<TRIPOS>SUBSTRUCTURE
     1 DCD         1 TEMP              0 ****  ****    0 ROOT
