@<TRIPOS>MOLECULE
DCE
    8     7     1     0     0
SMALL
bcc


@<TRIPOS>ATOM
      1 CL1         0.0200    0.0000   -2.1370 cl        1 DCE     -0.181400
      2 C1         -0.5760    0.0000   -0.4870 c3        1 DCE      0.022000
      3 C2          0.5760   -0.0000    0.4870 c3        1 DCE      0.022000
      4 CL2        -0.0200   -0.0000    2.1370 cl        1 DCE     -0.181400
      5 H11        -1.2090    0.9130   -0.3710 h1        1 DCE      0.079700
      6 H12        -1.2090   -0.9130   -0.3710 h1        1 DCE      0.079700
      7 H21         1.2090   -0.9130    0.3710 h1        1 DCE      0.079700
      8 H22         1.2090    0.9130    0.3710 h1        1 DCE      0.079700
@<TRIPOS>BOND
     1    1    2 1   
     2    2    3 1   
     3    2    5 1   
     4    2    6 1   
     5    3    4 1   
     6    3    7 1   
     7    3    8 1   
@<TRIPOS>SUBSTRUCTURE
     1 DCE         1 TEMP              0 ****  ****    0 ROOT
