@<TRIPOS>MOLECULE
DCF
   35    35     1     0     0
SMALL
bcc


@<TRIPOS>ATOM
      1 N1          0.0810    1.7210    0.1980 nc        1 DCF     -0.511300
      2 C2          1.3530    1.4510    0.3650 cd        1 DCF      0.423700
      3 N3          1.6460    0.6750    1.5390 na        1 DCF     -0.305600
      4 C9         -0.6400    1.0970    1.2800 cc        1 DCF     -0.060000
      5 C10         0.3630    0.4850    2.2110 cc        1 DCF      0.186100
      6 N4          0.2570    0.0920    3.4740 nu        1 DCF     -0.160400
      7 C5         -0.5160    0.6800    4.5260 c1        1 DCF      0.184400
      8 N6         -1.5120    0.5260    5.2270 n2        1 DCF     -0.756800
      9 C7         -2.7960    0.2480    2.3160 c3        1 DCF     -0.106900
     10 C8         -1.9990    1.0180    1.3330 c2        1 DCF      0.150900
     11 O8         -2.7070    1.6800    0.3550 oh        1 DCF     -0.466100
     12 C2S         4.7300   -2.5500    1.7450 c3        1 DCF     -0.091100
     13 C3S         5.4720   -1.3890    1.1030 c3        1 DCF      0.094800
     14 O3S         6.8610   -1.6110    1.3220 oh        1 DCF     -0.590800
     15 C4S         5.1050   -0.0620    1.7960 c3        1 DCF      0.133400
     16 O4S         3.8760    0.4610    1.2630 os        1 DCF     -0.379400
     17 C1S         2.7930    0.1710    2.0330 c1        1 DCF      0.084600
     18 H2          2.1700    1.7650   -0.3000 h5        1 DCF      0.078800
     19 H5          1.1270   -0.2590    3.8720 hn        1 DCF      0.292700
     20 HN6        -2.2420   -0.1440    5.1990 hn        1 DCF      0.424400
     21 H71        -3.1620    0.9280    3.1270 hc        1 DCF      0.066367
     22 H72        -2.2010   -0.5830    2.7640 hc        1 DCF      0.066367
     23 H8         -3.6890   -0.2060    1.8130 hc        1 DCF      0.066367
     24 HO8        -3.6520    1.5810    0.5490 ho        1 DCF      0.420000
     25 H2S1        4.8330   -3.4680    1.1200 hc        1 DCF      0.053033
     26 H2S2        3.6500   -2.2840    1.8470 hc        1 DCF      0.053033
     27 H3S         5.1550   -2.7590    2.7560 hc        1 DCF      0.053033
     28 HO3         7.3370   -1.0690    0.6770 ho        1 DCF      0.416000
     29 HO5         5.4090    0.5580   -0.7340 ho        1 DCF      0.407000
     30 H4S         5.5830   -2.2480   -0.9080 h1        1 DCF      0.063700
     31 H1S         5.0330   -0.2070    2.9030 h1        1 DCF      0.074200
     32 C5S         5.1740   -1.3310   -0.4050 c3        1 DCF      0.101400
     33 H5S1        4.0690   -1.2560   -0.5720 h1        1 DCF      0.063700
     34 O5S         5.8570   -0.2520   -1.0090 oh        1 DCF     -0.602800
     35 H5S2        5.8640    0.7300    1.5520 h1        1 DCF      0.074200
@<TRIPOS>BOND
     1    1    2 2   
     2    1    4 1   
     3    2    3 1   
     4    2   18 1   
     5    3    5 1   
     6    3   17 3   
     7    4    5 1   
     8    4   10 2   
     9    5    6 2   
    10    6    7 2   
    11    6   19 1   
    12    7    8 2   
    13    8   20 1   
    14    9   10 1   
    15    9   21 1   
    16    9   22 1   
    17    9   23 1   
    18   10   11 1   
    19   11   24 1   
    20   12   13 1   
    21   12   25 1   
    22   12   26 1   
    23   12   27 1   
    24   13   14 1   
    25   13   15 1   
    26   13   32 1   
    27   14   28 1   
    28   15   16 1   
    29   15   31 1   
    30   15   35 1   
    31   16   17 1   
    32   29   34 1   
    33   30   32 1   
    34   32   33 1   
    35   32   34 1   
@<TRIPOS>SUBSTRUCTURE
     1 DCF         1 TEMP              0 ****  ****    0 ROOT
