@<TRIPOS>MOLECULE
DCF
   35    35     1     0     0
SMALL
bcc


@<TRIPOS>ATOM
      1 N1         -0.2540    0.0700   -0.1200 nc        1 DCF     -0.654000
      2 C2          1.0820   -0.0820   -0.1360 cd        1 DCF      0.414400
      3 N3          1.6460    0.0730    1.1390 na        1 DCF     -0.248900
      4 C9         -0.5940    0.3630    1.2080 cc        1 DCF      0.279100
      5 C10         0.5750    0.3690    2.0210 cd        1 DCF     -0.124800
      6 N4          0.7100    0.5470    3.4010 nh        1 DCF     -0.270500
      7 C5         -0.0350   -0.0050    4.3990 c1        1 DCF      0.002000
      8 N6         -1.0720   -0.8270    4.2160 n3        1 DCF     -0.445400
      9 C7         -2.4030    1.7880    2.1340 c2        1 DCF     -0.234000
     10 C8         -1.9600    0.6220    1.6450 ce        1 DCF      0.023300
     11 O8         -2.8350   -0.4550    1.5890 oh        1 DCF     -0.533100
     12 C2S         3.5030   -1.2740    2.1810 c3        1 DCF     -0.153400
     13 C3S         4.3270   -2.0300    1.1310 c3        1 DCF      0.126100
     14 O3S         5.5990   -2.4010    1.6070 oh        1 DCF     -0.589800
     15 C4S         4.4060   -1.0790   -0.0750 c3        1 DCF      0.078400
     16 O4S         3.8600    0.1870    0.3170 os        1 DCF     -0.424600
     17 C1S         3.0500    0.0350    1.4920 c3        1 DCF      0.251800
     18 H2          1.6980   -0.2790   -1.0210 h5        1 DCF      0.069100
     19 H5          1.4500    1.1370    3.7100 hn        1 DCF      0.298700
     20 HN6        -1.4750   -1.1010    3.3460 hn        1 DCF      0.268200
     21 H71        -1.7350    2.6460    2.2610 ha        1 DCF      0.131000
     22 H72        -1.5400   -1.1250    5.0380 hn        1 DCF      0.268200
     23 H8         -3.4470    1.9230    2.4420 ha        1 DCF      0.131000
     24 HO8        -2.6430   -0.9430    0.7750 ho        1 DCF      0.430000
     25 H2S1        4.1370   -1.0230    3.0680 hc        1 DCF      0.083200
     26 H2S2        2.6430   -1.8910    2.5360 hc        1 DCF      0.083200
     27 H3S         3.8430   -3.0050    0.8500 h1        1 DCF      0.093700
     28 HO3         6.1050   -1.5940    1.7800 ho        1 DCF      0.426000
     29 HO5         7.6270    2.1710    0.5810 h4        1 DCF     -0.009300
     30 H4S         5.4650   -0.8690   -0.3750 h1        1 DCF      0.067200
     31 H1S         3.2760    0.9430    2.1270 h2        1 DCF      0.084700
     32 C5S         6.8810    1.3520    0.6540 c         1 DCF      0.567700
     33 H5S1        3.8150   -1.4610   -0.9440 h1        1 DCF      0.067200
     34 O5S         7.1230    0.3020    1.2480 o         1 DCF     -0.547100
     35 H5S2        5.9000    1.5320    0.1610 h4        1 DCF     -0.009300
@<TRIPOS>BOND
     1    1    2 2   
     2    1    4 1   
     3    2    3 1   
     4    2   18 1   
     5    3    5 1   
     6    3   17 1   
     7    4    5 2   
     8    4   10 1   
     9    5    6 1   
    10    6    7 2   
    11    6   19 1   
    12    7    8 2   
    13    8   20 1   
    14    8   22 1   
    15    9   10 2   
    16    9   21 1   
    17    9   23 1   
    18   10   11 1   
    19   11   24 1   
    20   12   13 1   
    21   12   17 1   
    22   12   25 1   
    23   12   26 1   
    24   13   14 1   
    25   13   15 1   
    26   13   27 1   
    27   14   28 1   
    28   15   16 1   
    29   15   30 1   
    30   15   33 1   
    31   16   17 1   
    32   17   31 1   
    33   29   32 1   
    34   32   34 2   
    35   32   35 1   
@<TRIPOS>SUBSTRUCTURE
     1 DCF         1 TEMP              0 ****  ****    0 ROOT
