@<TRIPOS>MOLECULE
DCF
   35    37     1     0     0
SMALL
bcc


@<TRIPOS>ATOM
      1 N1          1.9740   -0.0930   -1.0870 nc        1 DCF     -0.667000
      2 C2          1.5100    0.2170    0.1400 cd        1 DCF      0.416400
      3 N3          0.1200    0.3850    0.1530 na        1 DCF     -0.223900
      4 C9          0.8570   -0.1300   -1.9220 cc        1 DCF      0.221600
      5 C10        -0.3250    0.1710   -1.1760 cd        1 DCF      0.045800
      6 N4         -1.6700    0.2040   -1.5230 nf        1 DCF     -0.659100
      7 C5         -2.0890    0.2340   -2.7580 c2        1 DCF      0.659100
      8 N6         -1.4500    0.3680   -3.9730 nh        1 DCF     -0.860200
      9 C7         -0.0430    0.5800   -4.1240 c3        1 DCF      0.191800
     10 C8          0.8660   -0.4330   -3.3740 c3        1 DCF      0.117800
     11 O8          2.1290   -0.3180   -4.0070 oh        1 DCF     -0.600800
     12 C2S        -1.7200   -0.3540    1.7060 c3        1 DCF     -0.147400
     13 C3S        -1.1760   -0.8800    3.0380 c3        1 DCF      0.120100
     14 O3S        -2.1430   -0.8200    4.0720 oh        1 DCF     -0.588800
     15 C4S        -0.0370    0.0790    3.4280 c3        1 DCF      0.091100
     16 O4S         0.0650    1.0870    2.4100 os        1 DCF     -0.424600
     17 C1S        -0.7330    0.7510    1.2650 c3        1 DCF      0.269800
     18 H2          2.1180    0.3480    1.0430 h5        1 DCF      0.068100
     19 H5         -3.2020    0.1800   -2.8530 h5        1 DCF      0.035800
     20 HN6        -1.9380    0.0330   -4.7710 hn        1 DCF      0.429800
     21 H71         0.2150    1.6130   -3.7530 h1        1 DCF      0.072200
     22 H72         0.2170    0.5290   -5.2200 h1        1 DCF      0.072200
     23 H8          0.4940   -1.4890   -3.5300 h1        1 DCF      0.045700
     24 HO8         2.8080   -0.6130   -3.3880 ho        1 DCF      0.432000
     25 H2S1       -2.7300    0.1050    1.8510 hc        1 DCF      0.083700
     26 H2S2       -1.8130   -1.1700    0.9500 hc        1 DCF      0.083700
     27 H3S        -0.8010   -1.9350    2.9350 h1        1 DCF      0.054700
     28 HO3        -2.8660   -1.4040    3.8130 ho        1 DCF      0.408000
     29 HO5         2.2890    1.0040    3.2840 ho        1 DCF      0.411000
     30 H4S        -0.2770    0.6370    4.3760 h1        1 DCF      0.108700
     31 H1S        -1.2740    1.7050    0.9850 h2        1 DCF      0.101700
     32 C5S         1.3050   -0.6390    3.5550 c3        1 DCF      0.113400
     33 H5S1        1.5570   -1.1670    2.5960 h1        1 DCF      0.055200
     34 O5S         2.3400    0.2570    3.8970 oh        1 DCF     -0.591800
     35 H5S2        1.2670   -1.3790    4.3990 h1        1 DCF      0.055200
@<TRIPOS>BOND
     1    1    2 2   
     2    1    4 1   
     3    2    3 1   
     4    2   18 1   
     5    3    5 1   
     6    3   17 1   
     7    4    5 2   
     8    4   10 1   
     9    5    6 1   
    10    6    7 2   
    11    7    8 1   
    12    7   19 1   
    13    8    9 1   
    14    8   20 1   
    15    9   10 1   
    16    9   21 1   
    17    9   22 1   
    18   10   11 1   
    19   10   23 1   
    20   11   24 1   
    21   12   13 1   
    22   12   17 1   
    23   12   25 1   
    24   12   26 1   
    25   13   14 1   
    26   13   15 1   
    27   13   27 1   
    28   14   28 1   
    29   15   16 1   
    30   15   30 1   
    31   15   32 1   
    32   16   17 1   
    33   17   31 1   
    34   29   34 1   
    35   32   33 1   
    36   32   34 1   
    37   32   35 1   
@<TRIPOS>SUBSTRUCTURE
     1 DCF         1 TEMP              0 ****  ****    0 ROOT
