@<TRIPOS>MOLECULE
DCF
   35    34     1     0     0
SMALL
bcc


@<TRIPOS>ATOM
      1 N1          0.5920    0.8940    0.0800 n2        1 DCF     -0.134000
      2 C2          1.6230    0.0540   -0.0940 c2        1 DCF     -0.089000
      3 N3          1.9900   -0.5860    1.1060 na        1 DCF     -0.216000
      4 C9          0.2740    0.8450    1.4470 c2        1 DCF     -0.178000
      5 C10         1.1300   -0.0740    2.1150 c2        1 DCF      0.022000
      6 N4          1.1430   -0.4740    3.4540 nh        1 DCF     -0.265000
      7 C5          0.0840   -0.8100    4.2410 c1        1 DCF     -0.010000
      8 N6         -1.1980   -0.7660    3.8690 n3        1 DCF     -0.347000
      9 C7         -0.5940    2.5930    2.9820 c2        1 DCF     -0.247000
     10 C8         -0.7810    1.6530    2.0450 c2        1 DCF      0.099000
     11 O8         -2.0780    1.3780    1.6320 oh        1 DCF     -0.288000
     12 C2S         3.1830   -2.5810    0.2090 c3        1 DCF     -0.229000
     13 C3S         4.1910   -0.2430    3.5380 c1        1 DCF     -0.060000
     14 O3S         4.8550    0.3580    4.5010 oh        1 DCF     -0.206000
     15 C4S         4.6520    0.1630    2.1760 c3        1 DCF     -0.099000
     16 O4S         4.3740   -0.8210    1.1920 os        1 DCF     -0.300000
     17 C1S         3.1000   -1.4910    1.2870 c3        1 DCF      0.159000
     18 H2          2.1580   -0.1430   -1.0440 h5        1 DCF      0.243000
     19 H5          2.0430   -0.6580    3.8580 hn        1 DCF      0.269000
     20 HN6        -1.5600   -0.4540    2.9940 hn        1 DCF      0.215500
     21 H71         0.4000    2.8040    3.3890 ha        1 DCF      0.128000
     22 H72        -1.8620   -0.9900    4.5700 hn        1 DCF      0.215500
     23 H8         -1.4290    3.1730    3.3900 ha        1 DCF      0.128000
     24 HO8        -2.0420    1.1350    0.6960 ho        1 DCF      0.230000
     25 H2S1        2.2570   -3.2020    0.2340 hc        1 DCF      0.102667
     26 H2S2        3.3010   -2.1300   -0.8080 hc        1 DCF      0.102667
     27 H3S         4.0680   -3.2240    0.4270 hc        1 DCF      0.102667
     28 HO3         4.4670    0.0730    5.3510 ho        1 DCF      0.266000
     29 HO5         4.9290   -0.4200   -0.8040 ho        1 DCF      0.266000
     30 H4S         4.1260    1.1240    1.9060 h1        1 DCF      0.121500
     31 H1S         3.0190   -1.9650    2.3120 h2        1 DCF      0.133000
     32 C5S         3.9040   -0.3620   -2.3720 c1        1 DCF     -0.086000
     33 H5S1        5.7640    0.3140    2.0900 h1        1 DCF      0.121500
     34 O5S         5.0570   -0.2580   -1.7640 oh        1 DCF     -0.218000
     35 H5S2        4.0540   -0.1760   -3.4640 ha        1 DCF      0.045000
@<TRIPOS>BOND
     1    1    2 1   
     2    1    4 1   
     3    2    3 1   
     4    2   18 1   
     5    3    5 1   
     6    3   17 1   
     7    4    5 1   
     8    4   10 1   
     9    5    6 1   
    10    6    7 1   
    11    6   19 1   
    12    7    8 1   
    13    8   20 1   
    14    8   22 1   
    15    9   10 1   
    16    9   21 1   
    17    9   23 1   
    18   10   11 1   
    19   11   24 1   
    20   12   17 1   
    21   12   25 1   
    22   12   26 1   
    23   12   27 1   
    24   13   14 1   
    25   13   15 1   
    26   14   28 1   
    27   15   16 1   
    28   15   30 1   
    29   15   33 1   
    30   16   17 1   
    31   17   31 1   
    32   29   34 1   
    33   32   34 1   
    34   32   35 1   
@<TRIPOS>SUBSTRUCTURE
     1 DCF         1 TEMP              0 ****  ****    0 ROOT
