@<TRIPOS>MOLECULE
DCG
   35    33     1     0     0
SMALL
bcc


@<TRIPOS>ATOM
      1 P          -1.7840    4.7750    2.8100 p3        1 DCG      2.524000
      2 OP1        -0.3240    5.1610    3.1760 o         1 DCG     -1.236500
      3 OP2        -2.5130    4.2900    4.0680 os        1 DCG     -1.276000
      4 OP3        -2.5030    5.9920    2.2420 o         1 DCG     -1.236500
      5 O5'        -1.7680    3.5930    1.7050 os        1 DCG     -0.715000
      6 C5'        -1.0170    2.3960    1.9870 c3        1 DCG      0.079000
      7 C4'        -1.4430    1.2830    1.0130 c3        1 DCG     -0.058000
      8 O4'        -0.5710    1.1470    0.1020 os        1 DCG     -0.290000
      9 C3'        -1.5210   -0.1560    1.7900 c3        1 DCG      0.047000
     10 O3'        -2.8400   -0.3000    2.4750 oh        1 DCG     -0.401000
     11 C2'        -1.4020   -1.0190    0.9200 c3        1 DCG     -0.208000
     12 C1'        -0.5780   -0.3330   -0.2240 c3        1 DCG      0.160000
     13 N9          0.6620   -0.8060   -0.2440 n3        1 DCG     -0.137000
     14 C8          1.6290   -0.7020    0.7130 c1        1 DCG     -0.036000
     15 N7          2.8110   -1.1740    0.1800 n2        1 DCG     -0.105000
     16 C5          2.5670   -1.5680   -1.1100 c1        1 DCG     -0.221000
     17 C6          3.4410   -2.2460   -2.1480 c1        1 DCG      0.392000
     18 O6          4.6650   -2.5020   -1.8850 o         1 DCG     -0.367000
     19 N1          2.8950   -2.5990   -3.4100 n3        1 DCG     -0.338000
     20 C2          1.5280   -2.3140   -3.6970 c2        1 DCG      0.149000
     21 N2          0.9620   -2.6890   -4.9790 n3        1 DCG     -0.305000
     22 N3          0.6910   -1.6600   -2.6920 n1        1 DCG     -0.196000
     23 C4          1.2380   -1.3420   -1.3760 c1        1 DCG      0.001000
     24 H5'        -0.0510    2.5810    1.8730 h1        1 DCG      0.035000
     25 H5''       -1.1910    2.1060    2.9190 h1        1 DCG      0.035000
     26 H4'        -2.3100    1.4960    0.6170 h1        1 DCG      0.122000
     27 H3'        -0.7980   -0.2270    2.4330 h1        1 DCG      0.145000
     28 HO3'       -2.7340   -0.7630    3.2250 ho        1 DCG      0.301000
     29 H2'        -0.9180   -1.7910    1.2690 hc        1 DCG      0.093500
     30 H2''       -2.3300   -1.3060    0.5700 hc        1 DCG      0.093500
     31 H1'        -1.0140   -0.4870   -1.0960 h2        1 DCG      0.106000
     32 H8          1.5040   -0.3720    1.6170 DU        1 DCG      0.255000
     33 HN1         3.4290   -2.9040   -4.0550 hn        1 DCG      0.236000
     34 HN21        1.4540   -3.1780   -5.5690 hn        1 DCG      0.177500
     35 HN22        0.1340   -2.3820   -5.2200 hn        1 DCG      0.177500
@<TRIPOS>BOND
     1    1    2 1   
     2    1    4 1   
     3    1    5 1   
     4    5    6 1   
     5    6    7 1   
     6    6   24 1   
     7    6   25 1   
     8    7    8 1   
     9    7    9 1   
    10    7   26 1   
    11    8   12 1   
    12    9   10 1   
    13    9   11 1   
    14    9   27 1   
    15   10   28 1   
    16   11   12 1   
    17   11   29 1   
    18   11   30 1   
    19   12   13 1   
    20   12   31 1   
    21   13   14 1   
    22   13   23 1   
    23   14   15 1   
    24   15   16 1   
    25   16   23 1   
    26   17   18 1   
    27   17   19 1   
    28   19   20 1   
    29   19   33 1   
    30   20   21 1   
    31   20   22 1   
    32   21   34 1   
    33   21   35 1   
@<TRIPOS>SUBSTRUCTURE
     1 DCG         1 TEMP              0 ****  ****    0 ROOT
