@<TRIPOS>MOLECULE
DCG
   35    37     1     0     0
SMALL
bcc


@<TRIPOS>ATOM
      1 P          -0.0170    1.0880    4.6200 p5        1 DCG      1.331900
      2 OP1        -1.1620    1.9350    4.1460 o         1 DCG     -0.930167
      3 OP2         0.0130    0.6630    6.0540 o         1 DCG     -0.930167
      4 OP3         1.3130    1.4330    3.9770 o         1 DCG     -0.930167
      5 O5'        -0.3150   -0.4030    3.7550 os        1 DCG     -0.553200
      6 C5'        -0.4120   -0.2420    2.4020 c3        1 DCG      0.229400
      7 C4'         0.9060   -0.6660    1.7100 c3        1 DCG      0.053100
      8 O4'         0.6110   -1.3630    0.4680 os        1 DCG     -0.433600
      9 C3'         1.8430    0.5120    1.3780 c3        1 DCG      0.158100
     10 O3'         3.0500    0.4230    2.1010 oh        1 DCG     -0.673800
     11 C2'         2.1620    0.3730   -0.1180 c3        1 DCG     -0.129400
     12 C1'         1.1810   -0.6960   -0.6420 c3        1 DCG      0.251800
     13 N9          0.1090   -0.1570   -1.4870 na        1 DCG     -0.181900
     14 C8         -1.1250    0.3870   -1.0760 cc        1 DCG      0.452400
     15 N7         -1.9240    0.7390   -2.1100 nd        1 DCG     -0.631000
     16 C5         -1.1970    0.4110   -3.2520 cd        1 DCG      0.196800
     17 C6         -1.5210    0.5600   -4.6540 c         1 DCG      0.645000
     18 O6         -2.5520    1.0230   -5.1740 o         1 DCG     -0.642500
     19 N1         -0.5120    0.0950   -5.5360 n         1 DCG     -0.498400
     20 C2          0.7130   -0.4320   -5.0760 cd        1 DCG      0.595800
     21 N2          1.6690   -0.7770   -6.0980 nh        1 DCG     -0.866800
     22 N3          1.0380   -0.5980   -3.7850 nc        1 DCG     -0.623100
     23 C4          0.0810   -0.1570   -2.8810 cc        1 DCG      0.050800
     24 H5'        -0.6560    0.8270    2.1380 h1        1 DCG     -0.004300
     25 H5''       -1.2260   -0.9140    1.9940 h1        1 DCG     -0.004300
     26 H4'         1.4360   -1.4240    2.3480 h1        1 DCG      0.082700
     27 H3'         1.3430    1.4950    1.6050 h1        1 DCG      0.105700
     28 HO3'        2.8250    0.7270    3.0120 ho        1 DCG      0.502000
     29 H2'         3.2070    0.0050   -0.2610 hc        1 DCG      0.054200
     30 H2''        2.0590    1.3520   -0.6410 hc        1 DCG      0.054200
     31 H1'         1.7020   -1.4840   -1.2620 h2        1 DCG      0.066700
     32 H8         -1.3620    0.4850    0.0010 h5        1 DCG      0.118100
     33 HN1        -0.6500    0.2370   -6.5110 hn        1 DCG      0.322500
     34 HN21        2.5700   -0.9670   -5.7010 hn        1 DCG      0.382300
     35 HN22        1.3480   -1.5680   -6.6230 hn        1 DCG      0.382300
@<TRIPOS>BOND
     1    1    2 1   
     2    1    3 1   
     3    1    4 1   
     4    1    5 1   
     5    5    6 1   
     6    6    7 1   
     7    6   24 1   
     8    6   25 1   
     9    7    8 1   
    10    7    9 1   
    11    7   26 1   
    12    8   12 1   
    13    9   10 1   
    14    9   11 1   
    15    9   27 1   
    16   10   28 1   
    17   11   12 1   
    18   11   29 1   
    19   11   30 1   
    20   12   13 1   
    21   12   31 1   
    22   13   14 1   
    23   13   23 1   
    24   14   15 2   
    25   14   32 1   
    26   15   16 1   
    27   16   17 1   
    28   16   23 2   
    29   17   18 2   
    30   17   19 1   
    31   19   20 1   
    32   19   33 1   
    33   20   21 1   
    34   20   22 2   
    35   21   34 1   
    36   21   35 1   
    37   22   23 1   
@<TRIPOS>SUBSTRUCTURE
     1 DCG         1 TEMP              0 ****  ****    0 ROOT
