@<TRIPOS>MOLECULE
DCH
   65    68     1     0     0
SMALL
bcc


@<TRIPOS>ATOM
      1 CZ         -5.1090   -1.3370    2.0170 c3        1 DCH      0.498000
      2 NZ1        -4.4870   -0.8470    3.1900 n3        1 DCH     -0.984800
      3 NZ2        -5.7570   -2.7410    2.3170 n4        1 DCH     -0.891600
      4 C11        -4.2140   -1.5360    0.8190 ca        1 DCH     -0.198300
      5 C12        -2.9930   -2.1690    0.9240 ca        1 DCH     -0.079000
      6 C13        -2.1550   -2.3040   -0.2140 ca        1 DCH     -0.044000
      7 C14        -0.8850   -2.9380   -0.1290 ca        1 DCH     -0.106000
      8 C15        -0.0770   -3.0440   -1.2400 ca        1 DCH     -0.067300
      9 C16        -0.5220   -2.5210   -2.4860 ca        1 DCH     -0.097000
     10 C17        -1.7460   -1.9090   -2.5950 ca        1 DCH     -0.112000
     11 C18        -2.5910   -1.7820   -1.4600 ca        1 DCH     -0.013000
     12 C19        -3.8570   -1.1390   -1.5400 ca        1 DCH     -0.080000
     13 C1A        -4.6530   -1.0180   -0.4270 ca        1 DCH     -0.126000
     14 CA1         1.2740   -3.6640   -1.1530 c3        1 DCH     -0.039100
     15 CA2         1.3600   -5.0000   -1.8910 c3        1 DCH     -0.059400
     16 CA3         0.6580   -6.0780   -1.0940 c         1 DCH      0.635100
     17 OA3         0.6990   -6.2710    0.1240 o         1 DCH     -0.551000
     18 OA4        -0.0990   -6.8980   -1.8700 os        1 DCH     -0.429900
     19 CA5        -0.7690   -7.9880   -1.2040 c3        1 DCH      0.140400
     20 CA6        -1.4790   -8.7660   -2.2840 c3        1 DCH     -0.104100
     21 C21         2.7890   -5.3910   -2.1140 ca        1 DCH     -0.098300
     22 C22         3.3190   -5.3750   -3.4110 ca        1 DCH     -0.082500
     23 C23         4.6450   -5.7310   -3.6400 ca        1 DCH     -0.155500
     24 C24         5.4390   -6.1200   -2.5510 ca        1 DCH      0.092100
     25 C25         4.9280   -6.1440   -1.2500 ca        1 DCH     -0.155500
     26 C26         3.6010   -5.7750   -1.0400 ca        1 DCH     -0.082500
     27 OB          6.7250   -6.5480   -2.8780 os        1 DCH     -0.344900
     28 C31         7.7240   -6.3490   -1.8800 c3        1 DCH      0.134100
     29 C32         9.0360   -6.0960   -2.6590 c3        1 DCH      0.095800
     30 N33         9.7360   -7.4190   -2.7700 n4        1 DCH     -0.766000
     31 C34         9.2330   -8.2840   -1.6440 c3        1 DCH      0.114800
     32 C35         7.9560   -7.6470   -1.0920 c3        1 DCH     -0.132400
     33 HZ         -6.0140   -0.7050    1.7390 hx        1 DCH      0.106700
     34 HZ11       10.7500   -7.3020   -2.7170 hn        1 DCH      0.461300
     35 HZ12       -3.4920   -0.8300    3.1910 hn        1 DCH      0.437300
     36 HZ21       -5.0270   -3.4260    2.5200 hn        1 DCH      0.447800
     37 HZ22       -6.3880   -2.6850    3.1170 hn        1 DCH      0.447800
     38 H12        -2.6350   -2.5750    1.8840 ha        1 DCH      0.137000
     39 H14        -0.5560   -3.3430    0.8430 ha        1 DCH      0.150000
     40 H16         0.1370   -2.6110   -3.3650 ha        1 DCH      0.148000
     41 H17        -2.0890   -1.5020   -3.5600 ha        1 DCH      0.156000
     42 H19        -4.1860   -0.7340   -2.5110 ha        1 DCH      0.163000
     43 H1A        -5.6250   -0.5050   -0.4950 ha        1 DCH      0.146000
     44 HA11        1.5620   -3.8250   -0.0780 hc        1 DCH      0.075700
     45 HA12        2.0240   -2.9580   -1.6050 hc        1 DCH      0.075700
     46 HA2         0.8370   -4.9070   -2.8870 hc        1 DCH      0.096700
     47 HA51       -0.0030   -8.6070   -0.6700 h1        1 DCH      0.052200
     48 HA52       -1.4830   -7.5580   -0.4540 h1        1 DCH      0.052200
     49 HA61       -2.0150   -9.6270   -1.8160 hc        1 DCH      0.055033
     50 HA62       -2.2170   -8.1200   -2.8160 hc        1 DCH      0.055033
     51 HA63       -0.7480   -9.1560   -3.0330 hc        1 DCH      0.055033
     52 H22         2.6850   -5.0830   -4.2640 ha        1 DCH      0.159500
     53 H23         5.0640   -5.7270   -4.6570 ha        1 DCH      0.148500
     54 H25         5.5520   -6.4630   -0.4030 ha        1 DCH      0.148500
     55 H26         3.1750   -5.8030   -0.0210 ha        1 DCH      0.159500
     56 H31         7.4800   -5.4790   -1.2160 h1        1 DCH      0.112700
     57 H321        8.8250   -5.6920   -3.6880 hx        1 DCH      0.124700
     58 H322        9.6920   -5.3800   -2.0930 hx        1 DCH      0.124700
     59 H33         9.5010   -7.8540   -3.6690 hn        1 DCH      0.461300
     60 H341       10.0320   -8.3430   -0.8540 hx        1 DCH      0.114200
     61 H342        9.0390   -9.3190   -2.0420 hx        1 DCH      0.114200
     62 H351        8.0720   -7.4280   -0.0010 hc        1 DCH      0.107700
     63 H352        7.0840   -8.3390   -1.2200 hc        1 DCH      0.107700
     64 HZ13       -4.9240   -0.0650    3.6220 hn        1 DCH      0.437300
     65 HZ23       -6.2710   -3.0370    1.4880 hn        1 DCH      0.447800
@<TRIPOS>BOND
     1    1    2 1   
     2    1    3 1   
     3    1    4 1   
     4    1   33 1   
     5    2   35 1   
     6    2   64 1   
     7    3   36 1   
     8    3   37 1   
     9    3   65 1   
    10    4    5 ar  
    11    4   13 ar  
    12    5    6 ar  
    13    5   38 1   
    14    6    7 ar  
    15    6   11 ar  
    16    7    8 ar  
    17    7   39 1   
    18    8    9 ar  
    19    8   14 1   
    20    9   10 ar  
    21    9   40 1   
    22   10   11 ar  
    23   10   41 1   
    24   11   12 ar  
    25   12   13 ar  
    26   12   42 1   
    27   13   43 1   
    28   14   15 1   
    29   14   44 1   
    30   14   45 1   
    31   15   16 1   
    32   15   21 1   
    33   15   46 1   
    34   16   17 2   
    35   16   18 1   
    36   18   19 1   
    37   19   20 1   
    38   19   47 1   
    39   19   48 1   
    40   20   49 1   
    41   20   50 1   
    42   20   51 1   
    43   21   22 ar  
    44   21   26 ar  
    45   22   23 ar  
    46   22   52 1   
    47   23   24 ar  
    48   23   53 1   
    49   24   25 ar  
    50   24   27 1   
    51   25   26 ar  
    52   25   54 1   
    53   26   55 1   
    54   27   28 1   
    55   28   29 1   
    56   28   32 1   
    57   28   56 1   
    58   29   30 1   
    59   29   57 1   
    60   29   58 1   
    61   30   31 1   
    62   30   34 1   
    63   30   59 1   
    64   31   32 1   
    65   31   60 1   
    66   31   61 1   
    67   32   62 1   
    68   32   63 1   
@<TRIPOS>SUBSTRUCTURE
     1 DCH         1 TEMP              0 ****  ****    0 ROOT
