@<TRIPOS>MOLECULE
DCH
   65    68     1     0     0
SMALL
bcc


@<TRIPOS>ATOM
      1 CZ          1.3020   -0.5980   -0.0630 c3        1 DCH      0.425000
      2 NZ1         2.5570   -1.1630   -0.6750 n4        1 DCH     -0.908100
      3 NZ2         1.3850   -0.4350    1.4540 n4        1 DCH     -0.908100
      4 C11         0.1190   -1.4570   -0.3890 ca        1 DCH     -0.266300
      5 C12         0.1250   -2.8030   -0.0560 ca        1 DCH     -0.070000
      6 C13        -0.8980   -3.6540   -0.5230 ca        1 DCH     -0.043000
      7 C14        -0.8220   -5.0560   -0.3210 ca        1 DCH     -0.116000
      8 C15        -1.6680   -5.9110   -0.9980 ca        1 DCH     -0.034300
      9 C16        -2.7450   -5.3680   -1.7510 ca        1 DCH     -0.060000
     10 C17        -2.9010   -4.0060   -1.8810 ca        1 DCH     -0.120000
     11 C18        -1.9550   -3.1130   -1.3120 ca        1 DCH      0.007000
     12 C19        -1.9860   -1.7110   -1.5480 ca        1 DCH     -0.059000
     13 C1A        -0.9660   -0.8980   -1.1100 ca        1 DCH     -0.124000
     14 CA1        -1.4170   -7.3780   -0.9560 c3        1 DCH     -0.049100
     15 CA2        -0.2810   -7.8060   -1.9010 c3        1 DCH     -0.067400
     16 CA3         0.1320   -9.2120   -1.5170 c         1 DCH      0.633100
     17 OA3         0.5720   -9.5890   -0.4280 o         1 DCH     -0.541000
     18 OA4        -0.0390  -10.1020   -2.5250 os        1 DCH     -0.424900
     19 CA5         0.3170  -11.4780   -2.2450 c3        1 DCH      0.139400
     20 CA6         0.0150  -12.2470   -3.5060 c3        1 DCH     -0.105100
     21 C21         0.8910   -6.8770   -1.8480 ca        1 DCH     -0.083300
     22 C22         1.1370   -6.0130   -2.9250 ca        1 DCH     -0.085500
     23 C23         2.1030   -5.0140   -2.8270 ca        1 DCH     -0.166000
     24 C24         2.8250   -4.8860   -1.6320 ca        1 DCH      0.067100
     25 C25         2.6800   -5.8150   -0.5960 ca        1 DCH     -0.166000
     26 C26         1.7170   -6.8160   -0.7160 ca        1 DCH     -0.085500
     27 OB          3.6000   -3.7340   -1.5110 os        1 DCH     -0.408900
     28 C31         4.8360   -3.8660   -0.7970 c3        1 DCH      0.136100
     29 C32         4.6280   -3.3170    0.6390 c3        1 DCH      0.090800
     30 N33         4.8890   -1.8720    0.5760 n3        1 DCH     -0.865200
     31 C34         5.8460   -1.6490   -0.5260 c3        1 DCH      0.123800
     32 C35         5.8290   -2.8850   -1.4390 c3        1 DCH     -0.108400
     33 HZ          1.1640    0.4600   -0.4720 hx        1 DCH      0.153700
     34 HZ11        2.8250   -0.5740   -1.4680 hn        1 DCH      0.487467
     35 HZ12        3.4370   -1.2700   -0.0190 hn        1 DCH      0.487467
     36 HZ21        0.4990    0.0060    1.7510 hn        1 DCH      0.487467
     37 HZ22        2.1690    0.1570    1.7440 hn        1 DCH      0.487467
     38 H12         0.9440   -3.2520    0.5320 ha        1 DCH      0.125000
     39 H14        -0.0350   -5.4590    0.3380 ha        1 DCH      0.153000
     40 H16        -3.4610   -6.0570   -2.2330 ha        1 DCH      0.173000
     41 H17        -3.7500   -3.5910   -2.4500 ha        1 DCH      0.170000
     42 H19        -2.8340   -1.2860   -2.1130 ha        1 DCH      0.179000
     43 H1A        -0.9850    0.1810   -1.3320 ha        1 DCH      0.151000
     44 HA11       -2.3450   -7.9420   -1.2440 hc        1 DCH      0.088700
     45 HA12       -1.1490   -7.6830    0.0940 hc        1 DCH      0.088700
     46 HA2        -0.6830   -7.8350   -2.9560 hc        1 DCH      0.102700
     47 HA51        1.4040  -11.5110   -1.9760 h1        1 DCH      0.060700
     48 HA52       -0.2940  -11.8310   -1.3750 h1        1 DCH      0.060700
     49 HA61       -1.0680  -12.1690   -3.7680 hc        1 DCH      0.058367
     50 HA62        0.6140  -11.8540   -4.3630 hc        1 DCH      0.058367
     51 HA63        0.2740  -13.3210   -3.3420 hc        1 DCH      0.058367
     52 H22         0.5590   -6.1150   -3.8580 ha        1 DCH      0.173000
     53 H23         2.2950   -4.3320   -3.6680 ha        1 DCH      0.148000
     54 H25         3.3200   -5.7710    0.2970 ha        1 DCH      0.148000
     55 H26         1.5950   -7.5680    0.0860 ha        1 DCH      0.173000
     56 H31         5.1980   -4.9240   -0.7980 h1        1 DCH      0.118700
     57 H321        3.5740   -3.4840    0.9860 h1        1 DCH      0.069700
     58 H322        5.3240   -3.8490    1.3450 h1        1 DCH      0.069700
     59 H33         5.2540   -1.5270    1.4450 hn        1 DCH      0.398800
     60 H341        5.5260   -0.7280   -1.0840 h1        1 DCH      0.071200
     61 H342        6.8870   -1.4680   -0.1400 h1        1 DCH      0.071200
     62 H351        6.8450   -3.3500   -1.4930 hc        1 DCH      0.098700
     63 H352        5.5150   -2.6200   -2.4790 hc        1 DCH      0.098700
     64 HZ13        2.3680   -2.1160   -1.0420 hn        1 DCH      0.487467
     65 HZ23        1.4500   -1.3500    1.9170 hn        1 DCH      0.487467
@<TRIPOS>BOND
     1    1    2 1   
     2    1    3 1   
     3    1    4 1   
     4    1   33 1   
     5    2   34 1   
     6    2   35 1   
     7    2   64 1   
     8    3   36 1   
     9    3   37 1   
    10    3   65 1   
    11    4    5 ar  
    12    4   13 ar  
    13    5    6 ar  
    14    5   38 1   
    15    6    7 ar  
    16    6   11 ar  
    17    7    8 ar  
    18    7   39 1   
    19    8    9 ar  
    20    8   14 1   
    21    9   10 ar  
    22    9   40 1   
    23   10   11 ar  
    24   10   41 1   
    25   11   12 ar  
    26   12   13 ar  
    27   12   42 1   
    28   13   43 1   
    29   14   15 1   
    30   14   44 1   
    31   14   45 1   
    32   15   16 1   
    33   15   21 1   
    34   15   46 1   
    35   16   17 2   
    36   16   18 1   
    37   18   19 1   
    38   19   20 1   
    39   19   47 1   
    40   19   48 1   
    41   20   49 1   
    42   20   50 1   
    43   20   51 1   
    44   21   22 ar  
    45   21   26 ar  
    46   22   23 ar  
    47   22   52 1   
    48   23   24 ar  
    49   23   53 1   
    50   24   25 ar  
    51   24   27 1   
    52   25   26 ar  
    53   25   54 1   
    54   26   55 1   
    55   27   28 1   
    56   28   29 1   
    57   28   32 1   
    58   28   56 1   
    59   29   30 1   
    60   29   57 1   
    61   29   58 1   
    62   30   31 1   
    63   30   59 1   
    64   31   32 1   
    65   31   60 1   
    66   31   61 1   
    67   32   62 1   
    68   32   63 1   
@<TRIPOS>SUBSTRUCTURE
     1 DCH         1 TEMP              0 ****  ****    0 ROOT
