@<TRIPOS>MOLECULE
DCH
   63    66     1     0     0
SMALL
bcc


@<TRIPOS>ATOM
      1 CZ          0.1090    7.8330    5.0300 c3        1 DCH      0.445000
      2 NZ1        -0.5570    7.1360    3.9200 n3        1 DCH     -0.912800
      3 NZ2         0.2920    9.2670    4.7780 n3        1 DCH     -0.912800
      4 C11         1.4180    7.1230    5.3700 ca        1 DCH     -0.140300
      5 C12         2.3650    6.8780    4.4030 ca        1 DCH     -0.085000
      6 C13         3.5900    6.2390    4.7370 ca        1 DCH     -0.042000
      7 C14         4.5830    5.9780    3.7540 ca        1 DCH     -0.101000
      8 C15         5.7650    5.3580    4.0930 ca        1 DCH     -0.082300
      9 C16         5.9970    4.9770    5.4440 ca        1 DCH     -0.123000
     10 C17         5.0550    5.2190    6.4110 ca        1 DCH     -0.119000
     11 C18         3.8270    5.8560    6.0820 ca        1 DCH     -0.034000
     12 C19         2.8320    6.1200    7.0610 ca        1 DCH     -0.121000
     13 C1A         1.6560    6.7380    6.7140 ca        1 DCH     -0.120000
     14 CA1         6.8230    5.1030    3.0780 c3        1 DCH     -0.029100
     15 CA2         6.9790    3.6120    2.7680 c3        1 DCH     -0.048400
     16 CA3         8.3580    3.3840    2.1900 c         1 DCH      0.635100
     17 OA3         8.9190    3.9740    1.2650 o         1 DCH     -0.546000
     18 OA4         9.0370    2.3900    2.8350 os        1 DCH     -0.439900
     19 CA5        10.3540    2.0840    2.3410 c3        1 DCH      0.137400
     20 CA6        10.8710    0.9490    3.1910 c3        1 DCH     -0.100100
     21 C21         5.9390    3.1210    1.8120 ca        1 DCH     -0.126300
     22 C22         4.9500    2.2370    2.2500 ca        1 DCH     -0.081000
     23 C23         3.9590    1.7880    1.3770 ca        1 DCH     -0.181000
     24 C24         3.9610    2.2320    0.0500 ca        1 DCH      0.133100
     25 C25         4.9580    3.1160   -0.4070 ca        1 DCH     -0.181000
     26 C26         5.9380    3.5500    0.4760 ca        1 DCH     -0.081000
     27 OB          3.0500    1.8450   -0.9120 os        1 DCH     -0.321900
     28 C31         1.8500    1.2150   -0.4500 c3        1 DCH      0.114100
     29 C32         2.0620   -0.3080   -0.2450 c3        1 DCH      0.117800
     30 N33         1.1000   -1.0420   -1.0590 n3        1 DCH     -0.788200
     31 C34         0.5210   -0.1080   -2.0230 c3        1 DCH      0.142800
     32 C35         0.8350    1.3360   -1.5960 c3        1 DCH     -0.108400
     33 HZ         -0.5430    7.7930    5.9680 h2        1 DCH      0.028700
     34 HZ11       -1.4300    7.5740    3.7040 hn        1 DCH      0.359300
     35 HZ12       -0.7110    6.1840    4.1820 hn        1 DCH      0.359300
     36 HZ21        0.8920    9.6430    5.4860 hn        1 DCH      0.359300
     37 HZ22        0.7070    9.4320    3.8810 hn        1 DCH      0.359300
     38 H12         2.1850    7.1650    3.3540 ha        1 DCH      0.149000
     39 H14         4.3840    6.2790    2.7130 ha        1 DCH      0.140000
     40 H16         6.9490    4.4880    5.6990 ha        1 DCH      0.134000
     41 H17         5.2330    4.9260    7.4570 ha        1 DCH      0.134000
     42 H19         3.0230    5.8190    8.1020 ha        1 DCH      0.134000
     43 H1A         0.8880    6.9410    7.4760 ha        1 DCH      0.133000
     44 HA11        7.8010    5.4970    3.4680 hc        1 DCH      0.064700
     45 HA12        6.5980    5.6520    2.1250 hc        1 DCH      0.064700
     46 HA2         6.9070    3.0300    3.7320 hc        1 DCH      0.089700
     47 HA51       10.2750    1.7970    1.2600 h1        1 DCH      0.052200
     48 HA52       10.9920    3.0020    2.4310 h1        1 DCH      0.052200
     49 HA61       11.8950    0.6720    2.8430 hc        1 DCH      0.048033
     50 HA62       10.9180    1.2510    4.2640 hc        1 DCH      0.048033
     51 HA63       10.2030    0.0590    3.1050 hc        1 DCH      0.048033
     52 H22         4.9460    1.8870    3.2940 ha        1 DCH      0.146000
     53 H23         3.1960    1.0840    1.7360 ha        1 DCH      0.145000
     54 H25         4.9520    3.4440   -1.4560 ha        1 DCH      0.145000
     55 H26         6.7330    4.2290    0.1260 ha        1 DCH      0.146000
     56 H31         1.4870    1.7150    0.4840 h1        1 DCH      0.057700
     57 H321        3.0940   -0.5860   -0.5960 h1        1 DCH      0.061200
     58 H322        1.9730   -0.5780    0.8410 h1        1 DCH      0.061200
     59 H33         0.3790   -1.4290   -0.4770 hn        1 DCH      0.346800
     60 H341       -0.5850   -0.2610   -2.1290 h1        1 DCH      0.052700
     61 H342        0.9970   -0.3210   -3.0190 h1        1 DCH      0.052700
     62 H351        1.2690    1.9170   -2.4460 hc        1 DCH      0.065200
     63 H352       -0.0840    1.8610   -1.2420 hc        1 DCH      0.065200
@<TRIPOS>BOND
     1    1    2 1   
     2    1    3 1   
     3    1    4 1   
     4    1   33 1   
     5    2   34 1   
     6    2   35 1   
     7    3   36 1   
     8    3   37 1   
     9    4    5 ar  
    10    4   13 ar  
    11    5    6 ar  
    12    5   38 1   
    13    6    7 ar  
    14    6   11 ar  
    15    7    8 ar  
    16    7   39 1   
    17    8    9 ar  
    18    8   14 1   
    19    9   10 ar  
    20    9   40 1   
    21   10   11 ar  
    22   10   41 1   
    23   11   12 ar  
    24   12   13 ar  
    25   12   42 1   
    26   13   43 1   
    27   14   15 1   
    28   14   44 1   
    29   14   45 1   
    30   15   16 1   
    31   15   21 1   
    32   15   46 1   
    33   16   17 2   
    34   16   18 1   
    35   18   19 1   
    36   19   20 1   
    37   19   47 1   
    38   19   48 1   
    39   20   49 1   
    40   20   50 1   
    41   20   51 1   
    42   21   22 ar  
    43   21   26 ar  
    44   22   23 ar  
    45   22   52 1   
    46   23   24 ar  
    47   23   53 1   
    48   24   25 ar  
    49   24   27 1   
    50   25   26 ar  
    51   25   54 1   
    52   26   55 1   
    53   27   28 1   
    54   28   29 1   
    55   28   32 1   
    56   28   56 1   
    57   29   30 1   
    58   29   57 1   
    59   29   58 1   
    60   30   31 1   
    61   30   59 1   
    62   31   32 1   
    63   31   60 1   
    64   31   61 1   
    65   32   62 1   
    66   32   63 1   
@<TRIPOS>SUBSTRUCTURE
     1 DCH         1 TEMP              0 ****  ****    0 ROOT
