@<TRIPOS>MOLECULE
DCH
   65    68     1     0     0
SMALL
bcc


@<TRIPOS>ATOM
      1 CZ         -5.0400   -1.1870    1.9870 c3        1 DCH      0.498000
      2 NZ1        -4.3990   -0.6660    3.1360 n8        1 DCH     -0.984800
      3 NZ2        -5.6960   -2.5750    2.3390 nz        1 DCH     -0.891600
      4 C11        -4.1620   -1.4300    0.7850 ca        1 DCH     -0.198300
      5 C12        -2.9450   -2.0700    0.8950 ca        1 DCH     -0.079000
      6 C13        -2.1230   -2.2480   -0.2480 ca        1 DCH     -0.044000
      7 C14        -0.8570   -2.8910   -0.1590 ca        1 DCH     -0.106000
      8 C15        -0.0650   -3.0380   -1.2770 ca        1 DCH     -0.067300
      9 C16        -0.5210   -2.5500   -2.5330 ca        1 DCH     -0.097000
     10 C17        -1.7400   -1.9310   -2.6460 ca        1 DCH     -0.112000
     11 C18        -2.5710   -1.7610   -1.5050 ca        1 DCH     -0.013000
     12 C19        -3.8310   -1.1100   -1.5890 ca        1 DCH     -0.080000
     13 C1A        -4.6120   -0.9480   -0.4710 ca        1 DCH     -0.126000
     14 CA1         1.2830   -3.6660   -1.1870 c3        1 DCH     -0.039100
     15 CA2         1.3480   -5.0260   -1.8840 c3        1 DCH     -0.059400
     16 CA3         0.6480   -6.0720   -1.0440 c         1 DCH      0.635100
     17 OA3         0.7020   -6.2270    0.1780 o         1 DCH     -0.551000
     18 OA4        -0.1260   -6.9100   -1.7850 os        1 DCH     -0.429900
     19 CA5        -0.7970   -7.9720   -1.0760 c3        1 DCH      0.140400
     20 CA6        -1.5270   -8.7780   -2.1220 c3        1 DCH     -0.104100
     21 C21         2.7710   -5.4360   -2.1130 ca        1 DCH     -0.098300
     22 C22         3.2830   -5.4660   -3.4160 ca        1 DCH     -0.082500
     23 C23         4.6030   -5.8400   -3.6510 ca        1 DCH     -0.155500
     24 C24         5.4090   -6.2010   -2.5610 ca        1 DCH      0.092100
     25 C25         4.9140   -6.1810   -1.2530 ca        1 DCH     -0.155500
     26 C26         3.5930   -5.7930   -1.0370 ca        1 DCH     -0.082500
     27 OB          6.6860   -6.6510   -2.8900 os        1 DCH     -0.344900
     28 C31         7.6990   -6.4290   -1.9130 c3        1 DCH      0.134100
     29 C32         9.0030   -6.2130   -2.7160 c3        1 DCH      0.095800
     30 N33         9.6910   -7.5440   -2.7940 ny        1 DCH     -0.766000
     31 C34         9.1950   -8.3700   -1.6350 c3        1 DCH      0.114800
     32 C35         7.9320   -7.7040   -1.0870 c3        1 DCH     -0.132400
     33 HZ         -5.9440   -0.5560    1.7010 hx        1 DCH      0.106700
     34 HZ11       10.7070   -7.4350   -2.7580 hn        1 DCH      0.461300
     35 HZ12       -3.4050   -0.6580    3.1250 hn        1 DCH      0.437300
     36 HZ21       -4.9700   -3.2600    2.5530 hn        1 DCH      0.447800
     37 HZ22       -6.2230   -2.8920    1.5250 hn        1 DCH      0.447800
     38 H12        -2.5790   -2.4500    1.8630 ha        1 DCH      0.137000
     39 H14        -0.5200   -3.2680    0.8200 ha        1 DCH      0.150000
     40 H16         0.1260   -2.6730   -3.4170 ha        1 DCH      0.148000
     41 H17        -2.0920   -1.5510   -3.6190 ha        1 DCH      0.156000
     42 H19        -4.1690   -0.7320   -2.5680 ha        1 DCH      0.163000
     43 H1A        -5.5810   -0.4290   -0.5430 ha        1 DCH      0.146000
     44 HA11        2.0330   -2.9820   -1.6700 hc        1 DCH      0.075700
     45 HA12        1.5830   -3.7960   -0.1110 hc        1 DCH      0.075700
     46 HA2         0.8130   -4.9600   -2.8760 hc        1 DCH      0.096700
     47 HA51       -0.0290   -8.5810   -0.5330 h1        1 DCH      0.052200
     48 HA52       -1.4970   -7.5130   -0.3310 h1        1 DCH      0.052200
     49 HA61       -2.0650   -9.6190   -1.6210 hc        1 DCH      0.055033
     50 HA62       -0.8090   -9.1970   -2.8680 hc        1 DCH      0.055033
     51 HA63       -2.2660   -8.1430   -2.6660 hc        1 DCH      0.055033
     52 H22         2.6410   -5.1960   -4.2700 ha        1 DCH      0.159500
     53 H23         5.0090   -5.8720   -4.6730 ha        1 DCH      0.148500
     54 H25         5.5460   -6.4780   -0.4040 ha        1 DCH      0.148500
     55 H26         3.1800   -5.7850   -0.0130 ha        1 DCH      0.159500
     56 H31         7.4710   -5.5370   -1.2730 h1        1 DCH      0.112700
     57 H321        9.6730   -5.4850   -2.1810 hx        1 DCH      0.124700
     58 H322        8.7820   -5.8390   -3.7550 hx        1 DCH      0.124700
     59 H33         9.4400   -8.0050   -3.6750 hn        1 DCH      0.461300
     60 H341        8.9880   -9.4150   -1.9970 hx        1 DCH      0.114200
     61 H342       10.0050   -8.4100   -0.8530 hx        1 DCH      0.114200
     62 H351        8.0640   -7.4520   -0.0040 hc        1 DCH      0.107700
     63 H352        7.0520   -8.3920   -1.1820 hc        1 DCH      0.107700
     64 HZ13       -4.8250    0.1320    3.5490 hn        1 DCH      0.437300
     65 HZ23       -6.3170   -2.4890    3.1440 hn        1 DCH      0.447800
@<TRIPOS>BOND
     1    1    2 1   
     2    1    3 1   
     3    1    4 1   
     4    1   33 1   
     5    2   35 1   
     6    2   64 1   
     7    3   36 1   
     8    3   37 1   
     9    3   65 1   
    10    4    5 ar  
    11    4   13 ar  
    12    5    6 ar  
    13    5   38 1   
    14    6    7 ar  
    15    6   11 ar  
    16    7    8 ar  
    17    7   39 1   
    18    8    9 ar  
    19    8   14 1   
    20    9   10 ar  
    21    9   40 1   
    22   10   11 ar  
    23   10   41 1   
    24   11   12 ar  
    25   12   13 ar  
    26   12   42 1   
    27   13   43 1   
    28   14   15 1   
    29   14   44 1   
    30   14   45 1   
    31   15   16 1   
    32   15   21 1   
    33   15   46 1   
    34   16   17 2   
    35   16   18 1   
    36   18   19 1   
    37   19   20 1   
    38   19   47 1   
    39   19   48 1   
    40   20   49 1   
    41   20   50 1   
    42   20   51 1   
    43   21   22 ar  
    44   21   26 ar  
    45   22   23 ar  
    46   22   52 1   
    47   23   24 ar  
    48   23   53 1   
    49   24   25 ar  
    50   24   27 1   
    51   25   26 ar  
    52   25   54 1   
    53   26   55 1   
    54   27   28 1   
    55   28   29 1   
    56   28   32 1   
    57   28   56 1   
    58   29   30 1   
    59   29   57 1   
    60   29   58 1   
    61   30   31 1   
    62   30   34 1   
    63   30   59 1   
    64   31   32 1   
    65   31   60 1   
    66   31   61 1   
    67   32   62 1   
    68   32   63 1   
@<TRIPOS>SUBSTRUCTURE
     1 DCH         1 TEMP              0 ****  ****    0 ROOT
