@<TRIPOS>MOLECULE
DCH
   63    61     1     0     0
SMALL
bcc


@<TRIPOS>ATOM
      1 CZ          5.2960   -3.2030   -4.3650 c3        1 DCH      0.072000
      2 NZ1         5.9530   -4.4310   -4.0730 n3        1 DCH     -0.351500
      3 NZ2         5.9350   -2.5750   -5.4710 n3        1 DCH     -0.351500
      4 C11         5.3660   -2.2890   -3.1510 c2        1 DCH     -0.107000
      5 C12         4.0530   -2.1490   -2.7020 c1        1 DCH     -0.097000
      6 C13         3.7920   -1.5040   -1.4740 c1        1 DCH     -0.035000
      7 C14         2.4560   -1.3220   -1.0380 c2        1 DCH     -0.114000
      8 C15         2.1990   -0.6480    0.1500 c1        1 DCH     -0.075000
      9 C16         3.2550   -0.1520    0.9120 c1        1 DCH     -0.119500
     10 C17         4.5690   -0.3300    0.4840 c1        1 DCH     -0.119500
     11 C18         4.8320   -1.0140   -0.7220 c1        1 DCH     -0.036000
     12 C19         6.1600   -1.1560   -1.1770 c2        1 DCH     -0.113000
     13 C1A         6.4170   -1.7940   -2.3900 c2        1 DCH     -0.126000
     14 CA1         0.6570   -0.5170    0.1270 c3        1 DCH     -0.122000
     15 CA2         0.1680   -0.1100    1.4870 c3        1 DCH     -0.045000
     16 CA3        -0.0280   -1.3560    2.3540 c2        1 DCH      0.306000
     17 OA3         0.8500   -2.1860    2.4250 o         1 DCH     -0.357000
     18 OA4        -1.2130   -1.4930    3.1580 os        1 DCH     -0.280000
     19 CA5        -1.2370   -2.6950    3.9640 c3        1 DCH     -0.012000
     20 CA6        -2.6800   -3.2010    4.0870 c3        1 DCH     -0.219000
     21 C21        -1.1590    0.6310    1.3500 c2        1 DCH     -0.123000
     22 C22        -2.0170    0.3300    0.3000 c2        1 DCH     -0.082000
     23 C23        -3.2650    0.9510    0.2170 c1        1 DCH     -0.158000
     24 C24        -3.6510    1.8740    1.1870 c1        1 DCH      0.089000
     25 C25        -2.7900    2.1760    2.2400 c1        1 DCH     -0.207000
     26 C26        -1.5450    1.5550    2.3230 c1        1 DCH     -0.078000
     27 OB         -4.9960    2.3910    1.1910 os        1 DCH     -0.204000
     28 C31        -5.0390    3.6800    0.4390 c3        1 DCH      0.002000
     29 C32        -5.8760    4.7990    1.2940 c3        1 DCH     -0.094000
     30 N33        -6.2870    5.6680    0.4450 n3        1 DCH     -0.268000
     31 C34        -6.3960    4.9070   -0.8660 c3        1 DCH     -0.091000
     32 C35        -5.6510    3.5310   -0.6250 c3        1 DCH     -0.214000
     33 HZ          4.3500   -3.3810   -4.5890 h2        1 DCH      0.112000
     34 HZ11        6.2950   -4.4000   -3.2230 hn        1 DCH      0.148250
     35 HZ12        6.6330   -4.5640   -4.6710 hn        1 DCH      0.148250
     36 HZ21        6.6130   -2.0440   -5.1700 hn        1 DCH      0.148250
     37 HZ22        5.3240   -2.0620   -5.9260 hn        1 DCH      0.148250
     38 H12         3.3260   -2.5330   -3.2100 ha        1 DCH      0.137000
     39 H14         1.7110   -1.6720   -1.5760 ha        1 DCH      0.134000
     40 H16         3.0740    0.3200    1.7450 ha        1 DCH      0.140000
     41 H17         5.3030    0.0150    1.0150 ha        1 DCH      0.140000
     42 H19         6.9000   -0.8080   -0.6420 ha        1 DCH      0.134000
     43 H1A         7.3300   -1.9400   -2.6750 ha        1 DCH      0.128000
     44 HA11        0.3970    0.1570   -0.5270 hc        1 DCH      0.110000
     45 HA12        0.2620   -1.3730   -0.1160 hc        1 DCH      0.110000
     46 HA2         0.8300    0.4810    1.9080 hc        1 DCH      0.133000
     47 HA51       -0.6840   -3.3840    3.5390 h1        1 DCH      0.092000
     48 HA52       -0.8820   -2.4960    4.8600 h1        1 DCH      0.092000
     49 HA61       -2.8360   -3.5300    5.0000 hc        1 DCH      0.087667
     50 HA62       -2.8260   -3.9290    3.4500 hc        1 DCH      0.087667
     51 HA63       -3.3000   -2.4700    3.8940 hc        1 DCH      0.087667
     52 H22        -1.7480   -0.3170   -0.3800 ha        1 DCH      0.151000
     53 H23        -3.8700    0.7380   -0.5240 ha        1 DCH      0.152000
     54 H25        -3.0570    2.8170    2.9160 ha        1 DCH      0.140000
     55 H26        -0.9390    1.7680    3.0650 ha        1 DCH      0.137000
     56 H31        -4.1330    3.9980    0.2650 h1        1 DCH      0.097000
     57 H321       -6.6370    4.3800    1.7390 h1        1 DCH      0.105500
     58 H322       -5.2880    5.2260    1.9580 h1        1 DCH      0.105500
     59 H33        -5.6650    6.3290    0.3620 hn        1 DCH      0.143000
     60 H341       -5.9600    5.4060   -1.5830 h1        1 DCH      0.092500
     61 H342       -7.3280    4.7490   -1.0860 h1        1 DCH      0.092500
     62 H351       -6.2990    2.8030   -0.5440 hc        1 DCH      0.100000
     63 H352       -5.0270    3.3510   -1.3520 hc        1 DCH      0.100000
@<TRIPOS>BOND
     1    1    2 1   
     2    1    3 1   
     3    1    4 1   
     4    1   33 1   
     5    2   34 1   
     6    2   35 1   
     7    3   36 1   
     8    3   37 1   
     9    4    5 1   
    10    4   13 1   
    11    5   38 1   
    12    6    7 1   
    13    6   11 1   
    14    7    8 1   
    15    7   39 1   
    16    8   14 1   
    17    9   10 1   
    18    9   40 1   
    19   10   41 1   
    20   11   12 1   
    21   12   13 1   
    22   12   42 1   
    23   13   43 1   
    24   14   15 1   
    25   14   44 1   
    26   14   45 1   
    27   15   16 1   
    28   15   21 1   
    29   15   46 1   
    30   16   17 1   
    31   16   18 1   
    32   18   19 1   
    33   19   20 1   
    34   19   47 1   
    35   19   48 1   
    36   20   49 1   
    37   20   50 1   
    38   20   51 1   
    39   21   22 1   
    40   21   26 1   
    41   22   23 1   
    42   22   52 1   
    43   23   53 1   
    44   24   25 1   
    45   24   27 1   
    46   25   54 1   
    47   26   55 1   
    48   27   28 1   
    49   28   29 1   
    50   28   32 1   
    51   28   56 1   
    52   29   30 1   
    53   29   57 1   
    54   29   58 1   
    55   30   31 1   
    56   30   59 1   
    57   31   32 1   
    58   31   60 1   
    59   31   61 1   
    60   32   62 1   
    61   32   63 1   
@<TRIPOS>SUBSTRUCTURE
     1 DCH         1 TEMP              0 ****  ****    0 ROOT
