@<TRIPOS>MOLECULE
DCI
   20    19     1     0     0
SMALL
bcc


@<TRIPOS>ATOM
      1 N          -0.0070    0.0700   -0.0500 n4        1 DCI     -0.837600
      2 CA          1.4790    0.1110    0.0860 c3        1 DCI      0.096800
      3 CB          1.9540   -0.1440    1.5210 c3        1 DCI     -0.089700
      4 CG1         3.4790   -0.0650    1.5240 c3        1 DCI     -0.076400
      5 CG2         1.4740   -1.4870    2.0270 c3        1 DCI     -0.123100
      6 CD1         4.0220    0.1990    2.9050 c3        1 DCI     -0.100100
      7 HN1        -0.2790    0.2440   -1.0220 hn        1 DCI      0.461467
      8 HN2        -0.3550   -0.8520    0.2380 hn        1 DCI      0.461467
      9 HA1         1.9080   -0.6730   -0.6030 hx        1 DCI      0.112200
     10 HA2         1.8240    1.1290   -0.2570 hx        1 DCI      0.112200
     11 HB          1.5550    0.6690    2.1920 hc        1 DCI      0.075700
     12 HG11        3.9000   -1.0260    1.1260 hc        1 DCI      0.057200
     13 HG12        3.8140    0.7590    0.8380 hc        1 DCI      0.057200
     14 HG21        2.0050   -1.7430    2.9790 hc        1 DCI      0.057367
     15 HG22        1.6890   -2.2970    1.2880 hc        1 DCI      0.057367
     16 HG23        0.3790   -1.4750    2.2490 hc        1 DCI      0.057367
     17 HD1         5.1380    0.2540    2.8650 hc        1 DCI      0.053033
     18 HD2         3.7390   -0.6160    3.6130 hc        1 DCI      0.053033
     19 HD3         3.6380    1.1670    3.3080 hc        1 DCI      0.053033
     20 HN3        -0.4350    0.7810    0.5520 hn        1 DCI      0.461467
@<TRIPOS>BOND
     1    1    2 1   
     2    1    7 1   
     3    1    8 1   
     4    1   20 1   
     5    2    3 1   
     6    2    9 1   
     7    2   10 1   
     8    3    4 1   
     9    3    5 1   
    10    3   11 1   
    11    4    6 1   
    12    4   12 1   
    13    4   13 1   
    14    5   14 1   
    15    5   15 1   
    16    5   16 1   
    17    6   17 1   
    18    6   18 1   
    19    6   19 1   
@<TRIPOS>SUBSTRUCTURE
     1 DCI         1 TEMP              0 ****  ****    0 ROOT
