@<TRIPOS>MOLECULE
DCI
   19    18     1     0     0
SMALL
bcc


@<TRIPOS>ATOM
      1 N           0.1810    0.3560   -2.4410 n3        1 DCI     -0.915800
      2 CA          0.6910   -0.2070   -1.2150 c3        1 DCI      0.161800
      3 CB         -0.1190    0.1770    0.0340 c3        1 DCI     -0.069700
      4 CG1         0.6220   -0.3190    1.2690 c3        1 DCI     -0.077400
      5 CG2        -1.5170   -0.3990   -0.0290 c3        1 DCI     -0.093100
      6 CD1         0.1780    0.3820    2.5260 c3        1 DCI     -0.092100
      7 HN1        -0.7940    0.1620   -2.5510 hn        1 DCI      0.347800
      8 HN2         0.6790   -0.0160   -3.2250 hn        1 DCI      0.347800
      9 HA1         1.7440    0.1790   -1.0910 h1        1 DCI      0.023200
     10 HA2         0.7540   -1.3360   -1.2480 h1        1 DCI      0.023200
     11 HB         -0.1910    1.3000    0.0860 hc        1 DCI      0.064700
     12 HG11        1.7240   -0.1530    1.1320 hc        1 DCI      0.039200
     13 HG12        0.4660   -1.4250    1.3760 hc        1 DCI      0.039200
     14 HG21       -1.4850   -1.4910   -0.2580 hc        1 DCI      0.033700
     15 HG22       -2.0380   -0.2610    0.9500 hc        1 DCI      0.033700
     16 HG23       -2.1240    0.1120   -0.8150 hc        1 DCI      0.033700
     17 HD1         0.7600    0.0050    3.4020 hc        1 DCI      0.033367
     18 HD2         0.3400    1.4840    2.4430 hc        1 DCI      0.033367
     19 HD3        -0.9070    0.2030    2.7240 hc        1 DCI      0.033367
@<TRIPOS>BOND
     1    1    2 1   
     2    1    7 1   
     3    1    8 1   
     4    2    3 1   
     5    2    9 1   
     6    2   10 1   
     7    3    4 1   
     8    3    5 1   
     9    3   11 1   
    10    4    6 1   
    11    4   12 1   
    12    4   13 1   
    13    5   14 1   
    14    5   15 1   
    15    5   16 1   
    16    6   17 1   
    17    6   18 1   
    18    6   19 1   
@<TRIPOS>SUBSTRUCTURE
     1 DCI         1 TEMP              0 ****  ****    0 ROOT
