@<TRIPOS>MOLECULE
DCI
   20    19     1     0     0
SMALL
bcc


@<TRIPOS>ATOM
      1 N          -0.0100    0.0850   -0.0420 nz        1 DCI     -0.837600
      2 CA          1.4760    0.1170    0.0890 c3        1 DCI      0.096800
      3 CB          1.9550   -0.1440    1.5220 c3        1 DCI     -0.089700
      4 CG1         3.4810   -0.0740    1.5190 c3        1 DCI     -0.076400
      5 CG2         1.4680   -1.4840    2.0270 c3        1 DCI     -0.123100
      6 CD1         4.0310    0.1840    2.8980 c3        1 DCI     -0.100100
      7 HN1        -0.3630   -0.8360    0.2460 hn        1 DCI      0.461467
      8 HN2        -0.4310    0.7970    0.5630 hn        1 DCI      0.461467
      9 HA1         1.8270    1.1330   -0.2540 hx        1 DCI      0.112200
     10 HA2         1.8980   -0.6690   -0.6030 hx        1 DCI      0.112200
     11 HB          1.5640    0.6710    2.1960 hc        1 DCI      0.075700
     12 HG11        3.8940   -1.0380    1.1180 hc        1 DCI      0.057200
     13 HG12        3.8190    0.7480    0.8330 hc        1 DCI      0.057200
     14 HG21        1.6760   -2.2950    1.2860 hc        1 DCI      0.057367
     15 HG22        0.3750   -1.4660    2.2540 hc        1 DCI      0.057367
     16 HG23        2.0020   -1.7450    2.9770 hc        1 DCI      0.057367
     17 HD1         5.1470    0.2320    2.8540 hc        1 DCI      0.053033
     18 HD2         3.7450   -0.6300    3.6070 hc        1 DCI      0.053033
     19 HD3         3.6540    1.1540    3.3040 hc        1 DCI      0.053033
     20 HN3        -0.2850    0.2630   -1.0120 hn        1 DCI      0.461467
@<TRIPOS>BOND
     1    1    2 1   
     2    1    7 1   
     3    1    8 1   
     4    1   20 1   
     5    2    3 1   
     6    2    9 1   
     7    2   10 1   
     8    3    4 1   
     9    3    5 1   
    10    3   11 1   
    11    4    6 1   
    12    4   12 1   
    13    4   13 1   
    14    5   14 1   
    15    5   15 1   
    16    5   16 1   
    17    6   17 1   
    18    6   18 1   
    19    6   19 1   
@<TRIPOS>SUBSTRUCTURE
     1 DCI         1 TEMP              0 ****  ****    0 ROOT
