@<TRIPOS>MOLECULE
DCI
   19    18     1     0     0
SMALL
bcc


@<TRIPOS>ATOM
      1 N          -2.0900   -0.1760   -1.2760 n3        1 DCI     -0.916800
      2 CA         -0.6640   -0.1760   -1.2760 c3        1 DCI      0.159800
      3 CB         -0.1600   -0.1760    0.1500 c3        1 DCI     -0.065700
      4 CG1         1.2090    0.4650    0.2010 c3        1 DCI     -0.078400
      5 CG2        -0.0690   -1.6000    0.6530 c3        1 DCI     -0.084100
      6 CD1         1.2160    1.5590    1.2460 c3        1 DCI     -0.092100
      7 HN1        -2.3940    0.6400   -1.5490 hn        1 DCI      0.347800
      8 HN2        -2.3940   -0.8200   -1.8460 hn        1 DCI      0.347800
      9 HA1        -0.3390   -0.9730   -1.7360 h1        1 DCI      0.024700
     10 HA2        -0.3390    0.6210   -1.7360 h1        1 DCI      0.024700
     11 HB         -0.7770    0.3300    0.7130 hc        1 DCI      0.043700
     12 HG11        1.4220    0.8480   -0.6720 hc        1 DCI      0.039200
     13 HG12        1.8760   -0.2090    0.4320 hc        1 DCI      0.039200
     14 HG21        0.2720   -1.6010    1.5670 hc        1 DCI      0.037033
     15 HG22        0.5350   -2.1090    0.0800 hc        1 DCI      0.037033
     16 HG23       -0.9560   -2.0080    0.6360 hc        1 DCI      0.037033
     17 HD1         2.1110    1.9430    1.3100 hc        1 DCI      0.033367
     18 HD2         0.5800    2.2550    0.9930 hc        1 DCI      0.033367
     19 HD3         0.9610    1.1840    2.1110 hc        1 DCI      0.033367
@<TRIPOS>BOND
     1    1    2 1   
     2    1    7 1   
     3    1    8 1   
     4    2    3 1   
     5    2    9 1   
     6    2   10 1   
     7    3    4 1   
     8    3    5 1   
     9    3   11 1   
    10    4    6 1   
    11    4   12 1   
    12    4   13 1   
    13    5   14 1   
    14    5   15 1   
    15    5   16 1   
    16    6   17 1   
    17    6   18 1   
    18    6   19 1   
@<TRIPOS>SUBSTRUCTURE
     1 DCI         1 TEMP              0 ****  ****    0 ROOT
