@<TRIPOS>MOLECULE
DCI
   20    19     1     0     0
SMALL
bcc


@<TRIPOS>ATOM
      1 N          -0.0180    0.0720   -0.0340 n4        1 DCI     -0.837600
      2 CA          1.4700    0.0930    0.0850 c3        1 DCI      0.096800
      3 CB          1.9580   -0.1400    1.5200 c3        1 DCI     -0.089700
      4 CG1         3.4840   -0.0850    1.5040 c3        1 DCI     -0.076400
      5 CG2         1.4620   -1.4630    2.0600 c3        1 DCI     -0.123100
      6 CD1         4.0470    0.2000    2.8730 c3        1 DCI     -0.100100
      7 HN1        -0.3770   -0.8380    0.2790 hn        1 DCI      0.461467
      8 HN2        -0.4270    0.8030    0.5570 hn        1 DCI      0.461467
      9 HA1         1.8270    1.0970   -0.2840 hx        1 DCI      0.112200
     10 HA2         1.8790   -0.7130   -0.5910 hx        1 DCI      0.112200
     11 HB          1.5800    0.6940    2.1780 hc        1 DCI      0.075700
     12 HG11        3.8850   -1.0620    1.1230 hc        1 DCI      0.057200
     13 HG12        3.8240    0.7180    0.7960 hc        1 DCI      0.057200
     14 HG21        1.6550   -2.2920    1.3370 hc        1 DCI      0.057367
     15 HG22        0.3700   -1.4280    2.2940 hc        1 DCI      0.057367
     16 HG23        2.0000   -1.7070    3.0120 hc        1 DCI      0.057367
     17 HD1         5.1630    0.2360    2.8190 hc        1 DCI      0.053033
     18 HD2         3.7580   -0.5940    3.6020 hc        1 DCI      0.053033
     19 HD3         3.6830    1.1840    3.2580 hc        1 DCI      0.053033
     20 HN3        -0.2980    0.2300   -1.0060 hn        1 DCI      0.461467
@<TRIPOS>BOND
     1    1    2 1   
     2    1    7 1   
     3    1    8 1   
     4    1   20 1   
     5    2    3 1   
     6    2    9 1   
     7    2   10 1   
     8    3    4 1   
     9    3    5 1   
    10    3   11 1   
    11    4    6 1   
    12    4   12 1   
    13    4   13 1   
    14    5   14 1   
    15    5   15 1   
    16    5   16 1   
    17    6   17 1   
    18    6   18 1   
    19    6   19 1   
@<TRIPOS>SUBSTRUCTURE
     1 DCI         1 TEMP              0 ****  ****    0 ROOT
