@<TRIPOS>MOLECULE
DCJ
   40    36     1     0     0
SMALL
bcc


@<TRIPOS>ATOM
      1 O4          4.0770    2.8600    4.8940 o         1 DCJ     -0.683000
      2 C7          2.8770    2.5550    5.1360 c1        1 DCJ      0.391000
      3 O3          2.1380    3.3560    5.7720 os        1 DCJ     -0.472000
      4 C6          2.3050    1.2610    4.6040 c2        1 DCJ     -0.031000
      5 C5          1.6350    1.2470    3.3900 c2        1 DCJ     -0.261000
      6 N1          2.4960    0.0990    5.2910 n1        1 DCJ     -0.085000
      7 C2          2.0200   -1.1030    4.7760 c1        1 DCJ     -0.025000
      8 C1          2.2130   -2.3720    5.5400 c2        1 DCJ      0.388000
      9 O2          3.0670   -3.2060    5.1620 o         1 DCJ     -0.537000
     10 O1          1.4750   -2.6310    6.5280 o         1 DCJ     -0.537000
     11 C3          1.3550   -1.1190    3.5710 c1        1 DCJ     -0.155000
     12 C4          1.1620    0.0550    2.8760 c1        1 DCJ      0.002000
     13 N2          0.4730    0.0410    1.6310 n3        1 DCJ     -0.092000
     14 C8          1.0400    0.0630    0.4190 c1        1 DCJ     -0.050000
     15 N3         -0.8860   -0.0700    1.4620 n2        1 DCJ      0.041000
     16 N4         -1.1450   -0.1170    0.1220 n2        1 DCJ     -0.083000
     17 C9          0.0260   -0.0360   -0.5300 c1        1 DCJ     -0.295000
     18 C10         0.1960    0.0970   -2.0150 c2        1 DCJ     -0.004000
     19 N5         -1.1490   -0.1240   -2.7060 n4        1 DCJ      0.038000
     20 C13        -1.4800   -1.4900   -2.6670 c3        1 DCJ     -0.211000
     21 C14        -2.1680    0.6300   -2.0300 c3        1 DCJ     -0.211000
     22 C11        -1.0590    0.3150   -4.0950 c3        1 DCJ     -0.157000
     23 C12        -2.4210    0.0490   -4.8200 c3        1 DCJ     -0.032000
     24 O5         -2.6010    1.0030   -5.8420 oh        1 DCJ     -0.331000
     25 H5          1.5810    2.0560    2.8590 ha        1 DCJ      0.127000
     26 H3          1.0620   -1.9630    3.1890 ha        1 DCJ      0.160000
     27 H8          1.9810    0.1470    0.2370 DU        1 DCJ      0.210000
     28 H101        0.5260    0.9880   -2.2250 hx        1 DCJ      0.125500
     29 H102        0.8460   -0.5790   -2.3350 hx        1 DCJ      0.125500
     30 H131       -2.4500   -1.5940   -2.7630 hx        1 DCJ      0.155167
     31 H132       -1.1950   -1.8710   -1.8120 hx        1 DCJ      0.155167
     32 H133       -1.0290   -1.9540   -3.3970 hx        1 DCJ      0.155167
     33 H141       -2.9300    0.7850   -2.6490 hx        1 DCJ      0.155167
     34 H142       -1.8050    1.4820   -1.7460 hx        1 DCJ      0.155167
     35 H143       -2.4780    0.1310   -1.2490 hx        1 DCJ      0.155167
     36 H111       -0.3510   -0.1780   -4.5450 hx        1 DCJ      0.123000
     37 H112       -0.8530    1.2860   -4.1210 hx        1 DCJ      0.123000
     38 H121       -2.4150   -0.8430   -5.2070 h1        1 DCJ      0.119000
     39 H122       -3.1560    0.1200   -4.1740 h1        1 DCJ      0.119000
     40 HO5        -2.9780    0.6240   -6.5280 ho        1 DCJ      0.228000
@<TRIPOS>BOND
     1    1    2 1   
     2    2    4 1   
     3    4    5 1   
     4    4    6 1   
     5    5   12 1   
     6    5   25 1   
     7    7    8 1   
     8    7   11 1   
     9    8    9 1   
    10    8   10 1   
    11   11   26 1   
    12   12   13 1   
    13   13   14 1   
    14   13   15 1   
    15   14   17 1   
    16   15   16 1   
    17   16   17 1   
    18   18   19 1   
    19   18   28 1   
    20   18   29 1   
    21   19   20 1   
    22   19   21 1   
    23   19   22 1   
    24   20   30 1   
    25   20   31 1   
    26   20   32 1   
    27   21   33 1   
    28   21   34 1   
    29   21   35 1   
    30   22   23 1   
    31   22   36 1   
    32   22   37 1   
    33   23   24 1   
    34   23   38 1   
    35   23   39 1   
    36   24   40 1   
@<TRIPOS>SUBSTRUCTURE
     1 DCJ         1 TEMP              0 ****  ****    0 ROOT
