@<TRIPOS>MOLECULE
DCJ
   40    41     1     0     0
SMALL
bcc


@<TRIPOS>ATOM
      1 O4          0.5380   -2.0710   -0.5090 o         1 DCJ     -0.813800
      2 C7          1.0140   -0.9180   -0.3250 c         1 DCJ      0.825100
      3 O3          0.7590   -0.1530    0.6360 o         1 DCJ     -0.813800
      4 C6          1.9240   -0.3820   -1.4590 ca        1 DCJ      0.392800
      5 C5          1.2290    0.0210   -2.6290 ca        1 DCJ     -0.262800
      6 N1          3.2690   -0.3750   -1.3510 nb        1 DCJ     -0.602000
      7 C2          3.9860    0.0680   -2.4080 ca        1 DCJ      0.392800
      8 C1          5.5330    0.0500   -2.4540 c         1 DCJ      0.825100
      9 O2          6.1870    0.6260   -1.5550 o         1 DCJ     -0.813800
     10 O1          6.0210   -0.5090   -3.4800 o         1 DCJ     -0.813800
     11 C3          3.3900    0.5110   -3.6100 ca        1 DCJ     -0.262800
     12 C4          1.9920    0.4330   -3.7270 ca        1 DCJ     -0.058200
     13 N2          1.4080    0.6340   -5.0250 na        1 DCJ      0.216300
     14 C8          2.0620    0.2200   -6.1760 cc        1 DCJ     -0.165600
     15 N3          0.1380    1.0100   -5.3270 nc        1 DCJ     -0.132800
     16 N4         -0.0790    0.8710   -6.5720 nd        1 DCJ     -0.364000
     17 C9          1.0850    0.3620   -7.1980 cd        1 DCJ      0.072600
     18 C10         1.2120    0.0360   -8.6140 c3        1 DCJ      0.157500
     19 N5          0.8410   -1.4250   -8.9100 n4        1 DCJ     -0.608800
     20 C13         1.8080   -2.3350   -8.2370 c3        1 DCJ      0.089100
     21 C14        -0.5340   -1.7040   -8.3970 c3        1 DCJ      0.089100
     22 C11         0.8860   -1.6040  -10.3980 c3        1 DCJ      0.109800
     23 C12         1.0730   -3.0350  -10.9090 c3        1 DCJ      0.116400
     24 O5          0.0070   -3.8250  -10.4180 oh        1 DCJ     -0.610800
     25 H5          0.1340   -0.0410   -2.6470 ha        1 DCJ      0.147000
     26 H3          4.0470    0.8580   -4.4190 ha        1 DCJ      0.147000
     27 H8          3.1030   -0.1130   -6.1790 h4        1 DCJ      0.222000
     28 H101        2.2800    0.1670   -8.9470 hx        1 DCJ      0.088700
     29 H102        0.5290    0.6700   -9.2470 hx        1 DCJ      0.088700
     30 H131        1.4600   -3.3960   -8.3510 hx        1 DCJ      0.102533
     31 H132        1.8600   -2.0780   -7.1420 hx        1 DCJ      0.102533
     32 H133        2.8230   -2.2070   -8.6950 hx        1 DCJ      0.102533
     33 H141       -0.5130   -1.7220   -7.2740 hx        1 DCJ      0.102533
     34 H142       -0.8840   -2.6980   -8.7820 hx        1 DCJ      0.102533
     35 H143       -1.2260   -0.8900   -8.7370 hx        1 DCJ      0.102533
     36 H111       -0.0760   -1.1900  -10.8150 hx        1 DCJ      0.095200
     37 H112        1.7510   -0.9990  -10.7970 hx        1 DCJ      0.095200
     38 H121        2.0580   -3.4620  -10.5790 h1        1 DCJ      0.054200
     39 H122        1.0480   -2.9960  -12.0330 h1        1 DCJ      0.054200
     40 HO5         0.0970   -4.7030  -10.8090 ho        1 DCJ      0.430000
@<TRIPOS>BOND
     1    1    2 1   
     2    2    3 1   
     3    2    4 1   
     4    4    5 ar  
     5    4    6 ar  
     6    5   12 ar  
     7    5   25 1   
     8    6    7 ar  
     9    7    8 1   
    10    7   11 ar  
    11    8    9 1   
    12    8   10 1   
    13   11   12 ar  
    14   11   26 1   
    15   12   13 1   
    16   13   14 1   
    17   13   15 1   
    18   14   17 2   
    19   14   27 1   
    20   15   16 2   
    21   16   17 1   
    22   17   18 1   
    23   18   19 1   
    24   18   28 1   
    25   18   29 1   
    26   19   20 1   
    27   19   21 1   
    28   19   22 1   
    29   20   30 1   
    30   20   31 1   
    31   20   32 1   
    32   21   33 1   
    33   21   34 1   
    34   21   35 1   
    35   22   23 1   
    36   22   36 1   
    37   22   37 1   
    38   23   24 1   
    39   23   38 1   
    40   23   39 1   
    41   24   40 1   
@<TRIPOS>SUBSTRUCTURE
     1 DCJ         1 TEMP              0 ****  ****    0 ROOT
