@<TRIPOS>MOLECULE
DCJ
   40    41     1     0     0
SMALL
bcc


@<TRIPOS>ATOM
      1 O4          0.5020   -2.0630   -0.5140 o         1 DCJ     -0.813800
      2 C7          0.9900   -0.9160   -0.3270 c         1 DCJ      0.825100
      3 O3          0.7390   -0.1490    0.6330 o         1 DCJ     -0.813800
      4 C6          1.9110   -0.3890   -1.4570 ca        1 DCJ      0.392800
      5 C5          1.2240    0.0220   -2.6300 ca        1 DCJ     -0.262800
      6 N1          3.2550   -0.3980   -1.3440 nb        1 DCJ     -0.602000
      7 C2          3.9810    0.0380   -2.3970 ca        1 DCJ      0.392800
      8 C1          5.5280    0.0030   -2.4370 c         1 DCJ      0.825100
      9 O2          6.1840    0.5700   -1.5350 o         1 DCJ     -0.813800
     10 O1          6.0140   -0.5610   -3.4610 o         1 DCJ     -0.813800
     11 C3          3.3950    0.4890   -3.6020 ca        1 DCJ     -0.262800
     12 C4          1.9970    0.4260   -3.7240 ca        1 DCJ     -0.058200
     13 N2          1.4200    0.6350   -5.0240 na        1 DCJ      0.216300
     14 C8          2.0740    0.2150   -6.1730 cc        1 DCJ     -0.165600
     15 N3          0.1560    1.0260   -5.3310 nc        1 DCJ     -0.132800
     16 N4         -0.0580    0.8900   -6.5770 nd        1 DCJ     -0.364000
     17 C9          1.1030    0.3680   -7.1990 cd        1 DCJ      0.072600
     18 C10         1.2320    0.0420   -8.6140 c3        1 DCJ      0.157500
     19 N5          0.8460   -1.4140   -8.9130 n4        1 DCJ     -0.608800
     20 C13         1.8000   -2.3360   -8.2380 c3        1 DCJ      0.089100
     21 C14        -0.5340   -1.6780   -8.4070 c3        1 DCJ      0.089100
     22 C11         0.8960   -1.5930  -10.4020 c3        1 DCJ      0.109800
     23 C12         1.0690   -3.0250  -10.9130 c3        1 DCJ      0.116400
     24 O5         -0.0080   -3.8030  -10.4270 oh        1 DCJ     -0.610800
     25 H5          0.1290   -0.0280   -2.6520 ha        1 DCJ      0.147000
     26 H3          4.0590    0.8290   -4.4070 ha        1 DCJ      0.147000
     27 H8          3.1120   -0.1300   -6.1730 h4        1 DCJ      0.222000
     28 H101        2.3030    0.1610   -8.9440 hx        1 DCJ      0.088700
     29 H102        0.5590    0.6850   -9.2500 hx        1 DCJ      0.088700
     30 H131        1.4400   -3.3920   -8.3540 hx        1 DCJ      0.102533
     31 H132        1.8500   -2.0800   -7.1420 hx        1 DCJ      0.102533
     32 H133        2.8180   -2.2180   -8.6910 hx        1 DCJ      0.102533
     33 H141       -0.5180   -1.6970   -7.2830 hx        1 DCJ      0.102533
     34 H142       -0.8930   -2.6680   -8.7940 hx        1 DCJ      0.102533
     35 H143       -1.2160   -0.8560   -8.7490 hx        1 DCJ      0.102533
     36 H111       -0.0600   -1.1670  -10.8220 hx        1 DCJ      0.095200
     37 H112        1.7680   -0.9960  -10.7960 hx        1 DCJ      0.095200
     38 H121        2.0480   -3.4640  -10.5790 h1        1 DCJ      0.054200
     39 H122        1.0490   -2.9850  -12.0370 h1        1 DCJ      0.054200
     40 HO5         0.0740   -4.6820  -10.8180 ho        1 DCJ      0.430000
@<TRIPOS>BOND
     1    1    2 1   
     2    2    3 1   
     3    2    4 1   
     4    4    5 ar  
     5    4    6 ar  
     6    5   12 ar  
     7    5   25 1   
     8    6    7 ar  
     9    7    8 1   
    10    7   11 ar  
    11    8    9 1   
    12    8   10 1   
    13   11   12 ar  
    14   11   26 1   
    15   12   13 1   
    16   13   14 1   
    17   13   15 1   
    18   14   17 2   
    19   14   27 1   
    20   15   16 2   
    21   16   17 1   
    22   17   18 1   
    23   18   19 1   
    24   18   28 1   
    25   18   29 1   
    26   19   20 1   
    27   19   21 1   
    28   19   22 1   
    29   20   30 1   
    30   20   31 1   
    31   20   32 1   
    32   21   33 1   
    33   21   34 1   
    34   21   35 1   
    35   22   23 1   
    36   22   36 1   
    37   22   37 1   
    38   23   24 1   
    39   23   38 1   
    40   23   39 1   
    41   24   40 1   
@<TRIPOS>SUBSTRUCTURE
     1 DCJ         1 TEMP              0 ****  ****    0 ROOT
