@<TRIPOS>MOLECULE
DCJ
   40    41     1     0     0
SMALL
bcc


@<TRIPOS>ATOM
      1 O4          3.4530   -2.4510   -2.3660 o         1 DCJ     -0.813800
      2 C7          4.0030   -2.0820   -1.2940 c         1 DCJ      0.825100
      3 O3          5.0010   -2.6120   -0.7500 o         1 DCJ     -0.813800
      4 C6          3.3020   -0.9190   -0.5480 ca        1 DCJ      0.392800
      5 C5          2.1030   -1.2860    0.1180 ca        1 DCJ     -0.262800
      6 N1          3.7680    0.3460   -0.6010 nb        1 DCJ     -0.602000
      7 C2          3.0660    1.3060    0.0420 ca        1 DCJ      0.392800
      8 C1          3.4380    2.8080   -0.0060 c         1 DCJ      0.825100
      9 O2          4.5820    3.1750    0.3420 o         1 DCJ     -0.813800
     10 O1          2.4860    3.5740   -0.3420 o         1 DCJ     -0.813800
     11 C3          1.8740    1.0420    0.7520 ca        1 DCJ     -0.262800
     12 C4          1.3690   -0.2700    0.7380 ca        1 DCJ     -0.058200
     13 N2          0.0370   -0.4890    1.2320 na        1 DCJ      0.216300
     14 C8         -0.9560    0.4650    1.0610 cc        1 DCJ     -0.165600
     15 N3         -0.5080   -1.6420    1.6990 nc        1 DCJ     -0.132800
     16 N4         -1.7650   -1.5110    1.8390 nd        1 DCJ     -0.364000
     17 C9         -2.1480   -0.2050    1.4480 cd        1 DCJ      0.072600
     18 C10        -3.5120    0.3100    1.4340 c3        1 DCJ      0.157500
     19 N5         -4.2060    0.0820    0.0830 n4        1 DCJ     -0.608800
     20 C13        -3.5110    0.8630   -0.9770 c3        1 DCJ      0.089100
     21 C14        -4.1570   -1.3690   -0.2640 c3        1 DCJ      0.089100
     22 C11        -5.6290    0.5340    0.2310 c3        1 DCJ      0.109800
     23 C12        -6.3670    0.9000   -1.0590 c3        1 DCJ      0.116400
     24 O5         -6.3660   -0.2310   -1.9080 oh        1 DCJ     -0.610800
     25 H5          1.7770   -2.3330    0.0900 ha        1 DCJ      0.147000
     26 H3          1.3680    1.8800    1.2480 ha        1 DCJ      0.147000
     27 H8         -0.7490    1.4790    0.7100 h4        1 DCJ      0.222000
     28 H101       -4.1540   -0.1980    2.2090 hx        1 DCJ      0.088700
     29 H102       -3.5080    1.4240    1.6060 hx        1 DCJ      0.088700
     30 H131       -2.4140    0.6090   -0.9650 hx        1 DCJ      0.102533
     31 H132       -3.9420    0.5950   -1.9780 hx        1 DCJ      0.102533
     32 H133       -3.6380    1.9590   -0.7780 hx        1 DCJ      0.102533
     33 H141       -4.4870   -1.9710    0.6220 hx        1 DCJ      0.102533
     34 H142       -4.8280   -1.5680   -1.1410 hx        1 DCJ      0.102533
     35 H143       -3.1020   -1.6510   -0.5270 hx        1 DCJ      0.102533
     36 H111       -6.1910   -0.2940    0.7510 hx        1 DCJ      0.095200
     37 H112       -5.6390    1.4520    0.8860 hx        1 DCJ      0.095200
     38 H121       -7.4200    1.1770   -0.7760 h1        1 DCJ      0.054200
     39 H122       -5.8840    1.7740   -1.5740 h1        1 DCJ      0.054200
     40 HO5        -6.8980   -0.0090   -2.6830 ho        1 DCJ      0.430000
@<TRIPOS>BOND
     1    1    2 1   
     2    2    3 1   
     3    2    4 1   
     4    4    5 ar  
     5    4    6 ar  
     6    5   12 ar  
     7    5   25 1   
     8    6    7 ar  
     9    7    8 1   
    10    7   11 ar  
    11    8    9 1   
    12    8   10 1   
    13   11   12 ar  
    14   11   26 1   
    15   12   13 1   
    16   13   14 1   
    17   13   15 1   
    18   14   17 2   
    19   14   27 1   
    20   15   16 2   
    21   16   17 1   
    22   17   18 1   
    23   18   19 1   
    24   18   28 1   
    25   18   29 1   
    26   19   20 1   
    27   19   21 1   
    28   19   22 1   
    29   20   30 1   
    30   20   31 1   
    31   20   32 1   
    32   21   33 1   
    33   21   34 1   
    34   21   35 1   
    35   22   23 1   
    36   22   36 1   
    37   22   37 1   
    38   23   24 1   
    39   23   38 1   
    40   23   39 1   
    41   24   40 1   
@<TRIPOS>SUBSTRUCTURE
     1 DCJ         1 TEMP              0 ****  ****    0 ROOT
