@<TRIPOS>MOLECULE
DCJ
   40    41     1     0     0
SMALL
bcc


@<TRIPOS>ATOM
      1 O4          0.5090   -2.1460   -0.5270 o         1 DCJ     -0.813800
      2 C7          0.9960   -1.0010   -0.3260 c         1 DCJ      0.825100
      3 O3          0.7450   -0.2460    0.6440 o         1 DCJ     -0.813800
      4 C6          1.9150   -0.4590   -1.4500 ca        1 DCJ      0.392800
      5 C5          1.2270   -0.0330   -2.6170 ca        1 DCJ     -0.262800
      6 N1          3.2590   -0.4670   -1.3390 nb        1 DCJ     -0.602000
      7 C2          3.9840   -0.0170   -2.3880 ca        1 DCJ      0.392800
      8 C1          5.5300   -0.0500   -2.4290 c         1 DCJ      0.825100
      9 O2          6.1870    0.5060   -1.5210 o         1 DCJ     -0.813800
     10 O1          6.0160   -0.6000   -3.4610 o         1 DCJ     -0.813800
     11 C3          3.3960    0.4480   -3.5850 ca        1 DCJ     -0.262800
     12 C4          1.9970    0.3850   -3.7070 ca        1 DCJ     -0.058200
     13 N2          1.4190    0.6100   -5.0040 na        1 DCJ      0.216300
     14 C8          2.0720    0.2040   -6.1590 cc        1 DCJ     -0.165600
     15 N3          0.1540    1.0020   -5.3050 nc        1 DCJ     -0.132800
     16 N4         -0.0610    0.8810   -6.5520 nd        1 DCJ     -0.364000
     17 C9          1.1000    0.3690   -7.1810 cd        1 DCJ      0.072600
     18 C10         1.2280    0.0610   -8.6010 c3        1 DCJ      0.157500
     19 N5          0.8440   -1.3920   -8.9180 n4        1 DCJ     -0.608800
     20 C13         1.8000   -2.3200   -8.2550 c3        1 DCJ      0.089100
     21 C14        -0.5350   -1.6640   -8.4140 c3        1 DCJ      0.089100
     22 C11         0.8930   -1.5510  -10.4090 c3        1 DCJ      0.109800
     23 C12         1.0680   -2.9770  -10.9380 c3        1 DCJ      0.116400
     24 O5         -0.0070   -3.7630  -10.4610 oh        1 DCJ     -0.610800
     25 H5          0.1310   -0.0850   -2.6390 ha        1 DCJ      0.147000
     26 H3          4.0580    0.7980   -4.3870 ha        1 DCJ      0.147000
     27 H8          3.1100   -0.1380   -6.1640 h4        1 DCJ      0.222000
     28 H101        0.5530    0.7110   -9.2280 hx        1 DCJ      0.088700
     29 H102        2.2990    0.1860   -8.9300 hx        1 DCJ      0.088700
     30 H131        1.4420   -3.3760   -8.3840 hx        1 DCJ      0.102533
     31 H132        1.8510   -2.0780   -7.1560 hx        1 DCJ      0.102533
     32 H133        2.8180   -2.1950   -8.7070 hx        1 DCJ      0.102533
     33 H141       -1.2180   -0.8390   -8.7450 hx        1 DCJ      0.102533
     34 H142       -0.8930   -2.6500   -8.8130 hx        1 DCJ      0.102533
     35 H143       -0.5180   -1.6970   -7.2910 hx        1 DCJ      0.102533
     36 H111       -0.0640   -1.1220  -10.8230 hx        1 DCJ      0.095200
     37 H112        1.7640   -0.9490  -10.7960 hx        1 DCJ      0.095200
     38 H121        2.0480   -3.4180  -10.6110 h1        1 DCJ      0.054200
     39 H122        1.0470   -2.9230  -12.0610 h1        1 DCJ      0.054200
     40 HO5         0.0760   -4.6370  -10.8640 ho        1 DCJ      0.430000
@<TRIPOS>BOND
     1    1    2 1   
     2    2    3 1   
     3    2    4 1   
     4    4    5 ar  
     5    4    6 ar  
     6    5   12 ar  
     7    5   25 1   
     8    6    7 ar  
     9    7    8 1   
    10    7   11 ar  
    11    8    9 1   
    12    8   10 1   
    13   11   12 ar  
    14   11   26 1   
    15   12   13 1   
    16   13   14 1   
    17   13   15 1   
    18   14   17 2   
    19   14   27 1   
    20   15   16 2   
    21   16   17 1   
    22   17   18 1   
    23   18   19 1   
    24   18   28 1   
    25   18   29 1   
    26   19   20 1   
    27   19   21 1   
    28   19   22 1   
    29   20   30 1   
    30   20   31 1   
    31   20   32 1   
    32   21   33 1   
    33   21   34 1   
    34   21   35 1   
    35   22   23 1   
    36   22   36 1   
    37   22   37 1   
    38   23   24 1   
    39   23   38 1   
    40   23   39 1   
    41   24   40 1   
@<TRIPOS>SUBSTRUCTURE
     1 DCJ         1 TEMP              0 ****  ****    0 ROOT
