@<TRIPOS>MOLECULE
DCK
   26    25     1     0     0
SMALL
bcc


@<TRIPOS>ATOM
      1 C01         0.0340   -0.0180    0.2300 c3        1 DCK      0.088433
      2 N02         1.5120   -0.0300    0.0270 n4        1 DCK     -0.589800
      3 C03         2.1870   -0.2000    1.3480 c3        1 DCK      0.088433
      4 C04         1.8770   -1.1750   -0.8540 c3        1 DCK      0.088433
      5 C05         1.9690    1.2550   -0.6250 c3        1 DCK      0.099800
      6 C06         1.2330    2.5330   -0.1670 c3        1 DCK      0.177100
      7 O07         1.2140    2.5410    1.2470 oh        1 DCK     -0.693800
      8 C08         1.9480    3.7330   -0.7560 c3        1 DCK     -0.263400
      9 C09         1.0990    5.0060   -0.4920 c         1 DCK      0.921600
     10 O10         0.5150    5.0680    0.6320 o         1 DCK     -0.809800
     11 O11         1.0480    5.8680   -1.3980 o         1 DCK     -0.809800
     12 H01        -0.2960   -1.0200    0.6080 hx        1 DCK      0.096700
     13 H01A       -0.2250    0.7810    0.9830 hx        1 DCK      0.096700
     14 H01B       -0.4700    0.2100   -0.7450 hx        1 DCK      0.096700
     15 H03         3.2920   -0.2970    1.1880 hx        1 DCK      0.096700
     16 H03A        1.7920   -1.1210    1.8490 hx        1 DCK      0.096700
     17 H03B        1.9800    0.7060    1.9870 hx        1 DCK      0.096700
     18 H04         1.6280   -2.1400   -0.3400 hx        1 DCK      0.096700
     19 H04A        1.3040   -1.1060   -1.8160 hx        1 DCK      0.096700
     20 H04B        2.9770   -1.1390   -1.0710 hx        1 DCK      0.096700
     21 H05         1.8120    1.1520   -1.7350 hx        1 DCK      0.089200
     22 H05A        3.0680    1.3640   -0.4090 hx        1 DCK      0.089200
     23 H06         0.1690    2.5070   -0.5420 h1        1 DCK      0.050700
     24 HO07        1.0020    3.4600    1.5280 ho        1 DCK      0.502000
     25 H08         2.9420    3.8760   -0.2680 hc        1 DCK      0.050700
     26 H08A        2.0930    3.6070   -1.8550 hc        1 DCK      0.050700
@<TRIPOS>BOND
     1    1    2 1   
     2    1   12 1   
     3    1   13 1   
     4    1   14 1   
     5    2    3 1   
     6    2    4 1   
     7    2    5 1   
     8    3   15 1   
     9    3   16 1   
    10    3   17 1   
    11    4   18 1   
    12    4   19 1   
    13    4   20 1   
    14    5    6 1   
    15    5   21 1   
    16    5   22 1   
    17    6    7 1   
    18    6    8 1   
    19    6   23 1   
    20    7   24 1   
    21    8    9 1   
    22    8   25 1   
    23    8   26 1   
    24    9   10 1   
    25    9   11 1   
@<TRIPOS>SUBSTRUCTURE
     1 DCK         1 TEMP              0 ****  ****    0 ROOT
