@<TRIPOS>MOLECULE
DCK
   26    25     1     0     0
SMALL
bcc


@<TRIPOS>ATOM
      1 C01        -2.5360    0.6320    0.4440 c3        1 DCK      0.088433
      2 N02        -1.1020    0.6320    0.4440 n4        1 DCK     -0.589800
      3 C03        -0.6260    0.6320    1.7920 c3        1 DCK      0.088433
      4 C04        -0.6250    1.8000   -0.2290 c3        1 DCK      0.088433
      5 C05        -0.6190   -0.5500   -0.2390 c3        1 DCK      0.099800
      6 C06         0.9010   -0.5570   -0.2270 c3        1 DCK      0.177100
      7 O07         1.3540   -1.2920    0.8690 oh        1 DCK     -0.693800
      8 C08         1.4150   -1.1910   -1.5080 c3        1 DCK     -0.263400
      9 C09         2.8750   -1.5760   -1.3330 c         1 DCK      0.921600
     10 O10         3.7810   -0.7330   -1.5700 o         1 DCK     -0.809800
     11 O11         3.1810   -2.7580   -1.0230 o         1 DCK     -0.809800
     12 H01        -2.8620    0.6600   -0.4760 hx        1 DCK      0.096700
     13 H01A       -2.8620    1.4140    0.9290 hx        1 DCK      0.096700
     14 H01B       -2.8620   -0.1790    0.8800 hx        1 DCK      0.096700
     15 H03        -0.7240   -0.2620    2.1720 hx        1 DCK      0.096700
     16 H03A        0.3160    0.8890    1.8040 hx        1 DCK      0.096700
     17 H03B       -1.1430    1.2690    2.3200 hx        1 DCK      0.096700
     18 H04        -1.2270    2.5470   -0.0500 hx        1 DCK      0.096700
     19 H04A        0.2700    2.0180    0.0940 hx        1 DCK      0.096700
     20 H04B       -0.5920    1.6310   -1.1890 hx        1 DCK      0.096700
     21 H05        -0.9370   -0.5450   -1.1620 hx        1 DCK      0.089200
     22 H05A       -0.9520   -1.3480    0.2150 hx        1 DCK      0.089200
     23 H06         1.2300    0.3600   -0.1620 h1        1 DCK      0.050700
     24 HO07        2.1210   -0.9510    1.1570 ho        1 DCK      0.502000
     25 H08         1.3330   -0.5530   -2.2430 hc        1 DCK      0.050700
     26 H08A        0.8900   -1.9890   -1.7100 hc        1 DCK      0.050700
@<TRIPOS>BOND
     1    1    2 1   
     2    1   12 1   
     3    1   13 1   
     4    1   14 1   
     5    2    3 1   
     6    2    4 1   
     7    2    5 1   
     8    3   15 1   
     9    3   16 1   
    10    3   17 1   
    11    4   18 1   
    12    4   19 1   
    13    4   20 1   
    14    5    6 1   
    15    5   21 1   
    16    5   22 1   
    17    6    7 1   
    18    6    8 1   
    19    6   23 1   
    20    7   24 1   
    21    8    9 1   
    22    8   25 1   
    23    8   26 1   
    24    9   10 1   
    25    9   11 1   
@<TRIPOS>SUBSTRUCTURE
     1 DCK         1 TEMP              0 ****  ****    0 ROOT
