@<TRIPOS>MOLECULE
DCK
   26    25     1     0     0
SMALL
bcc


@<TRIPOS>ATOM
      1 C01         0.0230   -0.0080    0.2270 c3        1 DCK      0.088433
      2 N02         1.4990   -0.0320    0.0080 n4        1 DCK     -0.589800
      3 C03         2.1860   -0.2250    1.3200 c3        1 DCK      0.088433
      4 C04         1.8440   -1.1690   -0.8920 c3        1 DCK      0.088433
      5 C05         1.9620    1.2580   -0.6310 c3        1 DCK      0.099800
      6 C06         1.2440    2.5360   -0.1490 c3        1 DCK      0.177100
      7 O07         1.2390    2.5250    1.2650 oh        1 DCK     -0.693800
      8 C08         1.9650    3.7380   -0.7300 c3        1 DCK     -0.263400
      9 C09         1.1310    5.0150   -0.4400 c         1 DCK      0.921600
     10 O10         0.5590    5.0670    0.6910 o         1 DCK     -0.809800
     11 O11         1.0790    5.8890   -1.3340 o         1 DCK     -0.809800
     12 H01        -0.4880    0.2390   -0.7400 hx        1 DCK      0.096700
     13 H01A       -0.3130   -1.0110    0.5950 hx        1 DCK      0.096700
     14 H01B       -0.2200    0.7840    0.9920 hx        1 DCK      0.096700
     15 H03         3.2880   -0.3310    1.1470 hx        1 DCK      0.096700
     16 H03A        1.7870   -1.1490    1.8130 hx        1 DCK      0.096700
     17 H03B        1.9940    0.6740    1.9730 hx        1 DCK      0.096700
     18 H04         1.5900   -2.1370   -0.3880 hx        1 DCK      0.096700
     19 H04A        1.2610   -1.0810   -1.8470 hx        1 DCK      0.096700
     20 H04B        2.9420   -1.1400   -1.1200 hx        1 DCK      0.096700
     21 H05         1.7920    1.1710   -1.7410 hx        1 DCK      0.089200
     22 H05A        3.0640    1.3530   -0.4260 hx        1 DCK      0.089200
     23 H06         0.1760    2.5260   -0.5130 h1        1 DCK      0.050700
     24 HO07        1.0390    3.4430    1.5600 ho        1 DCK      0.502000
     25 H08         2.9650    3.8640   -0.2500 hc        1 DCK      0.050700
     26 H08A        2.0970    3.6250   -1.8320 hc        1 DCK      0.050700
@<TRIPOS>BOND
     1    1    2 1   
     2    1   12 1   
     3    1   13 1   
     4    1   14 1   
     5    2    3 1   
     6    2    4 1   
     7    2    5 1   
     8    3   15 1   
     9    3   16 1   
    10    3   17 1   
    11    4   18 1   
    12    4   19 1   
    13    4   20 1   
    14    5    6 1   
    15    5   21 1   
    16    5   22 1   
    17    6    7 1   
    18    6    8 1   
    19    6   23 1   
    20    7   24 1   
    21    8    9 1   
    22    8   25 1   
    23    8   26 1   
    24    9   10 1   
    25    9   11 1   
@<TRIPOS>SUBSTRUCTURE
     1 DCK         1 TEMP              0 ****  ****    0 ROOT
