@<TRIPOS>MOLECULE
DCK
   26    25     1     0     0
SMALL
bcc


@<TRIPOS>ATOM
      1 C01         0.0300   -0.0090    0.2570 c3        1 DCK      0.088433
      2 N02         1.5040   -0.0310    0.0240 n4        1 DCK     -0.589800
      3 C03         2.2050   -0.2070    1.3310 c3        1 DCK      0.088433
      4 C04         1.8430   -1.1770   -0.8670 c3        1 DCK      0.088433
      5 C05         1.9560    1.2520   -0.6350 c3        1 DCK      0.099800
      6 C06         1.2390    2.5340   -0.1610 c3        1 DCK      0.177100
      7 O07         1.2490    2.5400    1.2530 oh        1 DCK     -0.693800
      8 C08         1.9510    3.7310   -0.7620 c3        1 DCK     -0.263400
      9 C09         1.1160    5.0090   -0.4780 c         1 DCK      0.921600
     10 O10         0.5550    5.0730    0.6570 o         1 DCK     -0.809800
     11 O11         1.0530    5.8730   -1.3820 o         1 DCK     -0.809800
     12 H01        -0.2990   -1.0090    0.6400 hx        1 DCK      0.096700
     13 H01A       -0.4920    0.2250   -0.7080 hx        1 DCK      0.096700
     14 H01B       -0.2070    0.7910    1.0150 hx        1 DCK      0.096700
     15 H03         3.3050   -0.3120    1.1480 hx        1 DCK      0.096700
     16 H03A        2.0170    0.6990    1.9750 hx        1 DCK      0.096700
     17 H03B        1.8130   -1.1270    1.8380 hx        1 DCK      0.096700
     18 H04         2.9390   -1.1470   -1.1070 hx        1 DCK      0.096700
     19 H04A        1.5970   -2.1410   -0.3490 hx        1 DCK      0.096700
     20 H04B        1.2500   -1.1010   -1.8170 hx        1 DCK      0.096700
     21 H05         3.0600    1.3530   -0.4420 hx        1 DCK      0.089200
     22 H05A        1.7760    1.1530   -1.7420 hx        1 DCK      0.089200
     23 H06         0.1680    2.5170   -0.5140 h1        1 DCK      0.050700
     24 HO07        1.0490    3.4600    1.5400 ho        1 DCK      0.502000
     25 H08         2.0720    3.6060   -1.8640 hc        1 DCK      0.050700
     26 H08A        2.9550    3.8660   -0.2940 hc        1 DCK      0.050700
@<TRIPOS>BOND
     1    1    2 1   
     2    1   12 1   
     3    1   13 1   
     4    1   14 1   
     5    2    3 1   
     6    2    4 1   
     7    2    5 1   
     8    3   15 1   
     9    3   16 1   
    10    3   17 1   
    11    4   18 1   
    12    4   19 1   
    13    4   20 1   
    14    5    6 1   
    15    5   21 1   
    16    5   22 1   
    17    6    7 1   
    18    6    8 1   
    19    6   23 1   
    20    7   24 1   
    21    8    9 1   
    22    8   25 1   
    23    8   26 1   
    24    9   10 1   
    25    9   11 1   
@<TRIPOS>SUBSTRUCTURE
     1 DCK         1 TEMP              0 ****  ****    0 ROOT
