@<TRIPOS>MOLECULE
DCK
   26    25     1     0     0
SMALL
bcc


@<TRIPOS>ATOM
      1 C01        -2.1450    0.3630   -1.4720 c3        1 DCK      0.088433
      2 N02        -2.3080   -0.1090   -0.0670 n4        1 DCK     -0.589800
      3 C03        -2.6360    1.0560    0.8080 c3        1 DCK      0.088433
      4 C04        -3.4260   -1.0930   -0.0050 c3        1 DCK      0.088433
      5 C05        -1.0410   -0.7780    0.4190 c3        1 DCK      0.099800
      6 C06         0.2780   -0.1370   -0.0640 c3        1 DCK      0.177100
      7 O07         0.1960    1.2550    0.1710 oh        1 DCK     -0.693800
      8 C08         1.4280   -0.7940    0.6740 c3        1 DCK     -0.263400
      9 C09         2.7670   -0.3220    0.0460 c         1 DCK      0.921600
     10 O10         2.8200    0.8910   -0.3170 o         1 DCK     -0.809800
     11 O11         3.6860   -1.1650   -0.0620 o         1 DCK     -0.809800
     12 H01        -1.3720    1.1840   -1.4940 hx        1 DCK      0.096700
     13 H01A       -1.7990   -0.4910   -2.1110 hx        1 DCK      0.096700
     14 H01B       -3.1270    0.7510   -1.8480 hx        1 DCK      0.096700
     15 H03        -3.5380    1.5800    0.4000 hx        1 DCK      0.096700
     16 H03A       -2.8440    0.6900    1.8470 hx        1 DCK      0.096700
     17 H03B       -1.7560    1.7610    0.8290 hx        1 DCK      0.096700
     18 H04        -3.2310   -1.9280   -0.7280 hx        1 DCK      0.096700
     19 H04A       -3.4970   -1.5070    1.0350 hx        1 DCK      0.096700
     20 H04B       -4.3890   -0.5830   -0.2730 hx        1 DCK      0.096700
     21 H05        -1.0680   -0.7640    1.5440 hx        1 DCK      0.089200
     22 H05A       -1.0540   -1.8430    0.0550 hx        1 DCK      0.089200
     23 H06         0.3950   -0.3090   -1.1730 h1        1 DCK      0.050700
     24 HO07        1.1130    1.6110    0.1240 ho        1 DCK      0.502000
     25 H08         1.4280   -0.4920    1.7490 hc        1 DCK      0.050700
     26 H08A        1.3580   -1.9060    0.6040 hc        1 DCK      0.050700
@<TRIPOS>BOND
     1    1    2 1   
     2    1   12 1   
     3    1   13 1   
     4    1   14 1   
     5    2    3 1   
     6    2    4 1   
     7    2    5 1   
     8    3   15 1   
     9    3   16 1   
    10    3   17 1   
    11    4   18 1   
    12    4   19 1   
    13    4   20 1   
    14    5    6 1   
    15    5   21 1   
    16    5   22 1   
    17    6    7 1   
    18    6    8 1   
    19    6   23 1   
    20    7   24 1   
    21    8    9 1   
    22    8   25 1   
    23    8   26 1   
    24    9   10 1   
    25    9   11 1   
@<TRIPOS>SUBSTRUCTURE
     1 DCK         1 TEMP              0 ****  ****    0 ROOT
