@<TRIPOS>MOLECULE
DCL
   23    22     1     0     0
SMALL
bcc


@<TRIPOS>ATOM
      1 N          -1.8060   -0.6690    0.8490 n3        1 DCL     -0.894800
      2 CA         -0.3830   -0.6690    0.8490 c3        1 DCL      0.165500
      3 C           0.1210   -0.6690    2.2740 c3        1 DCL      0.084400
      4 CB          0.1210    0.5650    0.1370 c3        1 DCL     -0.069400
      5 CG          0.2040    0.2910   -1.3490 c3        1 DCL     -0.067700
      6 CD1        -0.5590    1.3590   -2.1020 c3        1 DCL     -0.090100
      7 CD2         1.6530    0.3040   -1.7840 c3        1 DCL     -0.090100
      8 OXT        -0.1770   -1.9080    2.8780 oh        1 DCL     -0.607800
      9 HN1        -2.1100   -0.3600    1.6510 hn        1 DCL      0.351800
     10 HN2        -2.1100   -1.5180    0.7150 hn        1 DCL      0.351800
     11 HA         -0.0580   -1.4660    0.3890 h1        1 DCL      0.071700
     12 HC1        -0.3140    0.0490    2.7730 h1        1 DCL      0.024700
     13 HC2         1.0870   -0.5290    2.2780 h1        1 DCL      0.024700
     14 HB1         1.0060    0.7970    0.4750 hc        1 DCL      0.039200
     15 HB2        -0.4930    1.3070    0.2970 hc        1 DCL      0.039200
     16 HG         -0.1860   -0.5830   -1.5410 hc        1 DCL      0.071700
     17 HD11       -1.5100    1.2870   -1.8950 hc        1 DCL      0.032033
     18 HD12       -0.4250    1.2380   -3.0620 hc        1 DCL      0.032033
     19 HD13       -0.2330    2.2400   -1.8360 hc        1 DCL      0.032033
     20 HD21        1.7080    0.1050   -2.7380 hc        1 DCL      0.032033
     21 HD22        2.1490   -0.3690   -1.2810 hc        1 DCL      0.032033
     22 HD23        2.0360    1.1860   -1.6130 hc        1 DCL      0.032033
     23 HXT         0.2790   -1.9860    3.6350 ho        1 DCL      0.403000
@<TRIPOS>BOND
     1    1    2 1   
     2    1    9 1   
     3    1   10 1   
     4    2    3 1   
     5    2    4 1   
     6    2   11 1   
     7    3    8 1   
     8    3   12 1   
     9    3   13 1   
    10    4    5 1   
    11    4   14 1   
    12    4   15 1   
    13    5    6 1   
    14    5    7 1   
    15    5   16 1   
    16    6   17 1   
    17    6   18 1   
    18    6   19 1   
    19    7   20 1   
    20    7   21 1   
    21    7   22 1   
    22    8   23 1   
@<TRIPOS>SUBSTRUCTURE
     1 DCL         1 TEMP              0 ****  ****    0 ROOT
