@<TRIPOS>MOLECULE
DCL
   23    22     1     0     0
SMALL
bcc


@<TRIPOS>ATOM
      1 N           1.0620    0.3420    1.3670 n3        1 DCL     -0.909800
      2 CA          0.8030   -0.0720    0.0020 c3        1 DCL      0.118500
      3 C           1.9550    0.3540   -0.9360 c3        1 DCL      0.140400
      4 CB         -0.5090    0.4320   -0.6150 c3        1 DCL     -0.112400
      5 CG         -1.7490    0.0830    0.1930 c3        1 DCL     -0.067700
      6 CD1        -2.9760    0.6560   -0.4880 c3        1 DCL     -0.092100
      7 CD2        -1.9020   -1.4130    0.3720 c3        1 DCL     -0.092100
      8 OXT         3.1350   -0.3780   -0.6890 oh        1 DCL     -0.601800
      9 HN1         1.0140    1.3390    1.4500 hn        1 DCL      0.349300
     10 HN2         0.3870   -0.0660    1.9850 hn        1 DCL      0.349300
     11 HA          0.7810   -1.2040    0.0050 h1        1 DCL      0.072700
     12 HC1         1.6860    0.1070   -1.9980 h1        1 DCL      0.042200
     13 HC2         2.1540    1.4550   -0.8480 h1        1 DCL      0.042200
     14 HB1        -0.4570    1.5460   -0.7360 hc        1 DCL      0.046200
     15 HB2        -0.6070   -0.0130   -1.6400 hc        1 DCL      0.046200
     16 HG         -1.6680    0.5570    1.2130 hc        1 DCL      0.038700
     17 HD11       -3.1120    0.2000   -1.4980 hc        1 DCL      0.036033
     18 HD12       -3.8890    0.4480    0.1200 hc        1 DCL      0.036033
     19 HD13       -2.8750    1.7620   -0.6100 hc        1 DCL      0.036033
     20 HD21       -1.0800   -1.8200    1.0090 hc        1 DCL      0.036033
     21 HD22       -2.8770   -1.6440    0.8670 hc        1 DCL      0.036033
     22 HD23       -1.8760   -1.9310   -0.6160 hc        1 DCL      0.036033
     23 HXT         3.3580   -0.2700    0.2440 ho        1 DCL      0.414000
@<TRIPOS>BOND
     1    1    2 1   
     2    1    9 1   
     3    1   10 1   
     4    2    3 1   
     5    2    4 1   
     6    2   11 1   
     7    3    8 1   
     8    3   12 1   
     9    3   13 1   
    10    4    5 1   
    11    4   14 1   
    12    4   15 1   
    13    5    6 1   
    14    5    7 1   
    15    5   16 1   
    16    6   17 1   
    17    6   18 1   
    18    6   19 1   
    19    7   20 1   
    20    7   21 1   
    21    7   22 1   
    22    8   23 1   
@<TRIPOS>SUBSTRUCTURE
     1 DCL         1 TEMP              0 ****  ****    0 ROOT
