@<TRIPOS>MOLECULE
DCM
   33    34     1     0     0
SMALL
bcc


@<TRIPOS>ATOM
      1 N1          0.0000    0.0000    0.0000 n         1 DCM      0.051000
      2 C2          1.3440    0.0000    0.0000 c         1 DCM      0.721900
      3 N3          2.0320    0.0000    1.1410 nc        1 DCM     -0.660100
      4 C4          1.4050    0.0000    2.3090 cd        1 DCM     -0.001500
      5 C5         -0.0040   -0.0040    2.3430 cd        1 DCM     -0.302600
      6 C6         -0.6880    0.0010    1.1760 cc        1 DCM     -0.140400
      7 O2          1.9450   -0.0010   -1.0620 o         1 DCM     -0.689500
      8 N4          2.1260   -0.0010    3.4820 nz        1 DCM      0.293400
      9 C1'        -0.7280   -0.0000   -1.2710 c3        1 DCM      0.229500
     10 C2'        -0.3550    1.2510   -2.0900 c3        1 DCM     -0.107400
     11 C3'         0.2130    0.6820   -3.4110 c3        1 DCM      0.154100
     12 C4'        -0.3860   -0.7460   -3.4350 c3        1 DCM      0.166100
     13 O4'        -0.3550   -1.1500   -2.0480 os        1 DCM     -0.360600
     14 O3'        -0.2420    1.4450   -4.5310 oh        1 DCM     -0.586800
     15 C5'         0.4750   -1.6790   -4.2900 c3        1 DCM      0.234400
     16 O5'        -0.0990   -2.9860   -4.2950 os        1 DCM     -0.447200
     17 P           0.8530   -3.9080   -5.2090 p5        1 DCM      0.794900
     18 O1P         0.2630   -5.4060   -5.2580 o         1 DCM     -0.525167
     19 O2P         0.9140   -3.3060   -6.7000 o         1 DCM     -0.525167
     20 O3P         2.2150   -3.9350   -4.6310 o         1 DCM     -0.525167
     21 H5         -0.5230   -0.1950    3.2750 ha        1 DCM      0.095000
     22 H6         -1.7720   -0.0010    1.1760 h4        1 DCM      0.119000
     23 HN41        3.0980    0.1110    3.2760 hn        1 DCM      0.151133
     24 HN42        1.9830   -0.8680    3.9600 hn        1 DCM      0.151133
     25 H1'        -1.7960   -0.0130   -1.0880 h2        1 DCM      0.010700
     26 H2'1        0.4010    1.8290   -1.5720 hc        1 DCM      0.028700
     27 H2'2       -1.2350    1.8520   -2.2840 hc        1 DCM      0.028700
     28 H3'         1.2950    0.6430   -3.3780 h1        1 DCM      0.050700
     29 H4'        -1.4060   -0.7220   -3.7990 h1        1 DCM      0.020700
     30 HO3'        0.4320    2.0480   -4.7960 ho        1 DCM      0.382000
     31 H5'1        0.5190   -1.3000   -5.3040 h1        1 DCM      0.017700
     32 H5'2        1.4760   -1.7250   -3.8780 h1        1 DCM      0.017700
     33 H43         1.8190    0.7550    4.0620 hn        1 DCM      0.151133
@<TRIPOS>BOND
     1    1    2 1   
     2    1    6 1   
     3    1    9 1   
     4    2    3 1   
     5    2    7 2   
     6    3    4 2   
     7    4    5 1   
     8    4    8 1   
     9    5    6 2   
    10    5   21 1   
    11    6   22 1   
    12    8   23 1   
    13    8   24 1   
    14    8   33 1   
    15    9   10 1   
    16    9   13 1   
    17    9   25 1   
    18   10   11 1   
    19   10   26 1   
    20   10   27 1   
    21   11   12 1   
    22   11   14 1   
    23   11   28 1   
    24   12   13 1   
    25   12   15 1   
    26   12   29 1   
    27   14   30 1   
    28   15   16 1   
    29   15   31 1   
    30   15   32 1   
    31   16   17 1   
    32   17   18 1   
    33   17   19 1   
    34   17   20 1   
@<TRIPOS>SUBSTRUCTURE
     1 DCM         1 TEMP              0 ****  ****    0 ROOT
