@<TRIPOS>MOLECULE
DCM
   32    33     1     0     0
SMALL
bcc


@<TRIPOS>ATOM
      1 N1         -0.7950   -0.2220    2.6380 n         1 DCM     -0.368000
      2 C2         -1.0770   -0.0030    4.0300 c         1 DCM      0.823900
      3 N3         -0.0570    0.4010    4.9080 nc        1 DCM     -0.750100
      4 C4          1.1920    0.5320    4.4250 cd        1 DCM      0.714500
      5 C5          1.5110    0.3040    3.0320 cd        1 DCM     -0.463600
      6 C6          0.4840   -0.0710    2.1890 cc        1 DCM      0.103600
      7 O2         -2.2500   -0.1650    4.4410 o         1 DCM     -0.666500
      8 N4          2.2420    0.8520    5.2990 nh        1 DCM     -0.897800
      9 C1'        -1.8810   -0.6210    1.7170 c3        1 DCM      0.293500
     10 C2'        -2.4350    0.5460    0.8760 c3        1 DCM     -0.129400
     11 C3'        -1.8270    0.3490   -0.5210 c3        1 DCM      0.153100
     12 C4'        -1.3400   -1.1140   -0.5400 c3        1 DCM      0.050100
     13 O4'        -1.4090   -1.6190    0.8210 os        1 DCM     -0.441600
     14 O3'        -2.8260    0.5710   -1.4870 oh        1 DCM     -0.668800
     15 C5'         0.0960   -1.2960   -1.0850 c3        1 DCM      0.224400
     16 O5'         0.0840   -1.5090   -2.4340 os        1 DCM     -0.553200
     17 P           0.6120   -0.1220   -3.3590 p5        1 DCM      1.329900
     18 O1P         1.8960    0.2240   -2.6590 o         1 DCM     -0.929500
     19 O2P         0.6850   -0.6350   -4.7620 o         1 DCM     -0.929500
     20 O3P        -0.5400    0.8010   -3.0150 o         1 DCM     -0.929500
     21 H5          2.5290    0.4120    2.6470 ha        1 DCM      0.158000
     22 H6          0.6600   -0.2670    1.1030 h4        1 DCM      0.224000
     23 HN41        1.9800    1.2350    6.1790 hn        1 DCM      0.396800
     24 HN42        2.9990    1.3210    4.8560 hn        1 DCM      0.396800
     25 H1'        -2.6730   -1.1070    2.3590 h2        1 DCM      0.087700
     26 H2'1       -3.5490    0.4610    0.8290 hc        1 DCM      0.053200
     27 H2'2       -2.1780    1.5460    1.2930 hc        1 DCM      0.053200
     28 H3'        -0.9680    1.0550   -0.6970 h1        1 DCM      0.098700
     29 H4'        -2.0480   -1.7540   -1.1320 h1        1 DCM      0.074700
     30 HO3'       -2.3410    0.6820   -2.3390 ho        1 DCM      0.500000
     31 H5'1        0.7210   -0.3900   -0.8310 h1        1 DCM     -0.003800
     32 H5'2        0.5300   -2.1980   -0.5570 h1        1 DCM     -0.003800
@<TRIPOS>BOND
     1    1    2 1   
     2    1    6 1   
     3    1    9 1   
     4    2    3 1   
     5    2    7 2   
     6    3    4 2   
     7    4    5 1   
     8    4    8 1   
     9    5    6 2   
    10    5   21 1   
    11    6   22 1   
    12    8   23 1   
    13    8   24 1   
    14    9   10 1   
    15    9   13 1   
    16    9   25 1   
    17   10   11 1   
    18   10   26 1   
    19   10   27 1   
    20   11   12 1   
    21   11   14 1   
    22   11   28 1   
    23   12   13 1   
    24   12   15 1   
    25   12   29 1   
    26   14   30 1   
    27   15   16 1   
    28   15   31 1   
    29   15   32 1   
    30   16   17 1   
    31   17   18 1   
    32   17   19 1   
    33   17   20 1   
@<TRIPOS>SUBSTRUCTURE
     1 DCM         1 TEMP              0 ****  ****    0 ROOT
