@<TRIPOS>MOLECULE
DCM
   32    32     1     0     0
SMALL
bcc


@<TRIPOS>ATOM
      1 N1          0.1790    1.4020    0.2230 n         1 DCM     -0.263000
      2 C2         -0.4970    1.2960    1.5150 c2        1 DCM      0.339000
      3 N3          0.2680    1.4160    2.7500 n2        1 DCM     -0.337000
      4 C4          1.6900    1.5520    2.7010 c1        1 DCM      0.176000
      5 C5          2.3700    1.6610    1.4030 c1        1 DCM     -0.371000
      6 C6          1.6030    1.5160    0.1680 c2        1 DCM      0.086000
      7 O2         -1.7180    1.1800    1.5590 o         1 DCM     -0.418000
      8 N4          2.4250    1.7340    3.9010 n3        1 DCM     -0.332000
      9 C1'        -0.6040    1.5080   -0.9940 c3        1 DCM      0.143000
     10 C2'         0.1710    0.8730   -2.2030 c3        1 DCM     -0.197000
     11 C3'        -0.5450   -0.4300   -2.5050 c3        1 DCM     -0.005000
     12 C4'        -1.3530   -0.6230   -1.4730 c3        1 DCM     -0.049000
     13 O4'        -1.6830    0.8220   -0.8890 os        1 DCM     -0.298000
     14 O3'        -1.3400   -0.3020   -3.7660 oh        1 DCM     -0.383000
     15 C5'        -0.6640   -1.4720   -0.4180 c3        1 DCM      0.073000
     16 O5'        -1.6470   -1.9760    0.5110 os        1 DCM     -0.731000
     17 P          -1.6150   -3.5400    0.8890 p5        1 DCM      1.571500
     18 O1P        -0.1840   -4.0280    0.8980 o         1 DCM     -0.926167
     19 O2P        -2.4050   -4.3200   -0.1350 o         1 DCM     -0.926167
     20 O3P        -2.2240   -3.7410    2.2600 o         1 DCM     -0.926167
     21 H5          3.3330    1.9400    1.3640 ha        1 DCM      0.171000
     22 H6          2.0560    1.5880   -0.7000 h4        1 DCM      0.303000
     23 HN41        2.0060    1.6980    4.6950 hn        1 DCM      0.183000
     24 HN42        3.3270    1.9190    3.8650 hn        1 DCM      0.183000
     25 H1'        -0.8150    2.4470   -1.1820 h2        1 DCM      0.131000
     26 H2'1        1.1030    0.6980   -1.9540 hc        1 DCM      0.089500
     27 H2'2        0.1330    1.4670   -2.9790 hc        1 DCM      0.089500
     28 H3'         0.0880   -1.1550   -2.5770 h1        1 DCM      0.188000
     29 H4'        -2.1950   -1.0710   -1.7770 h1        1 DCM      0.086000
     30 HO3'       -1.0540   -0.9120   -4.3660 ho        1 DCM      0.277000
     31 H5'1       -0.2070   -2.2290   -0.8530 h1        1 DCM      0.035000
     32 H5'2       -0.0020   -0.9220    0.0690 h1        1 DCM      0.035000
@<TRIPOS>BOND
     1    1    2 1   
     2    1    6 1   
     3    1    9 1   
     4    2    3 1   
     5    2    7 1   
     6    3    4 1   
     7    4    8 1   
     8    5    6 1   
     9    5   21 1   
    10    6   22 1   
    11    8   23 1   
    12    8   24 1   
    13    9   10 1   
    14    9   13 1   
    15    9   25 1   
    16   10   11 1   
    17   10   26 1   
    18   10   27 1   
    19   11   12 1   
    20   11   14 1   
    21   11   28 1   
    22   12   13 1   
    23   12   15 1   
    24   12   29 1   
    25   14   30 1   
    26   15   16 1   
    27   15   31 1   
    28   15   32 1   
    29   16   17 1   
    30   17   18 1   
    31   17   19 1   
    32   17   20 1   
@<TRIPOS>SUBSTRUCTURE
     1 DCM         1 TEMP              0 ****  ****    0 ROOT
