@<TRIPOS>MOLECULE
DCN
   24    25     1     0     0
SMALL
bcc


@<TRIPOS>ATOM
      1 C1          0.6820   -0.5930    3.3530 ca        1 DCN     -0.149000
      2 C2         -0.7040   -0.5080    3.4930 ca        1 DCN      0.045400
      3 C6          1.2720   -0.1220    2.1690 ca        1 DCN      0.141100
      4 C5          0.4640    0.4280    1.1540 ca        1 DCN     -0.000900
      5 C4         -0.9220    0.5110    1.3130 ca        1 DCN     -0.101000
      6 C3         -1.5080    0.0400    2.4840 ca        1 DCN     -0.150000
      7 C11         0.2860   -0.3560   -3.7810 ca        1 DCN     -0.007600
      8 C10         0.9190    0.8740   -3.5670 ca        1 DCN     -0.096500
      9 C9          1.1680    1.3100   -2.2700 ca        1 DCN     -0.156500
     10 C8          0.7820    0.4970   -1.1910 ca        1 DCN      0.106100
     11 C12        -0.0980   -1.1580   -2.7030 ca        1 DCN     -0.096500
     12 C13         0.1500   -0.7330   -1.3990 ca        1 DCN     -0.156500
     13 O7          1.1260    0.9920    0.0640 os        1 DCN     -0.257200
     14 CL14       -1.4290   -1.0800    4.9180 cl        1 DCN     -0.081400
     15 O17         2.6360   -0.2120    2.0710 oh        1 DCN     -0.485100
     16 H1          1.3190   -1.0180    4.1420 ha        1 DCN      0.170000
     17 H4         -1.5380    0.9450    0.5110 ha        1 DCN      0.155000
     18 H3         -2.5980    0.1020    2.6160 ha        1 DCN      0.154000
     19 H10         1.2180    1.5010   -4.4210 ha        1 DCN      0.152500
     20 H9          1.6630    2.2730   -2.0800 ha        1 DCN      0.155000
     21 H12        -0.5940   -2.1260   -2.8760 ha        1 DCN      0.152500
     22 H13        -0.1510   -1.3560   -0.5440 ha        1 DCN      0.155000
     23 H17         2.8990    0.1540    1.2100 ho        1 DCN      0.440000
     24 CL15       -0.0170   -0.8790   -5.3690 cl        1 DCN     -0.089400
@<TRIPOS>BOND
     1    1    2 ar  
     2    1    3 ar  
     3    1   16 1   
     4    2    6 ar  
     5    2   14 1   
     6    3    4 ar  
     7    3   15 1   
     8    4    5 ar  
     9    4   13 1   
    10    5    6 ar  
    11    5   17 1   
    12    6   18 1   
    13    7    8 ar  
    14    7   11 ar  
    15    7   24 1   
    16    8    9 ar  
    17    8   19 1   
    18    9   10 ar  
    19    9   20 1   
    20   10   12 ar  
    21   10   13 1   
    22   11   12 ar  
    23   11   21 1   
    24   12   22 1   
    25   15   23 1   
@<TRIPOS>SUBSTRUCTURE
     1 DCN         1 TEMP              0 ****  ****    0 ROOT
