@<TRIPOS>MOLECULE
DCN
   24    19     1     0     0
SMALL
bcc


@<TRIPOS>ATOM
      1 C1         -0.0160    1.2910   -2.9480 c1        1 DCN     -0.152500
      2 C2          1.3580    1.1150   -2.9870 c1        1 DCN      0.032400
      3 C6         -0.6740    1.3430   -1.7290 c1        1 DCN      0.120600
      4 C5          0.0420    1.2190   -0.5490 c1        1 DCN      0.071600
      5 C4          1.4170    1.0420   -0.5880 c1        1 DCN     -0.059000
      6 C3          2.0740    0.9900   -1.8070 c1        1 DCN     -0.067500
      7 C11        -0.4920   -2.3430    2.7100 c1        1 DCN      0.032400
      8 C10         0.3740   -1.3220    3.0680 c1        1 DCN     -0.067500
      9 C9          0.3440   -0.1170    2.3840 c1        1 DCN     -0.059000
     10 C8         -0.5520    0.0670    1.3430 c1        1 DCN      0.071600
     11 C12        -1.3870   -2.1590    1.6680 c1        1 DCN     -0.079000
     12 C13        -1.4180   -0.9540    0.9850 c1        1 DCN     -0.079000
     13 O7         -0.6190    1.3070    0.6860 os        1 DCN     -0.199200
     14 CL14        2.1900    1.0840   -4.5190 cl        1 DCN     -0.100400
     15 CL15       -0.4770   -3.8480    3.5900 cl        1 DCN     -0.100400
     16 O17        -2.0660    1.5460   -1.6890 oh        1 DCN     -0.455600
     17 H1         -0.5210    1.3780   -3.7790 ha        1 DCN      0.096500
     18 H4          1.9210    0.9550    0.2430 ha        1 DCN      0.099500
     19 H3          3.0420    0.8660   -1.8340 ha        1 DCN      0.095000
     20 H10         1.0050   -1.4520    3.8010 ha        1 DCN      0.095000
     21 H9          0.9530    0.6030    2.6370 ha        1 DCN      0.099500
     22 H12        -1.9970   -2.8790    1.4160 ha        1 DCN      0.090500
     23 H13        -2.0490   -0.8250    0.2510 ha        1 DCN      0.090500
     24 H17        -2.4510    1.0920   -2.3500 ho        1 DCN      0.424000
@<TRIPOS>BOND
     1    1    3 3   
     2    1   17 1   
     3    2    6 3   
     4    2   14 1   
     5    3   16 1   
     6    4    5 3   
     7    4   13 1   
     8    5   18 1   
     9    6   19 1   
    10    7    8 3   
    11    7   15 1   
    12    8   20 1   
    13    9   10 3   
    14    9   21 1   
    15   10   13 1   
    16   11   12 3   
    17   11   22 1   
    18   12   23 1   
    19   16   24 1   
@<TRIPOS>SUBSTRUCTURE
     1 DCN         1 TEMP              0 ****  ****    0 ROOT
