@<TRIPOS>MOLECULE
DCN
   24    24     1     0     0
SMALL
bcc


@<TRIPOS>ATOM
      1 C1         -0.4250    0.7600    0.1110 c1        1 DCN     -0.180000
      2 C2          0.9190    0.9370   -0.0620 c2        1 DCN     -0.263000
      3 C6         -0.9450   -0.3140    0.9870 c3        1 DCN      0.052000
      4 C5          0.0810   -0.6140    2.0650 c2        1 DCN      0.181000
      5 C4          1.4930   -0.7620    1.6330 c3        1 DCN     -0.221000
      6 C3          1.9090    0.2070    0.5990 c1        1 DCN     -0.075000
      7 C11         1.8910    0.0320    6.7700 c2        1 DCN     -0.109000
      8 C10         2.2720    0.8360    5.5660 c3        1 DCN     -0.201000
      9 C9          1.4860    0.5410    4.3830 c1        1 DCN     -0.020000
     10 C8          0.5340   -0.5100    4.4010 c2        1 DCN     -0.368000
     11 C12         2.0860   -1.3020    6.8400 c2        1 DCN     -0.197000
     12 C13         0.3260   -1.3970    5.4070 c1        1 DCN      0.335000
     13 O7         -0.3680   -0.5240    3.2990 os        1 DCN     -0.022000
     14 CL14        1.4410    2.1100   -1.1910 cl        1 DCN     -0.011000
     15 O17        -2.2040   -0.0500    1.5540 oh        1 DCN     -0.307000
     16 H1         -1.0630   -1.2560    0.3620 h1        1 DCN      0.162000
     17 H4          2.2020   -0.6710    2.5020 hc        1 DCN      0.156500
     18 H3          1.6290   -1.7880    1.1790 hc        1 DCN      0.156500
     19 H10         3.3620    0.6760    5.3090 hc        1 DCN      0.180000
     20 H9          2.1650    1.9470    5.7590 hc        1 DCN      0.180000
     21 H12         2.6680   -1.8440    6.0780 ha        1 DCN      0.152000
     22 H13         1.7660   -1.9050    7.7020 ha        1 DCN      0.152000
     23 H17        -2.3890    0.8930    1.4260 ho        1 DCN      0.241000
     24 CL15        1.1630    0.8800    8.0430 cl        1 DCN      0.027000
@<TRIPOS>BOND
     1    1    2 1   
     2    1    3 1   
     3    2    6 1   
     4    2   14 1   
     5    3    4 1   
     6    3   15 1   
     7    3   16 1   
     8    4    5 1   
     9    4   13 1   
    10    5    6 1   
    11    5   17 1   
    12    5   18 1   
    13    7    8 1   
    14    7   11 1   
    15    7   24 1   
    16    8    9 1   
    17    8   19 1   
    18    8   20 1   
    19    9   10 1   
    20   10   12 1   
    21   10   13 1   
    22   11   21 1   
    23   11   22 1   
    24   15   23 1   
@<TRIPOS>SUBSTRUCTURE
     1 DCN         1 TEMP              0 ****  ****    0 ROOT
