@<TRIPOS>MOLECULE
DCO
   14    12     1     0     0
SMALL
bcc


@<TRIPOS>ATOM
      1 O1         -2.2910    0.8180    1.5200 o         1 DCO     -0.627500
      2 C1         -1.8550   -0.3440    1.2480 c2        1 DCO      0.368000
      3 O2         -2.6040   -1.3620    1.4100 o         1 DCO     -0.627500
      4 C2         -0.4340   -0.5490    0.7260 c2        1 DCO      0.133000
      5 C3         -0.2410   -0.6950   -0.6350 c2        1 DCO     -0.654000
      6 P1          0.3800    0.4460   -2.7960 p3        1 DCO      2.502000
      7 O3          1.4100   -0.5560   -3.1760 o         1 DCO     -1.179667
      8 O4         -0.9450    0.3050   -3.4520 o         1 DCO     -1.179667
      9 O5          0.8550    1.8140   -2.4830 o         1 DCO     -1.179667
     10 C4          0.5720   -0.6610    1.6720 c2        1 DCO     -0.402000
     11 CL1         2.2340   -0.9410    1.2990 cl        1 DCO     -0.176000
     12 CL2         0.3400   -0.4500    3.3710 cl        1 DCO     -0.176000
     13 H31         0.7130   -1.0870   -1.0050 ha        1 DCO      0.099500
     14 H32        -1.1190   -0.7770   -1.2840 ha        1 DCO      0.099500
@<TRIPOS>BOND
     1    1    2 1   
     2    2    3 1   
     3    2    4 1   
     4    4    5 1   
     5    4   10 1   
     6    5   13 1   
     7    5   14 1   
     8    6    7 1   
     9    6    8 1   
    10    6    9 1   
    11   10   11 1   
    12   10   12 1   
@<TRIPOS>SUBSTRUCTURE
     1 DCO         1 TEMP              0 ****  ****    0 ROOT
