@<TRIPOS>MOLECULE
DCO
   14    11     1     0     0
SMALL
bcc


@<TRIPOS>ATOM
      1 O1         -0.5620   -0.6030    2.5030 o         1 DCO     -0.616000
      2 C1         -1.2100   -0.6420    1.4250 c1        1 DCO      0.368000
      3 O2         -2.4680   -0.6940    1.4480 os        1 DCO     -0.639000
      4 C2         -0.4780   -0.6280    0.1010 c2        1 DCO      0.133000
      5 C3         -0.4260    0.6410   -0.7210 c3        1 DCO     -0.654000
      6 P1          1.0890    1.5590   -0.3200 p5        1 DCO      1.543500
      7 O3          2.1050    0.6170    0.2780 o         1 DCO     -0.860167
      8 O4          0.7680    2.6500    0.6740 o         1 DCO     -0.860167
      9 O5          1.6530    2.1750   -1.5780 o         1 DCO     -0.860167
     10 C4          0.1270   -1.7460   -0.3470 c1        1 DCO     -0.402000
     11 CL1         0.0660   -3.2090    0.6000 cl        1 DCO     -0.177000
     12 CL2         0.9700   -1.7290   -1.8730 cl        1 DCO     -0.175000
     13 H31        -0.4270    0.4140   -1.6720 hc        1 DCO      0.099500
     14 H32        -1.2060    1.1950   -0.5170 hc        1 DCO      0.099500
@<TRIPOS>BOND
     1    1    2 1   
     2    2    4 1   
     3    4    5 1   
     4    4   10 1   
     5    5    6 1   
     6    5   13 1   
     7    5   14 1   
     8    6    7 1   
     9    6    8 1   
    10    6    9 1   
    11   10   12 1   
@<TRIPOS>SUBSTRUCTURE
     1 DCO         1 TEMP              0 ****  ****    0 ROOT
