@<TRIPOS>MOLECULE
DCO
   14    12     1     0     0
SMALL
bcc


@<TRIPOS>ATOM
      1 O1          0.0310   -0.6790    0.2770 o         1 DCO     -0.627500
      2 C1          0.8640    0.2390   -0.0020 c2        1 DCO      0.368000
      3 O2          0.9580    1.2660    0.7480 o         1 DCO     -0.627500
      4 C2          1.7630    0.1390   -1.2330 c2        1 DCO      0.133000
      5 C3          3.0610   -0.3090   -1.0720 c2        1 DCO     -0.654000
      6 P1          4.6280   -2.2790   -1.2100 p3        1 DCO      2.502000
      7 O3          5.6370   -1.5790   -2.0480 o         1 DCO     -1.179667
      8 O4          4.9250   -2.3650    0.2410 o         1 DCO     -1.179667
      9 O5          3.9030   -3.4100   -1.8370 o         1 DCO     -1.179667
     10 C4          1.2370    0.5910   -2.4330 c2        1 DCO     -0.402000
     11 CL1         2.0990    0.6100   -3.9280 cl        1 DCO     -0.176000
     12 CL2        -0.3920    1.1240   -2.6430 cl        1 DCO     -0.176000
     13 H31         3.7880   -0.1530   -1.8770 ha        1 DCO      0.099500
     14 H32         3.4410   -0.4660   -0.0580 ha        1 DCO      0.099500
@<TRIPOS>BOND
     1    1    2 1   
     2    2    3 1   
     3    2    4 1   
     4    4    5 1   
     5    4   10 1   
     6    5   13 1   
     7    5   14 1   
     8    6    7 1   
     9    6    8 1   
    10    6    9 1   
    11   10   11 1   
    12   10   12 1   
@<TRIPOS>SUBSTRUCTURE
     1 DCO         1 TEMP              0 ****  ****    0 ROOT
