@<TRIPOS>MOLECULE
DCO
   14    12     1     0     0
SMALL
bcc


@<TRIPOS>ATOM
      1 O1          0.0380   -0.6120    0.2950 o         1 DCO     -0.627500
      2 C1          0.8820    0.2880   -0.0090 c2        1 DCO      0.368000
      3 O2          0.9950    1.3290    0.7190 o         1 DCO     -0.627500
      4 C2          1.7720    0.1490   -1.2420 c2        1 DCO      0.133000
      5 C3          3.0640   -0.3120   -1.0800 c2        1 DCO     -0.654000
      6 P1          4.6040   -2.3070   -1.1840 p3        1 DCO      2.502000
      7 O3          5.6180   -1.6380   -2.0410 o         1 DCO     -1.179667
      8 O4          4.9080   -2.3660    0.2670 o         1 DCO     -1.179667
      9 O5          3.8610   -3.4400   -1.7830 o         1 DCO     -1.179667
     10 C4          1.2450    0.5830   -2.4490 c2        1 DCO     -0.402000
     11 Cl1         2.0980    0.5580   -3.9490 cl        1 DCO     -0.176000
     12 Cl2        -0.3780    1.1330   -2.6610 cl        1 DCO     -0.176000
     13 H31         3.7890   -0.1840   -1.8920 ha        1 DCO      0.099500
     14 H32         3.4490   -0.4530   -0.0640 ha        1 DCO      0.099500
@<TRIPOS>BOND
     1    1    2 1   
     2    2    3 1   
     3    2    4 1   
     4    4    5 1   
     5    4   10 1   
     6    5   13 1   
     7    5   14 1   
     8    6    7 1   
     9    6    8 1   
    10    6    9 1   
    11   10   11 1   
    12   10   12 1   
@<TRIPOS>SUBSTRUCTURE
     1 DCO         1 TEMP              0 ****  ****    0 ROOT
