@<TRIPOS>MOLECULE
DCQ
   53    51     1     0     0
SMALL
bcc


@<TRIPOS>ATOM
      1 O2         -5.4300   -1.8600    3.1140 o         1 DCQ     -0.256000
      2 C2         -4.2150   -1.8950    3.1190 c1        1 DCQ      0.272000
      3 C3         -3.4640   -1.8980    4.4320 c1        1 DCQ     -0.013000
      4 O3         -4.1710   -1.9350    5.6460 os        1 DCQ     -0.198000
      5 C3M        -4.7880   -0.7130    5.9840 c3        1 DCQ     -0.079000
      6 C4         -1.9510   -1.8940    4.4370 c1        1 DCQ     -0.014000
      7 O4         -1.2530   -1.9340    5.6560 o         1 DCQ     -0.201000
      8 C4M        -1.0460   -3.2370    6.1530 c3        1 DCQ     -0.078000
      9 C5         -1.1900   -1.8810    3.1300 c2        1 DCQ      0.274000
     10 O5          0.0250   -1.8630    3.1340 o         1 DCQ     -0.256000
     11 C1         -3.4540   -1.9190    1.8120 c2        1 DCQ     -0.106000
     12 C1M        -4.2050   -1.9930    0.5000 c3        1 DCQ     -0.192000
     13 C6         -1.9420   -1.9070    1.8170 c2        1 DCQ     -0.110000
     14 C7         -1.1800   -1.9510    0.5100 c3        1 DCQ     -0.133000
     15 C8         -0.5420   -0.6040    0.2530 c3        1 DCQ     -0.152000
     16 C9          0.2850   -0.6710   -1.0120 c3        1 DCQ     -0.157000
     17 C10         0.9290    0.6740   -1.2670 c3        1 DCQ     -0.158000
     18 C11         1.7890    0.5950   -2.5080 c3        1 DCQ     -0.158000
     19 C12         2.3950    1.9520   -2.7890 c3        1 DCQ     -0.158000
     20 C13         3.2100    1.8870   -4.0630 c3        1 DCQ     -0.158000
     21 C14         3.8330    3.2390   -4.3320 c3        1 DCQ     -0.158000
     22 C15         4.7150    3.1530   -5.5590 c3        1 DCQ     -0.159000
     23 C16         5.2960    4.5160   -5.8590 c3        1 DCQ     -0.210000
     24 H3M        -5.7440   -0.7590    5.7670 h1        1 DCQ      0.091333
     25 H3MA       -4.3720    0.0160    5.4760 h1        1 DCQ      0.091333
     26 H3MB       -4.6790   -0.5470    6.9450 h1        1 DCQ      0.091333
     27 H4M        -1.3090   -3.2720    7.0980 h1        1 DCQ      0.091000
     28 H4MA       -0.0970   -3.4730    6.0690 h1        1 DCQ      0.091000
     29 H4MB       -1.5890   -3.8730    5.6390 h1        1 DCQ      0.091000
     30 H1M        -3.9100   -2.7810   -0.0020 hc        1 DCQ      0.101333
     31 H1MA       -4.0260   -1.1850   -0.0250 hc        1 DCQ      0.101333
     32 H1MB       -5.1670   -2.0600    0.6780 hc        1 DCQ      0.101333
     33 H7         -0.4850   -2.6370    0.5610 hc        1 DCQ      0.104500
     34 H7A        -1.7960   -2.1650   -0.2190 hc        1 DCQ      0.104500
     35 H8         -1.2400    0.0730    0.1500 hc        1 DCQ      0.086000
     36 H8A         0.0340   -0.3670    1.0070 hc        1 DCQ      0.086000
     37 H9         -0.2920   -0.9050   -1.7670 hc        1 DCQ      0.081500
     38 H9A         0.9810   -1.3520   -0.9110 hc        1 DCQ      0.081500
     39 H10         1.4840    0.9200   -0.5000 hc        1 DCQ      0.080000
     40 H10A        0.2330    1.3490   -1.3950 hc        1 DCQ      0.080000
     41 H11         2.5040   -0.0580   -2.3690 hc        1 DCQ      0.079000
     42 H11A        1.2390    0.3190   -3.2690 hc        1 DCQ      0.079000
     43 H12         2.9740    2.2110   -2.0450 hc        1 DCQ      0.079500
     44 H12A        1.6810    2.6130   -2.8920 hc        1 DCQ      0.079500
     45 H13         2.6280    1.6420   -4.8100 hc        1 DCQ      0.078500
     46 H13A        3.9150    1.2170   -3.9640 hc        1 DCQ      0.078500
     47 H14         4.3720    3.5090   -3.5620 hc        1 DCQ      0.079000
     48 H14A        3.1270    3.8990   -4.4840 hc        1 DCQ      0.079000
     49 H15         5.4400    2.5180   -5.3940 hc        1 DCQ      0.078000
     50 H15A        4.1830    2.8500   -6.3220 hc        1 DCQ      0.078000
     51 H16         5.8740    4.4590   -6.6490 hc        1 DCQ      0.072000
     52 H16A        5.8230    4.8230   -5.0910 hc        1 DCQ      0.072000
     53 H16B        4.5690    5.1510   -6.0310 hc        1 DCQ      0.072000
@<TRIPOS>BOND
     1    1    2 1   
     2    2   11 1   
     3    3    4 1   
     4    3    6 1   
     5    4    5 1   
     6    5   24 1   
     7    5   25 1   
     8    5   26 1   
     9    6    9 1   
    10    7    8 1   
    11    8   27 1   
    12    8   28 1   
    13    8   29 1   
    14    9   10 1   
    15    9   13 1   
    16   11   12 1   
    17   11   13 1   
    18   12   30 1   
    19   12   31 1   
    20   12   32 1   
    21   13   14 1   
    22   14   15 1   
    23   14   33 1   
    24   14   34 1   
    25   15   16 1   
    26   15   35 1   
    27   15   36 1   
    28   16   17 1   
    29   16   37 1   
    30   16   38 1   
    31   17   18 1   
    32   17   39 1   
    33   17   40 1   
    34   18   19 1   
    35   18   41 1   
    36   18   42 1   
    37   19   20 1   
    38   19   43 1   
    39   19   44 1   
    40   20   21 1   
    41   20   45 1   
    42   20   46 1   
    43   21   22 1   
    44   21   47 1   
    45   21   48 1   
    46   22   23 1   
    47   22   49 1   
    48   22   50 1   
    49   23   51 1   
    50   23   52 1   
    51   23   53 1   
@<TRIPOS>SUBSTRUCTURE
     1 DCQ         1 TEMP              0 ****  ****    0 ROOT
