@<TRIPOS>MOLECULE
DCQ
   53    53     1     0     0
SMALL
bcc


@<TRIPOS>ATOM
      1 O2         -0.0720   -0.0780    0.0330 o         1 DCQ     -0.495100
      2 C2          1.1620   -0.0330   -0.0070 c         1 DCQ      0.549500
      3 C3          1.9820   -0.0190    1.2300 cc        1 DCQ      0.011900
      4 O3          1.3450   -0.1050    2.4500 os        1 DCQ     -0.313900
      5 C3M         0.4830    0.9950    2.7600 c3        1 DCQ      0.110700
      6 C4          3.3400   -0.0260    1.1860 cd        1 DCQ      0.010900
      7 O4          4.0670    0.1810    2.3400 os        1 DCQ     -0.316900
      8 C4M         4.8380   -0.9450    2.7710 c3        1 DCQ      0.111700
      9 C5          4.0750   -0.1570   -0.0960 c         1 DCQ      0.551500
     10 O5          5.2950   -0.3500   -0.1300 o         1 DCQ     -0.495100
     11 C1          1.9090    0.0090   -1.2900 cc        1 DCQ     -0.129400
     12 C1M         1.0830    0.1010   -2.5180 c3        1 DCQ     -0.069900
     13 C6          3.2580   -0.0430   -1.3310 cd        1 DCQ     -0.133400
     14 C7          4.0250   -0.0040   -2.6090 c3        1 DCQ     -0.050200
     15 C8          4.3860    1.4190   -2.9980 c3        1 DCQ     -0.073400
     16 C9          5.1570    1.4400   -4.3010 c3        1 DCQ     -0.078400
     17 C10         5.5230    2.8550   -4.6950 c3        1 DCQ     -0.079400
     18 C11         6.2920    2.8790   -5.9990 c3        1 DCQ     -0.079400
     19 C12         6.6580    4.2940   -6.3940 c3        1 DCQ     -0.079400
     20 C13         7.4280    4.3190   -7.6970 c3        1 DCQ     -0.079400
     21 C14         7.7940    5.7330   -8.0920 c3        1 DCQ     -0.079400
     22 C15         8.5630    5.7600   -9.3950 c3        1 DCQ     -0.080400
     23 C16         8.9300    7.1660   -9.7930 c3        1 DCQ     -0.092100
     24 H3M         1.0700    1.9440    2.7990 h1        1 DCQ      0.052033
     25 H3MA        0.0890    0.7290    3.7740 h1        1 DCQ      0.052033
     26 H3MB       -0.3470    1.0670    2.0170 h1        1 DCQ      0.052033
     27 H4M         4.1640   -1.8040    3.0040 h1        1 DCQ      0.051700
     28 H4MA        5.5900   -1.2270    1.9950 h1        1 DCQ      0.051700
     29 H4MB        5.3400   -0.5690    3.6970 h1        1 DCQ      0.051700
     30 H1M         1.4380    0.9420   -3.1660 hc        1 DCQ      0.062033
     31 H1MA        1.1610   -0.8510   -3.1040 hc        1 DCQ      0.062033
     32 H1MB        0.0050    0.2710   -2.2700 hc        1 DCQ      0.062033
     33 H7          4.9690   -0.6040   -2.4920 hc        1 DCQ      0.065200
     34 H7A         3.4250   -0.4780   -3.4310 hc        1 DCQ      0.065200
     35 H8          3.4540    2.0330   -3.1000 hc        1 DCQ      0.046700
     36 H8A         5.0070    1.8800   -2.1850 hc        1 DCQ      0.046700
     37 H9          6.0890    0.8250   -4.1970 hc        1 DCQ      0.042200
     38 H9A         4.5400    0.9710   -5.1130 hc        1 DCQ      0.042200
     39 H10         6.1410    3.3230   -3.8850 hc        1 DCQ      0.040700
     40 H10A        4.5900    3.4710   -4.7970 hc        1 DCQ      0.040700
     41 H11         5.6740    2.4110   -6.8100 hc        1 DCQ      0.039700
     42 H11A        7.2250    2.2640   -5.8970 hc        1 DCQ      0.039700
     43 H12         5.7260    4.9100   -6.4950 hc        1 DCQ      0.040200
     44 H12A        7.2760    4.7630   -5.5830 hc        1 DCQ      0.040200
     45 H13         8.3600    3.7040   -7.5950 hc        1 DCQ      0.039200
     46 H13A        6.8090    3.8500   -8.5080 hc        1 DCQ      0.039200
     47 H14         8.4120    6.2020   -7.2820 hc        1 DCQ      0.039700
     48 H14A        6.8610    6.3490   -8.1940 hc        1 DCQ      0.039700
     49 H15         9.4950    5.1420   -9.2920 hc        1 DCQ      0.038700
     50 H15A        7.9440    5.2890  -10.2040 hc        1 DCQ      0.038700
     51 H16         9.4960    7.1630  -10.7550 hc        1 DCQ      0.032700
     52 H16A        9.5680    7.6440   -9.0100 hc        1 DCQ      0.032700
     53 H16B        8.0140    7.7900   -9.9250 hc        1 DCQ      0.032700
@<TRIPOS>BOND
     1    1    2 2   
     2    2    3 1   
     3    2   11 1   
     4    3    4 1   
     5    3    6 2   
     6    4    5 1   
     7    5   24 1   
     8    5   25 1   
     9    5   26 1   
    10    6    7 1   
    11    6    9 1   
    12    7    8 1   
    13    8   27 1   
    14    8   28 1   
    15    8   29 1   
    16    9   10 2   
    17    9   13 1   
    18   11   12 1   
    19   11   13 2   
    20   12   30 1   
    21   12   31 1   
    22   12   32 1   
    23   13   14 1   
    24   14   15 1   
    25   14   33 1   
    26   14   34 1   
    27   15   16 1   
    28   15   35 1   
    29   15   36 1   
    30   16   17 1   
    31   16   37 1   
    32   16   38 1   
    33   17   18 1   
    34   17   39 1   
    35   17   40 1   
    36   18   19 1   
    37   18   41 1   
    38   18   42 1   
    39   19   20 1   
    40   19   43 1   
    41   19   44 1   
    42   20   21 1   
    43   20   45 1   
    44   20   46 1   
    45   21   22 1   
    46   21   47 1   
    47   21   48 1   
    48   22   23 1   
    49   22   49 1   
    50   22   50 1   
    51   23   51 1   
    52   23   52 1   
    53   23   53 1   
@<TRIPOS>SUBSTRUCTURE
     1 DCQ         1 TEMP              0 ****  ****    0 ROOT
