@<TRIPOS>MOLECULE
DCQ
   53    53     1     0     0
SMALL
bcc


@<TRIPOS>ATOM
      1 O2         -0.0750   -0.0670    0.0350 o         1 DCQ     -0.495100
      2 C2          1.1600   -0.0290   -0.0070 c         1 DCQ      0.549500
      3 C3          1.9820   -0.0230    1.2290 cc        1 DCQ      0.011900
      4 O3          1.3470   -0.1110    2.4500 os        1 DCQ     -0.313900
      5 C3M         0.4910    0.9910    2.7660 c3        1 DCQ      0.110700
      6 C4          3.3400   -0.0360    1.1820 cd        1 DCQ      0.010900
      7 O4          4.0700    0.1620    2.3350 os        1 DCQ     -0.316900
      8 C4M         4.8370   -0.9690    2.7600 c3        1 DCQ      0.111700
      9 C5          4.0720   -0.1650   -0.1020 c         1 DCQ      0.551500
     10 O5          5.2920   -0.3630   -0.1390 o         1 DCQ     -0.495100
     11 C1          1.9050    0.0150   -1.2920 cc        1 DCQ     -0.129400
     12 C1M         1.0770    0.1150   -2.5180 c3        1 DCQ     -0.069900
     13 C6          3.2530   -0.0430   -1.3350 cd        1 DCQ     -0.133400
     14 C7          4.0180   -0.0030   -2.6140 c3        1 DCQ     -0.050200
     15 C8          4.3850    1.4190   -2.9990 c3        1 DCQ     -0.073400
     16 C9          5.1530    1.4420   -4.3040 c3        1 DCQ     -0.078400
     17 C10         5.5240    2.8570   -4.6940 c3        1 DCQ     -0.079400
     18 C11         6.2910    2.8820   -5.9990 c3        1 DCQ     -0.079400
     19 C12         6.6610    4.2970   -6.3900 c3        1 DCQ     -0.079400
     20 C13         7.4280    4.3230   -7.6950 c3        1 DCQ     -0.079400
     21 C14         7.7980    5.7370   -8.0870 c3        1 DCQ     -0.079400
     22 C15         8.5650    5.7640   -9.3920 c3        1 DCQ     -0.080400
     23 C16         8.9350    7.1710   -9.7860 c3        1 DCQ     -0.092100
     24 H3M         1.0830    1.9370    2.8080 h1        1 DCQ      0.052033
     25 H3MA        0.0980    0.7230    3.7790 h1        1 DCQ      0.052033
     26 H3MB       -0.3390    1.0720    2.0240 h1        1 DCQ      0.052033
     27 H4M         4.1590   -1.8260    2.9910 h1        1 DCQ      0.051700
     28 H4MA        5.5860   -1.2510    1.9820 h1        1 DCQ      0.051700
     29 H4MB        5.3420   -0.5990    3.6870 h1        1 DCQ      0.051700
     30 H1M         1.4350    0.9570   -3.1630 hc        1 DCQ      0.062033
     31 H1MA        1.1500   -0.8350   -3.1070 hc        1 DCQ      0.062033
     32 H1MB        0.0000    0.2890   -2.2670 hc        1 DCQ      0.062033
     33 H7          4.9600   -0.6080   -2.5010 hc        1 DCQ      0.065200
     34 H7A         3.4140   -0.4720   -3.4370 hc        1 DCQ      0.065200
     35 H8          3.4550    2.0390   -3.0970 hc        1 DCQ      0.046700
     36 H8A         5.0100    1.8750   -2.1860 hc        1 DCQ      0.046700
     37 H9          6.0830    0.8230   -4.2030 hc        1 DCQ      0.042200
     38 H9A         4.5320    0.9780   -5.1150 hc        1 DCQ      0.042200
     39 H10         6.1460    3.3190   -3.8830 hc        1 DCQ      0.040700
     40 H10A        4.5940    3.4770   -4.7920 hc        1 DCQ      0.040700
     41 H11         5.6690    2.4180   -6.8100 hc        1 DCQ      0.039700
     42 H11A        7.2210    2.2630   -5.9010 hc        1 DCQ      0.039700
     43 H12         5.7310    4.9160   -6.4880 hc        1 DCQ      0.040200
     44 H12A        7.2840    4.7600   -5.5790 hc        1 DCQ      0.040200
     45 H13         8.3580    3.7040   -7.5970 hc        1 DCQ      0.039200
     46 H13A        6.8060    3.8580   -8.5060 hc        1 DCQ      0.039200
     47 H14         8.4200    6.2010   -7.2770 hc        1 DCQ      0.039700
     48 H14A        6.8680    6.3560   -8.1850 hc        1 DCQ      0.039700
     49 H15         9.4940    5.1440   -9.2930 hc        1 DCQ      0.038700
     50 H15A        7.9420    5.2980  -10.2010 hc        1 DCQ      0.038700
     51 H16         9.4990    7.1680  -10.7500 hc        1 DCQ      0.032700
     52 H16A        9.5770    7.6440   -9.0040 hc        1 DCQ      0.032700
     53 H16B        8.0200    7.7990   -9.9140 hc        1 DCQ      0.032700
@<TRIPOS>BOND
     1    1    2 2   
     2    2    3 1   
     3    2   11 1   
     4    3    4 1   
     5    3    6 2   
     6    4    5 1   
     7    5   24 1   
     8    5   25 1   
     9    5   26 1   
    10    6    7 1   
    11    6    9 1   
    12    7    8 1   
    13    8   27 1   
    14    8   28 1   
    15    8   29 1   
    16    9   10 2   
    17    9   13 1   
    18   11   12 1   
    19   11   13 2   
    20   12   30 1   
    21   12   31 1   
    22   12   32 1   
    23   13   14 1   
    24   14   15 1   
    25   14   33 1   
    26   14   34 1   
    27   15   16 1   
    28   15   35 1   
    29   15   36 1   
    30   16   17 1   
    31   16   37 1   
    32   16   38 1   
    33   17   18 1   
    34   17   39 1   
    35   17   40 1   
    36   18   19 1   
    37   18   41 1   
    38   18   42 1   
    39   19   20 1   
    40   19   43 1   
    41   19   44 1   
    42   20   21 1   
    43   20   45 1   
    44   20   46 1   
    45   21   22 1   
    46   21   47 1   
    47   21   48 1   
    48   22   23 1   
    49   22   49 1   
    50   22   50 1   
    51   23   51 1   
    52   23   52 1   
    53   23   53 1   
@<TRIPOS>SUBSTRUCTURE
     1 DCQ         1 TEMP              0 ****  ****    0 ROOT
