@<TRIPOS>MOLECULE
DCQ
   53    53     1     0     0
SMALL
bcc


@<TRIPOS>ATOM
      1 O2          4.5370   -2.5550    0.1660 o         1 DCQ     -0.495100
      2 C2          3.9290   -1.4930   -0.0040 c         1 DCQ      0.549500
      3 C3          4.5140   -0.1880    0.3900 cc        1 DCQ      0.011900
      4 O3          5.7890   -0.1620    0.9140 os        1 DCQ     -0.313900
      5 C3M         5.9420   -0.8420    2.1630 c3        1 DCQ      0.110700
      6 C4          3.8670    0.9840    0.1530 cd        1 DCQ      0.010900
      7 O4          4.3460    2.1560    0.6990 os        1 DCQ     -0.316900
      8 C4M         4.8210    3.1110   -0.2560 c3        1 DCQ      0.111700
      9 C5          2.5930    1.0290   -0.6060 c         1 DCQ      0.551500
     10 O5          2.0980    2.0960   -0.9840 o         1 DCQ     -0.495100
     11 C1          2.5730   -1.4500   -0.6100 cc        1 DCQ     -0.129400
     12 C1M         1.9520   -2.7640   -0.9030 c3        1 DCQ     -0.069900
     13 C6          1.9520   -0.2820   -0.8840 cd        1 DCQ     -0.133400
     14 C7          0.5940   -0.2180   -1.4940 c3        1 DCQ     -0.050200
     15 C8         -0.4920   -0.1780   -0.4330 c3        1 DCQ     -0.073400
     16 C9         -1.8640   -0.1220   -1.0700 c3        1 DCQ     -0.078400
     17 C10        -2.9520   -0.0800   -0.0190 c3        1 DCQ     -0.079400
     18 C11        -4.3250   -0.0250   -0.6530 c3        1 DCQ     -0.079400
     19 C12        -5.4140    0.0170    0.3980 c3        1 DCQ     -0.079400
     20 C13        -6.7870    0.0710   -0.2360 c3        1 DCQ     -0.079400
     21 C14        -7.8760    0.1130    0.8150 c3        1 DCQ     -0.079400
     22 C15        -9.2510    0.1680    0.1820 c3        1 DCQ     -0.080400
     23 C16       -10.3380    0.2100    1.2250 c3        1 DCQ     -0.092100
     24 H3M         7.0250   -0.6890    2.4030 h1        1 DCQ      0.052033
     25 H3MA        5.2940   -0.3700    2.9390 h1        1 DCQ      0.052033
     26 H3MB        5.7080   -1.9270    2.0530 h1        1 DCQ      0.052033
     27 H4M         5.6820    2.6860   -0.8250 h1        1 DCQ      0.051700
     28 H4MA        3.9990    3.4210   -0.9450 h1        1 DCQ      0.051700
     29 H4MB        5.1510    3.9670    0.3850 h1        1 DCQ      0.051700
     30 H1M         2.5590   -3.6030   -0.4800 hc        1 DCQ      0.062033
     31 H1MA        0.9210   -2.8140   -0.4700 hc        1 DCQ      0.062033
     32 H1MB        1.8740   -2.9110   -2.0110 hc        1 DCQ      0.062033
     33 H7          0.5180    0.7050   -2.1330 hc        1 DCQ      0.065200
     34 H7A         0.4320   -1.1050   -2.1650 hc        1 DCQ      0.065200
     35 H8         -0.4160   -1.0840    0.2230 hc        1 DCQ      0.046700
     36 H8A        -0.3410    0.7230    0.2180 hc        1 DCQ      0.046700
     37 H9         -1.9380    0.7860   -1.7250 hc        1 DCQ      0.042200
     38 H9A        -2.0120   -1.0180   -1.7290 hc        1 DCQ      0.042200
     39 H10        -2.8770   -0.9860    0.6380 hc        1 DCQ      0.040700
     40 H10A       -2.8050    0.8180    0.6380 hc        1 DCQ      0.040700
     41 H11        -4.4010    0.8820   -1.3090 hc        1 DCQ      0.039700
     42 H11A       -4.4720   -0.9220   -1.3110 hc        1 DCQ      0.039700
     43 H12        -5.3380   -0.8900    1.0540 hc        1 DCQ      0.040200
     44 H12A       -5.2670    0.9140    1.0550 hc        1 DCQ      0.040200
     45 H13        -6.8630    0.9780   -0.8920 hc        1 DCQ      0.039200
     46 H13A       -6.9340   -0.8260   -0.8940 hc        1 DCQ      0.039200
     47 H14        -7.8010   -0.7930    1.4710 hc        1 DCQ      0.039700
     48 H14A       -7.7300    1.0100    1.4720 hc        1 DCQ      0.039700
     49 H15        -9.3230    1.0750   -0.4750 hc        1 DCQ      0.038700
     50 H15A       -9.3950   -0.7290   -0.4770 hc        1 DCQ      0.038700
     51 H16       -10.2970   -0.6980    1.8740 hc        1 DCQ      0.032700
     52 H16A      -10.2260    1.1110    1.8750 hc        1 DCQ      0.032700
     53 H16B      -11.3420    0.2500    0.7370 hc        1 DCQ      0.032700
@<TRIPOS>BOND
     1    1    2 2   
     2    2    3 1   
     3    2   11 1   
     4    3    4 1   
     5    3    6 2   
     6    4    5 1   
     7    5   24 1   
     8    5   25 1   
     9    5   26 1   
    10    6    7 1   
    11    6    9 1   
    12    7    8 1   
    13    8   27 1   
    14    8   28 1   
    15    8   29 1   
    16    9   10 2   
    17    9   13 1   
    18   11   12 1   
    19   11   13 2   
    20   12   30 1   
    21   12   31 1   
    22   12   32 1   
    23   13   14 1   
    24   14   15 1   
    25   14   33 1   
    26   14   34 1   
    27   15   16 1   
    28   15   35 1   
    29   15   36 1   
    30   16   17 1   
    31   16   37 1   
    32   16   38 1   
    33   17   18 1   
    34   17   39 1   
    35   17   40 1   
    36   18   19 1   
    37   18   41 1   
    38   18   42 1   
    39   19   20 1   
    40   19   43 1   
    41   19   44 1   
    42   20   21 1   
    43   20   45 1   
    44   20   46 1   
    45   21   22 1   
    46   21   47 1   
    47   21   48 1   
    48   22   23 1   
    49   22   49 1   
    50   22   50 1   
    51   23   51 1   
    52   23   52 1   
    53   23   53 1   
@<TRIPOS>SUBSTRUCTURE
     1 DCQ         1 TEMP              0 ****  ****    0 ROOT
