@<TRIPOS>MOLECULE
DCR
   61    60     1     0     0
SMALL
bcc


@<TRIPOS>ATOM
      1 O1         -5.6600    2.5860   10.4040 o         1 DCR     -0.853800
      2 C1         -5.6180    3.5570    9.6030 c         1 DCR      0.907600
      3 O2         -6.6290    4.2930    9.4520 o         1 DCR     -0.853800
      4 C2         -4.3550    3.8370    8.8200 c3        1 DCR     -0.193400
      5 C3         -4.4630    3.2100    7.4470 c3        1 DCR     -0.065400
      6 C4         -3.1320    3.3200    6.7360 c3        1 DCR     -0.078400
      7 C5         -3.2790    2.8330    5.3110 c3        1 DCR     -0.078400
      8 C6         -1.9100    2.6740    4.6880 c3        1 DCR     -0.078400
      9 C7         -2.0590    2.3820    3.2110 c3        1 DCR     -0.079400
     10 C8         -0.7210    1.9610    2.6430 c3        1 DCR     -0.078400
     11 C9         -0.8350    1.8130    1.1420 c3        1 DCR     -0.079400
     12 C10         0.3960    1.1130    0.6100 c3        1 DCR     -0.078400
     13 C11         0.2130    0.8210   -0.8630 c3        1 DCR     -0.079400
     14 C12         1.3770   -0.0070   -1.3620 c3        1 DCR     -0.078400
     15 C13         1.1150   -0.4380   -2.7880 c3        1 DCR     -0.079400
     16 C14         2.2950   -1.2330   -3.3000 c3        1 DCR     -0.079400
     17 C15         1.9160   -1.9260   -4.5900 c3        1 DCR     -0.079400
     18 C16         3.1100   -2.6860   -5.1250 c3        1 DCR     -0.078400
     19 C17         2.6500   -3.6770   -6.1710 c3        1 DCR     -0.079400
     20 C18         3.8530   -4.2530   -6.8840 c3        1 DCR     -0.079400
     21 C19         3.4250   -5.4430   -7.7150 c3        1 DCR     -0.080400
     22 C20         4.5740   -5.8820   -8.5960 c3        1 DCR     -0.092100
     23 H2         -4.2360    4.8040    8.7280 hc        1 DCR      0.018700
     24 H2A        -3.5870    3.4580    9.2920 hc        1 DCR      0.018700
     25 H3         -5.1490    3.6760    6.9290 hc        1 DCR      0.043700
     26 H3A        -4.7070    2.2670    7.5380 hc        1 DCR      0.043700
     27 H4         -2.4680    2.7730    7.2010 hc        1 DCR      0.025700
     28 H4A        -2.8400    4.2540    6.7330 hc        1 DCR      0.025700
     29 H5         -3.7420    1.9710    5.3080 hc        1 DCR      0.036700
     30 H5A        -3.7980    3.4840    4.7970 hc        1 DCR      0.036700
     31 H6         -1.3990    3.5000    4.8080 hc        1 DCR      0.034200
     32 H6A        -1.4390    1.9340    5.1210 hc        1 DCR      0.034200
     33 H7         -2.7080    1.6620    3.0850 hc        1 DCR      0.037200
     34 H7A        -2.3700    3.1870    2.7500 hc        1 DCR      0.037200
     35 H8         -0.4550    1.1060    3.0360 hc        1 DCR      0.036700
     36 H8A        -0.0490    2.6400    2.8540 hc        1 DCR      0.036700
     37 H9         -1.6290    1.2850    0.9260 hc        1 DCR      0.038700
     38 H9A        -0.9100    2.6970    0.7320 hc        1 DCR      0.038700
     39 H10         1.1770    1.6880    0.7340 hc        1 DCR      0.038200
     40 H10A        0.5290    0.2740    1.0940 hc        1 DCR      0.038200
     41 H11        -0.6200    0.3270   -0.9970 hc        1 DCR      0.038700
     42 H11A        0.1760    1.6630   -1.3600 hc        1 DCR      0.038700
     43 H12         1.4800   -0.7980   -0.7960 hc        1 DCR      0.038700
     44 H12A        2.1960    0.5270   -1.3280 hc        1 DCR      0.038700
     45 H13         0.3100   -0.9930   -2.8190 hc        1 DCR      0.038700
     46 H13A        0.9870    0.3530   -3.3490 hc        1 DCR      0.038700
     47 H14         2.5510   -1.9030   -2.6340 hc        1 DCR      0.038700
     48 H14A        3.0490   -0.6310   -3.4620 hc        1 DCR      0.038700
     49 H15         1.6340   -1.2580   -5.2470 hc        1 DCR      0.039200
     50 H15A        1.1810   -2.5490   -4.4220 hc        1 DCR      0.039200
     51 H16         3.7430   -2.0580   -5.5270 hc        1 DCR      0.038700
     52 H16A        3.5460   -3.1640   -4.3920 hc        1 DCR      0.038700
     53 H17         2.1500   -4.3980   -5.7390 hc        1 DCR      0.038700
     54 H17A        2.0730   -3.2230   -6.8190 hc        1 DCR      0.038700
     55 H18         4.2440   -3.5720   -7.4670 hc        1 DCR      0.038700
     56 H18A        4.5170   -4.5380   -6.2250 hc        1 DCR      0.038700
     57 H19         3.1680   -6.1780   -7.1230 hc        1 DCR      0.037700
     58 H19A        2.6630   -5.1920   -8.2740 hc        1 DCR      0.037700
     59 H20         4.7280   -5.2090   -9.2920 hc        1 DCR      0.031367
     60 H20A        4.3550   -6.7410   -9.0140 hc        1 DCR      0.031367
     61 H20B        5.3840   -5.9810   -8.0520 hc        1 DCR      0.031367
@<TRIPOS>BOND
     1    1    2 1   
     2    2    3 1   
     3    2    4 1   
     4    4    5 1   
     5    4   23 1   
     6    4   24 1   
     7    5    6 1   
     8    5   25 1   
     9    5   26 1   
    10    6    7 1   
    11    6   27 1   
    12    6   28 1   
    13    7    8 1   
    14    7   29 1   
    15    7   30 1   
    16    8    9 1   
    17    8   31 1   
    18    8   32 1   
    19    9   10 1   
    20    9   33 1   
    21    9   34 1   
    22   10   11 1   
    23   10   35 1   
    24   10   36 1   
    25   11   12 1   
    26   11   37 1   
    27   11   38 1   
    28   12   13 1   
    29   12   39 1   
    30   12   40 1   
    31   13   14 1   
    32   13   41 1   
    33   13   42 1   
    34   14   15 1   
    35   14   43 1   
    36   14   44 1   
    37   15   16 1   
    38   15   45 1   
    39   15   46 1   
    40   16   17 1   
    41   16   47 1   
    42   16   48 1   
    43   17   18 1   
    44   17   49 1   
    45   17   50 1   
    46   18   19 1   
    47   18   51 1   
    48   18   52 1   
    49   19   20 1   
    50   19   53 1   
    51   19   54 1   
    52   20   21 1   
    53   20   55 1   
    54   20   56 1   
    55   21   22 1   
    56   21   57 1   
    57   21   58 1   
    58   22   59 1   
    59   22   60 1   
    60   22   61 1   
@<TRIPOS>SUBSTRUCTURE
     1 DCR         1 TEMP              0 ****  ****    0 ROOT
