@<TRIPOS>MOLECULE
DCR
   61    60     1     0     0
SMALL
bcc


@<TRIPOS>ATOM
      1 O1        -11.6780   -0.0580    0.6180 o         1 DCR     -0.853800
      2 C1        -10.6980    0.2050   -0.1380 c         1 DCR      0.907600
      3 O2        -10.7140    1.1130   -1.0190 o         1 DCR     -0.853800
      4 C2         -9.4270   -0.6490    0.0160 c3        1 DCR     -0.193400
      5 C3         -8.1870    0.2100    0.0360 c3        1 DCR     -0.065400
      6 C4         -6.9220   -0.6210    0.0010 c3        1 DCR     -0.078400
      7 C5         -5.6850    0.2500    0.0410 c3        1 DCR     -0.078400
      8 C6         -4.4190   -0.5800   -0.0040 c3        1 DCR     -0.078400
      9 C7         -3.1840    0.2930    0.0370 c3        1 DCR     -0.079400
     10 C8         -1.9190   -0.5370   -0.0080 c3        1 DCR     -0.078400
     11 C9         -0.6840    0.3370    0.0340 c3        1 DCR     -0.079400
     12 C10         0.5810   -0.4940   -0.0120 c3        1 DCR     -0.078400
     13 C11         1.8160    0.3810    0.0300 c3        1 DCR     -0.079400
     14 C12         3.0800   -0.4500   -0.0150 c3        1 DCR     -0.078400
     15 C13         4.3150    0.4240    0.0270 c3        1 DCR     -0.079400
     16 C14         5.5790   -0.4060   -0.0190 c3        1 DCR     -0.079400
     17 C15         6.8140    0.4690    0.0230 c3        1 DCR     -0.079400
     18 C16         8.0780   -0.3620   -0.0220 c3        1 DCR     -0.078400
     19 C17         9.3130    0.5130    0.0200 c3        1 DCR     -0.079400
     20 C18        10.5770   -0.3180   -0.0250 c3        1 DCR     -0.079400
     21 C19        11.8130    0.5560    0.0170 c3        1 DCR     -0.080400
     22 C20        13.0750   -0.2670   -0.0280 c3        1 DCR     -0.092100
     23 H2         -9.4980   -1.2540    0.9540 hc        1 DCR      0.018700
     24 H2A        -9.3860   -1.3590   -0.8490 hc        1 DCR      0.018700
     25 H3         -8.2180    0.9060   -0.8450 hc        1 DCR      0.043700
     26 H3A        -8.1900    0.8480    0.9590 hc        1 DCR      0.043700
     27 H4         -6.9110   -1.3290    0.8720 hc        1 DCR      0.025700
     28 H4A        -6.9100   -1.2460   -0.9310 hc        1 DCR      0.025700
     29 H5         -5.7000    0.9600   -0.8280 hc        1 DCR      0.036700
     30 H5A        -5.6940    0.8710    0.9750 hc        1 DCR      0.036700
     31 H6         -4.4060   -1.2920    0.8640 hc        1 DCR      0.034200
     32 H6A        -4.4100   -1.2000   -0.9390 hc        1 DCR      0.034200
     33 H7         -3.1980    1.0040   -0.8300 hc        1 DCR      0.037200
     34 H7A        -3.1930    0.9130    0.9720 hc        1 DCR      0.037200
     35 H8         -1.9050   -1.2490    0.8590 hc        1 DCR      0.036700
     36 H8A        -1.9100   -1.1570   -0.9430 hc        1 DCR      0.036700
     37 H9         -0.6980    1.0480   -0.8340 hc        1 DCR      0.038700
     38 H9A        -0.6930    0.9570    0.9690 hc        1 DCR      0.038700
     39 H10         0.5950   -1.2050    0.8560 hc        1 DCR      0.038200
     40 H10A        0.5900   -1.1130   -0.9470 hc        1 DCR      0.038200
     41 H11         1.8020    1.0920   -0.8380 hc        1 DCR      0.038700
     42 H11A        1.8060    1.0000    0.9650 hc        1 DCR      0.038700
     43 H12         3.0940   -1.1620    0.8520 hc        1 DCR      0.038700
     44 H12A        3.0900   -1.0690   -0.9510 hc        1 DCR      0.038700
     45 H13         4.3010    1.1360   -0.8410 hc        1 DCR      0.038700
     46 H13A        4.3050    1.0440    0.9620 hc        1 DCR      0.038700
     47 H14         5.5930   -1.1180    0.8480 hc        1 DCR      0.038700
     48 H14A        5.5890   -1.0250   -0.9540 hc        1 DCR      0.038700
     49 H15         6.8000    1.1800   -0.8440 hc        1 DCR      0.039200
     50 H15A        6.8040    1.0880    0.9590 hc        1 DCR      0.039200
     51 H16         8.0920   -1.0740    0.8450 hc        1 DCR      0.038700
     52 H16A        8.0880   -0.9810   -0.9580 hc        1 DCR      0.038700
     53 H17         9.2990    1.2240   -0.8470 hc        1 DCR      0.038700
     54 H17A        9.3030    1.1320    0.9560 hc        1 DCR      0.038700
     55 H18        10.5910   -1.0300    0.8420 hc        1 DCR      0.038700
     56 H18A       10.5880   -0.9370   -0.9610 hc        1 DCR      0.038700
     57 H19        11.7960    1.2680   -0.8500 hc        1 DCR      0.037700
     58 H19A       11.8000    1.1750    0.9530 hc        1 DCR      0.037700
     59 H20        13.9730    0.3960    0.0040 hc        1 DCR      0.031367
     60 H20A       13.1210   -0.9660    0.8420 hc        1 DCR      0.031367
     61 H20B       13.1170   -0.8730   -0.9660 hc        1 DCR      0.031367
@<TRIPOS>BOND
     1    1    2 1   
     2    2    3 1   
     3    2    4 1   
     4    4    5 1   
     5    4   23 1   
     6    4   24 1   
     7    5    6 1   
     8    5   25 1   
     9    5   26 1   
    10    6    7 1   
    11    6   27 1   
    12    6   28 1   
    13    7    8 1   
    14    7   29 1   
    15    7   30 1   
    16    8    9 1   
    17    8   31 1   
    18    8   32 1   
    19    9   10 1   
    20    9   33 1   
    21    9   34 1   
    22   10   11 1   
    23   10   35 1   
    24   10   36 1   
    25   11   12 1   
    26   11   37 1   
    27   11   38 1   
    28   12   13 1   
    29   12   39 1   
    30   12   40 1   
    31   13   14 1   
    32   13   41 1   
    33   13   42 1   
    34   14   15 1   
    35   14   43 1   
    36   14   44 1   
    37   15   16 1   
    38   15   45 1   
    39   15   46 1   
    40   16   17 1   
    41   16   47 1   
    42   16   48 1   
    43   17   18 1   
    44   17   49 1   
    45   17   50 1   
    46   18   19 1   
    47   18   51 1   
    48   18   52 1   
    49   19   20 1   
    50   19   53 1   
    51   19   54 1   
    52   20   21 1   
    53   20   55 1   
    54   20   56 1   
    55   21   22 1   
    56   21   57 1   
    57   21   58 1   
    58   22   59 1   
    59   22   60 1   
    60   22   61 1   
@<TRIPOS>SUBSTRUCTURE
     1 DCR         1 TEMP              0 ****  ****    0 ROOT
