@<TRIPOS>MOLECULE
DCR
   61    60     1     0     0
SMALL
bcc


@<TRIPOS>ATOM
      1 O1          0.3250    0.6260    0.2380 o         1 DCR     -0.853800
      2 C1          1.3170   -0.1340    0.0410 c         1 DCR      0.907600
      3 O2          1.6900   -1.0270    0.8560 o         1 DCR     -0.853800
      4 C2          2.0930    0.0290   -1.2770 c3        1 DCR     -0.193400
      5 C3          3.5830    0.0360   -1.0400 c3        1 DCR     -0.065400
      6 C4          4.3630    0.0100   -2.3380 c3        1 DCR     -0.078400
      7 C5          5.8560    0.0360   -2.0890 c3        1 DCR     -0.078400
      8 C6          6.6360    0.0010   -3.3850 c3        1 DCR     -0.078400
      9 C7          8.1280    0.0290   -3.1340 c3        1 DCR     -0.079400
     10 C8          8.9080   -0.0050   -4.4310 c3        1 DCR     -0.078400
     11 C9         10.4000    0.0230   -4.1780 c3        1 DCR     -0.079400
     12 C10        11.1800   -0.0110   -5.4750 c3        1 DCR     -0.078400
     13 C11        12.6720    0.0170   -5.2220 c3        1 DCR     -0.079400
     14 C12        13.4510   -0.0150   -6.5190 c3        1 DCR     -0.078400
     15 C13        14.9430    0.0120   -6.2650 c3        1 DCR     -0.079400
     16 C14        15.7220   -0.0180   -7.5630 c3        1 DCR     -0.079400
     17 C15        17.2140    0.0090   -7.3090 c3        1 DCR     -0.079400
     18 C16        17.9930   -0.0210   -8.6060 c3        1 DCR     -0.078400
     19 C17        19.4850    0.0070   -8.3530 c3        1 DCR     -0.079400
     20 C18        20.2640   -0.0230   -9.6500 c3        1 DCR     -0.079400
     21 C19        21.7570    0.0060   -9.3970 c3        1 DCR     -0.080400
     22 C20        22.5370   -0.0240  -10.6860 c3        1 DCR     -0.092100
     23 H2          1.8160   -0.8270   -1.9440 hc        1 DCR      0.018700
     24 H2A         1.7740    0.9750   -1.7820 hc        1 DCR      0.018700
     25 H3          3.8630    0.9500   -0.4540 hc        1 DCR      0.043700
     26 H3A         3.8510   -0.8550   -0.4100 hc        1 DCR      0.043700
     27 H4          4.0960   -0.9130   -2.9170 hc        1 DCR      0.025700
     28 H4A         4.0720    0.8900   -2.9700 hc        1 DCR      0.025700
     29 H5          6.1230    0.9610   -1.5140 hc        1 DCR      0.036700
     30 H5A         6.1430   -0.8420   -1.4530 hc        1 DCR      0.036700
     31 H6          6.3460    0.8790   -4.0220 hc        1 DCR      0.034200
     32 H6A         6.3690   -0.9250   -3.9600 hc        1 DCR      0.034200
     33 H7          8.4180   -0.8490   -2.4980 hc        1 DCR      0.037200
     34 H7A         8.3950    0.9550   -2.5590 hc        1 DCR      0.037200
     35 H8          8.6180    0.8720   -5.0670 hc        1 DCR      0.036700
     36 H8A         8.6410   -0.9310   -5.0050 hc        1 DCR      0.036700
     37 H9         10.6660    0.9480   -3.6030 hc        1 DCR      0.038700
     38 H9A        10.6900   -0.8550   -3.5420 hc        1 DCR      0.038700
     39 H10        10.9130   -0.9360   -6.0500 hc        1 DCR      0.038200
     40 H10A       10.8890    0.8680   -6.1100 hc        1 DCR      0.038200
     41 H11        12.9380    0.9420   -4.6460 hc        1 DCR      0.038700
     42 H11A       12.9610   -0.8610   -4.5870 hc        1 DCR      0.038700
     43 H12        13.1610    0.8640   -7.1530 hc        1 DCR      0.038700
     44 H12A       13.1840   -0.9400   -7.0950 hc        1 DCR      0.038700
     45 H13        15.2090    0.9370   -5.6890 hc        1 DCR      0.038700
     46 H13A       15.2330   -0.8670   -5.6320 hc        1 DCR      0.038700
     47 H14        15.4320    0.8610   -8.1970 hc        1 DCR      0.038700
     48 H14A       15.4560   -0.9430   -8.1390 hc        1 DCR      0.038700
     49 H15        17.4800    0.9340   -6.7320 hc        1 DCR      0.039200
     50 H15A       17.5040   -0.8700   -6.6750 hc        1 DCR      0.039200
     51 H16        17.7030    0.8580   -9.2400 hc        1 DCR      0.038700
     52 H16A       17.7270   -0.9460   -9.1830 hc        1 DCR      0.038700
     53 H17        19.7510    0.9320   -7.7760 hc        1 DCR      0.038700
     54 H17A       19.7760   -0.8720   -7.7190 hc        1 DCR      0.038700
     55 H18        19.9990   -0.9480  -10.2270 hc        1 DCR      0.038700
     56 H18A       19.9740    0.8560  -10.2840 hc        1 DCR      0.038700
     57 H19        22.0200    0.9310   -8.8190 hc        1 DCR      0.037700
     58 H19A       22.0450   -0.8730   -8.7620 hc        1 DCR      0.037700
     59 H20        23.6340   -0.0020  -10.4770 hc        1 DCR      0.031367
     60 H20A       22.3060   -0.9500  -11.2650 hc        1 DCR      0.031367
     61 H20B       22.2810    0.8580  -11.3220 hc        1 DCR      0.031367
@<TRIPOS>BOND
     1    1    2 1   
     2    2    3 1   
     3    2    4 1   
     4    4    5 1   
     5    4   23 1   
     6    4   24 1   
     7    5    6 1   
     8    5   25 1   
     9    5   26 1   
    10    6    7 1   
    11    6   27 1   
    12    6   28 1   
    13    7    8 1   
    14    7   29 1   
    15    7   30 1   
    16    8    9 1   
    17    8   31 1   
    18    8   32 1   
    19    9   10 1   
    20    9   33 1   
    21    9   34 1   
    22   10   11 1   
    23   10   35 1   
    24   10   36 1   
    25   11   12 1   
    26   11   37 1   
    27   11   38 1   
    28   12   13 1   
    29   12   39 1   
    30   12   40 1   
    31   13   14 1   
    32   13   41 1   
    33   13   42 1   
    34   14   15 1   
    35   14   43 1   
    36   14   44 1   
    37   15   16 1   
    38   15   45 1   
    39   15   46 1   
    40   16   17 1   
    41   16   47 1   
    42   16   48 1   
    43   17   18 1   
    44   17   49 1   
    45   17   50 1   
    46   18   19 1   
    47   18   51 1   
    48   18   52 1   
    49   19   20 1   
    50   19   53 1   
    51   19   54 1   
    52   20   21 1   
    53   20   55 1   
    54   20   56 1   
    55   21   22 1   
    56   21   57 1   
    57   21   58 1   
    58   22   59 1   
    59   22   60 1   
    60   22   61 1   
@<TRIPOS>SUBSTRUCTURE
     1 DCR         1 TEMP              0 ****  ****    0 ROOT
