@<TRIPOS>MOLECULE
DCS
   37    38     1     0     0
SMALL
bcc


@<TRIPOS>ATOM
      1 N1          0.5380   -0.5110    0.0600 nb        1 DCS     -0.651000
      2 C2          1.8340   -0.2360    0.3600 ca        1 DCS      0.313600
      3 C2A         2.8820   -0.4530   -0.6820 c3        1 DCS     -0.144400
      4 C3          2.2060    0.2400    1.6400 ca        1 DCS     -0.002200
      5 O3          3.5160    0.4810    1.9980 oh        1 DCS     -0.503100
      6 C4          1.2260    0.4680    2.6350 ca        1 DCS     -0.118300
      7 C4A         1.6470    0.9730    3.9890 c3        1 DCS      0.218100
      8 C5         -0.1020    0.1950    2.3060 ca        1 DCS     -0.151600
      9 C6         -0.3820   -0.3060    1.0080 ca        1 DCS      0.393200
     10 C5A        -1.2680    0.4200    3.2270 c3        1 DCS      0.242700
     11 O4P        -2.1130   -0.6840    3.2010 os        1 DCS     -0.561200
     12 P          -2.5720   -1.3180    4.6620 p5        1 DCS      1.428800
     13 O1P        -3.2180   -2.6080    4.3880 o         1 DCS     -0.823500
     14 O2P        -1.0760   -1.5320    5.3260 oh        1 DCS     -0.805400
     15 O3P        -3.0590   -0.1940    5.4860 o         1 DCS     -0.823500
     16 N           1.6910    0.0030    5.0590 n3        1 DCS     -0.816200
     17 CA          2.6390   -1.0750    4.8830 c3        1 DCS      0.083500
     18 C           3.6770   -1.0840    6.0350 c         1 DCS      0.630500
     19 O           4.4510   -0.1810    6.3550 o         1 DCS     -0.573500
     20 ND          3.7060   -2.3980    6.6250 n         1 DCS     -0.335400
     21 OG          2.6980   -3.1470    6.1260 os        1 DCS     -0.280900
     22 CB          2.0580   -2.5040    4.9790 c3        1 DCS      0.074400
     23 H2A1        3.6430   -1.1820   -0.3060 hc        1 DCS      0.043700
     24 H2A2        3.3920    0.5160   -0.9140 hc        1 DCS      0.043700
     25 H2A3        2.4500   -0.8560   -1.6300 hc        1 DCS      0.043700
     26 HO3         4.0610    0.4330    1.2000 ho        1 DCS      0.415000
     27 H4A1        2.6700    1.4410    3.9030 h1        1 DCS      0.069200
     28 H4A2        0.9250    1.7780    4.3140 h1        1 DCS      0.069200
     29 H6         -1.4260   -0.5730    0.7540 h4        1 DCS      0.050100
     30 H5A1       -0.9390    0.6350    4.2820 h1        1 DCS      0.034700
     31 H5A2       -1.8280    1.3220    2.8350 h1        1 DCS      0.034700
     32 HN         -1.0280   -1.1200    6.1830 ho        1 DCS      0.429000
     33 HA          3.2150   -0.9570    3.9180 h1        1 DCS      0.096700
     34 HND         3.6140   -2.3760    7.6350 hn        1 DCS      0.278500
     35 HB1         2.3230   -3.1170    4.0840 h1        1 DCS      0.094200
     36 HB2         0.9530   -2.5480    5.1800 h1        1 DCS      0.094200
     37 H2          0.7730   -0.3600    5.2600 hn        1 DCS      0.409800
@<TRIPOS>BOND
     1    1    2 ar  
     2    1    9 ar  
     3    2    3 1   
     4    2    4 ar  
     5    3   23 1   
     6    3   24 1   
     7    3   25 1   
     8    4    5 1   
     9    4    6 ar  
    10    5   26 1   
    11    6    7 1   
    12    6    8 ar  
    13    7   16 1   
    14    7   27 1   
    15    7   28 1   
    16    8    9 ar  
    17    8   10 1   
    18    9   29 1   
    19   10   11 1   
    20   10   30 1   
    21   10   31 1   
    22   11   12 1   
    23   12   13 1   
    24   12   14 1   
    25   12   15 1   
    26   14   32 1   
    27   16   17 1   
    28   16   37 1   
    29   17   18 1   
    30   17   22 1   
    31   17   33 1   
    32   18   19 2   
    33   18   20 1   
    34   20   21 1   
    35   20   34 1   
    36   21   22 1   
    37   22   35 1   
    38   22   36 1   
@<TRIPOS>SUBSTRUCTURE
     1 DCS         1 TEMP              0 ****  ****    0 ROOT
