@<TRIPOS>MOLECULE
DCS
   36    34     1     0     0
SMALL
bcc


@<TRIPOS>ATOM
      1 N1         -1.5680   -0.8720   -3.1800 n1        1 DCS     -0.155000
      2 C2         -0.1940   -0.9040   -3.1730 c1        1 DCS     -0.098000
      3 C2A         0.6050   -0.8990   -4.5480 c3        1 DCS     -0.139000
      4 C3          0.5130   -0.7890   -1.9470 c1        1 DCS      0.029000
      5 O3          1.9450   -0.8080   -1.9410 o         1 DCS     -0.288000
      6 C4         -0.1720   -0.6450   -0.7690 c2        1 DCS     -0.112000
      7 C4A         0.6190   -0.5920    0.5980 c3        1 DCS     -0.028000
      8 C5         -1.5690   -0.6120   -0.7710 c1        1 DCS     -0.042000
      9 C6         -2.2690   -0.7250   -1.9810 c1        1 DCS     -0.096000
     10 C5A        -2.3330   -0.6400    0.5680 c3        1 DCS      0.106000
     11 O4P        -3.7260   -0.3840    0.3330 os        1 DCS     -0.711000
     12 P          -4.6510    0.0470    1.5720 p5        1 DCS      1.570500
     13 O1P        -5.9440    0.4910    1.0720 o         1 DCS     -0.929833
     14 O2P        -4.8390   -1.1140    2.4780 o         1 DCS     -0.929833
     15 O3P        -3.9900    1.1750    2.3310 o         1 DCS     -0.929833
     16 N           1.5940    0.3860    0.5300 n3        1 DCS     -0.322000
     17 CA          2.1370    0.5980    1.8340 c3        1 DCS     -0.031000
     18 C           3.3420    0.6250    1.7730 c2        1 DCS      0.228000
     19 O           4.0540   -0.2210    1.2650 o         1 DCS     -0.346000
     20 ND          3.7840    1.6820    2.8340 n         1 DCS     -0.182000
     21 OG          2.5590    2.4890    3.1660 os        1 DCS     -0.243000
     22 CB          1.7680    2.2080    2.3700 c3        1 DCS     -0.066000
     23 H2A1        1.0930   -1.7560   -4.6520 hc        1 DCS      0.068333
     24 H2A2       -0.0380   -0.7880   -5.3060 hc        1 DCS      0.068333
     25 H2A3        1.2200   -0.1850   -4.5500 hc        1 DCS      0.068333
     26 HO3         2.2260   -1.6170   -2.1220 ho        1 DCS      0.235000
     27 H4A1        1.0370   -1.4540    0.7640 h1        1 DCS      0.068000
     28 H4A2        0.0280   -0.3940    1.2950 h1        1 DCS      0.068000
     29 H6         -3.2690   -0.7740   -1.9760 ha        1 DCS      0.169000
     30 H5A1       -2.2290   -1.5350    0.9940 h1        1 DCS      0.045000
     31 H5A2       -1.9800    0.0240    1.1410 h1        1 DCS      0.045000
     32 HN          1.2130    1.1930    0.2080 hn        1 DCS      0.280000
     33 HA          1.7280   -0.1450    2.3270 h1        1 DCS      0.100000
     34 HND         4.6230    1.8880    3.0520 hn        1 DCS      0.173000
     35 HB1         1.8150    2.8140    1.6360 h1        1 DCS      0.162500
     36 HB2         0.8660    2.2320    2.7720 h1        1 DCS      0.162500
@<TRIPOS>BOND
     1    1    9 1   
     2    2    3 1   
     3    2    4 1   
     4    3   23 1   
     5    3   24 1   
     6    3   25 1   
     7    4    6 1   
     8    5   26 1   
     9    6    7 1   
    10    6    8 1   
    11    7   16 1   
    12    7   27 1   
    13    7   28 1   
    14    8   10 1   
    15    9   29 1   
    16   10   11 1   
    17   10   30 1   
    18   10   31 1   
    19   11   12 1   
    20   12   13 1   
    21   12   14 1   
    22   12   15 1   
    23   16   17 1   
    24   16   32 1   
    25   17   18 1   
    26   17   22 1   
    27   17   33 1   
    28   18   19 1   
    29   18   20 1   
    30   20   21 1   
    31   20   34 1   
    32   21   22 1   
    33   22   35 1   
    34   22   36 1   
@<TRIPOS>SUBSTRUCTURE
     1 DCS         1 TEMP              0 ****  ****    0 ROOT
