@<TRIPOS>MOLECULE
DCS
   37    38     1     0     0
SMALL
bcc


@<TRIPOS>ATOM
      1 N1         -0.0350    0.5790    0.0280 nb        1 DCS     -0.656000
      2 C2          1.2980    0.4560   -0.1840 ca        1 DCS      0.327600
      3 C2A         1.8360    0.5730   -1.5720 c3        1 DCS     -0.144400
      4 C3          2.1970    0.2030    0.8830 ca        1 DCS     -0.004200
      5 O3          3.5600    0.1310    0.6820 oh        1 DCS     -0.503100
      6 C4          1.7180    0.0780    2.2040 ca        1 DCS     -0.057300
      7 C4A         2.6750   -0.1730    3.3330 c3        1 DCS      0.207100
      8 C5          0.3400    0.2230    2.4100 ca        1 DCS     -0.151600
      9 C6         -0.4830    0.4660    1.2860 ca        1 DCS      0.381200
     10 C5A        -0.2870    0.1610    3.7730 c3        1 DCS      0.201700
     11 O4P        -0.4330   -1.1630    4.1810 os        1 DCS     -0.584200
     12 P          -1.8260   -1.5700    4.9900 p5        1 DCS      1.429800
     13 O1P        -1.9660   -3.0280    4.8850 o         1 DCS     -0.822500
     14 O2P        -1.2580   -1.1380    6.4680 oh        1 DCS     -0.796400
     15 O3P        -2.8290   -0.5230    4.7070 o         1 DCS     -0.822500
     16 N           2.4940   -1.4680    3.9670 n3        1 DCS     -0.815200
     17 CA          2.8820   -1.5190    5.3540 c3        1 DCS      0.085500
     18 C           2.0900   -0.6200    6.3460 c         1 DCS      0.611500
     19 O           1.9840    0.6090    6.2840 o         1 DCS     -0.592500
     20 ND          1.6010   -1.4190    7.4330 n         1 DCS     -0.327400
     21 OG          1.9860   -2.7010    7.2570 os        1 DCS     -0.272900
     22 CB          2.6750   -2.9130    5.9870 c3        1 DCS      0.100400
     23 H2A1        2.2280   -0.4190   -1.9080 hc        1 DCS      0.043700
     24 H2A2        2.6720    1.3160   -1.5880 hc        1 DCS      0.043700
     25 H2A3        1.0530    0.9040   -2.2980 hc        1 DCS      0.043700
     26 HO3         3.7010   -0.2530   -0.1960 ho        1 DCS      0.411000
     27 H4A1        3.7340   -0.1530    2.9410 h1        1 DCS      0.059700
     28 H4A2        2.5700    0.6840    4.0650 h1        1 DCS      0.059700
     29 H6         -1.5770    0.5670    1.4190 h4        1 DCS      0.038100
     30 H5A1       -1.2930    0.6740    3.7610 h1        1 DCS      0.055700
     31 H5A2        0.3950    0.6980    4.5000 h1        1 DCS      0.055700
     32 HN          1.5530   -1.8110    3.8440 hn        1 DCS      0.419800
     33 HA          3.9660   -1.2150    5.4240 h1        1 DCS      0.075700
     34 HND         0.5820   -1.3810    7.5160 hn        1 DCS      0.333500
     35 HB1         3.6430   -3.4020    6.2480 h1        1 DCS      0.067700
     36 HB2         2.0300   -3.5970    5.3810 h1        1 DCS      0.067700
     37 H2         -1.6220   -0.3100    6.7610 ho        1 DCS      0.431000
@<TRIPOS>BOND
     1    1    2 ar  
     2    1    9 ar  
     3    2    3 1   
     4    2    4 ar  
     5    3   23 1   
     6    3   24 1   
     7    3   25 1   
     8    4    5 1   
     9    4    6 ar  
    10    5   26 1   
    11    6    7 1   
    12    6    8 ar  
    13    7   16 1   
    14    7   27 1   
    15    7   28 1   
    16    8    9 ar  
    17    8   10 1   
    18    9   29 1   
    19   10   11 1   
    20   10   30 1   
    21   10   31 1   
    22   11   12 1   
    23   12   13 1   
    24   12   14 1   
    25   12   15 1   
    26   14   37 1   
    27   16   17 1   
    28   16   32 1   
    29   17   18 1   
    30   17   22 1   
    31   17   33 1   
    32   18   19 2   
    33   18   20 1   
    34   20   21 1   
    35   20   34 1   
    36   21   22 1   
    37   22   35 1   
    38   22   36 1   
@<TRIPOS>SUBSTRUCTURE
     1 DCS         1 TEMP              0 ****  ****    0 ROOT
