@<TRIPOS>MOLECULE
DCU
   82    85     1     0     0
SMALL
bcc


@<TRIPOS>ATOM
      1 C2          0.2330   -0.2150   -0.2700 c3        1 DCU     -0.024700
      2 C3          1.7210    0.1220   -0.1970 c3        1 DCU     -0.096400
      3 C4          2.1870   -0.0070    1.2440 c3        1 DCU     -0.083400
      4 C5          3.6800    0.2280    1.3660 c3        1 DCU     -0.078400
      5 C6          4.1410    0.0540    2.8000 c3        1 DCU     -0.080400
      6 C7          5.6380    0.2530    2.9310 c3        1 DCU     -0.078400
      7 C8          6.0930    0.0570    4.3640 c3        1 DCU     -0.079400
      8 C9          7.5920    0.2430    4.4950 c3        1 DCU     -0.079400
      9 C10         8.0430    0.0370    5.9300 c3        1 DCU     -0.101400
     10 C11         9.5530    0.2310    6.0140 c3        1 DCU      0.112800
     11 N12        10.1650    0.0540    7.3810 n4        1 DCU     -0.603800
     12 C13         9.9330   -1.3310    7.8870 c3        1 DCU      0.087433
     13 C14         9.5930    1.0390    8.3460 c3        1 DCU      0.087433
     14 C15        11.6400    0.2880    7.2670 c3        1 DCU      0.087433
     15 C16        -2.3520    0.0110   -5.3950 ca        1 DCU     -0.090000
     16 C17        -1.6930    0.0070   -4.1470 ca        1 DCU      0.057000
     17 C18        -1.2120   -1.2220   -3.6370 ca        1 DCU     -0.104000
     18 C19        -1.3850   -2.4180   -4.3710 ca        1 DCU     -0.016000
     19 C20        -2.0410   -2.3820   -5.6020 ca        1 DCU     -0.036400
     20 C21        -2.5290   -1.1560   -6.1180 ca        1 DCU     -0.037000
     21 C22        -0.5420   -1.2550   -2.3450 cp        1 DCU      0.250700
     22 N23        -0.3660   -0.1340   -1.6200 na        1 DCU      0.027900
     23 C24        -0.8020    1.1260   -2.1140 ca        1 DCU      0.010700
     24 C25        -1.4840    1.2080   -3.3630 ca        1 DCU     -0.011000
     25 C26        -0.5750    2.3150   -1.3690 ca        1 DCU     -0.092000
     26 C27        -1.0530    3.5370   -1.8450 ca        1 DCU      0.002600
     27 C28        -1.7440    3.6190   -3.0740 ca        1 DCU     -0.079000
     28 C29        -1.9410    2.4640   -3.8100 ca        1 DCU     -0.051000
     29 C30        -0.0790   -2.5620   -1.8430 cp        1 DCU     -0.213000
     30 C31         1.2590   -2.9470   -2.0190 ca        1 DCU     -0.101000
     31 C32         1.6810   -4.1930   -1.5600 ca        1 DCU     -0.111500
     32 C33         0.7830   -5.0470   -0.9140 ca        1 DCU     -0.055000
     33 C34        -0.5470   -4.6570   -0.7320 ca        1 DCU     -0.111500
     34 C35        -0.9840   -3.4180   -1.1950 ca        1 DCU     -0.101000
     35 N37        -0.8500    4.7680   -1.0750 n4        1 DCU     -0.715000
     36 H21A        0.0850   -1.2720    0.1120 h1        1 DCU      0.109700
     37 H22        -0.3640    0.4610    0.4080 h1        1 DCU      0.109700
     38 H31A        1.9170    1.1610   -0.5690 hc        1 DCU      0.061200
     39 H32A        2.3060   -0.5850   -0.8440 hc        1 DCU      0.061200
     40 H41         1.6370    0.7290    1.8880 hc        1 DCU      0.056700
     41 H42         1.9420   -1.0340    1.6280 hc        1 DCU      0.056700
     42 H51         3.9320    1.2620    1.0120 hc        1 DCU      0.049200
     43 H52         4.2310   -0.4940    0.7060 hc        1 DCU      0.049200
     44 H61         3.6060    0.7880    3.4590 hc        1 DCU      0.050200
     45 H62         3.8680   -0.9740    3.1600 hc        1 DCU      0.050200
     46 H71         6.1740   -0.4730    2.2650 hc        1 DCU      0.048700
     47 H72         5.9120    1.2860    2.5880 hc        1 DCU      0.048700
     48 H81         5.5640    0.7880    5.0310 hc        1 DCU      0.051200
     49 H82         5.8110   -0.9730    4.7100 hc        1 DCU      0.051200
     50 H91         7.8730    1.2760    4.1550 hc        1 DCU      0.056200
     51 H92         8.1200   -0.4850    3.8240 hc        1 DCU      0.056200
     52 H101        7.7590   -0.9960    6.2630 hc        1 DCU      0.066200
     53 H102        7.5140    0.7690    6.5940 hc        1 DCU      0.066200
     54 H111        9.8120    1.2740    5.6700 hx        1 DCU      0.098700
     55 H112       10.0610   -0.5090    5.3290 hx        1 DCU      0.098700
     56 H131       10.3200   -2.0710    7.1380 hx        1 DCU      0.104700
     57 H132       10.4770   -1.4650    8.8610 hx        1 DCU      0.104700
     58 H133        8.8350   -1.4940    8.0510 hx        1 DCU      0.104700
     59 H141        9.7220    2.0770    7.9400 hx        1 DCU      0.104700
     60 H142       10.1320    0.9510    9.3280 hx        1 DCU      0.104700
     61 H143        8.5030    0.8240    8.5020 hx        1 DCU      0.104700
     62 H151       12.1150    0.1590    8.2770 hx        1 DCU      0.104700
     63 H152       11.8260    1.3310    6.8980 hx        1 DCU      0.104700
     64 H153       12.0820   -0.4540    6.5500 hx        1 DCU      0.104700
     65 H16        -2.7440    0.9510   -5.8270 ha        1 DCU      0.196000
     66 H19        -0.9940   -3.3630   -3.9440 ha        1 DCU      0.197000
     67 H21        -3.0530   -1.1120   -7.0940 ha        1 DCU      0.202000
     68 H26        -0.0110    2.2750   -0.4170 ha        1 DCU      0.184000
     69 H28        -2.1300    4.5820   -3.4610 ha        1 DCU      0.204000
     70 H29        -2.4790    2.5530   -4.7730 ha        1 DCU      0.198000
     71 H31         1.9760   -2.2770   -2.5210 ha        1 DCU      0.153500
     72 H32         2.7310   -4.5040   -1.7050 ha        1 DCU      0.185000
     73 H33         1.1250   -6.0320   -0.5440 ha        1 DCU      0.190000
     74 H34        -1.2530   -5.3290   -0.2120 ha        1 DCU      0.185000
     75 H35        -2.0310   -3.1140   -1.0380 ha        1 DCU      0.153500
     76 H361       -1.8210   -4.4170   -5.9060 hn        1 DCU      0.487800
     77 H362       -3.2490   -3.7780   -6.5090 hn        1 DCU      0.487800
     78 H371       -0.2830    4.5910   -0.2360 hn        1 DCU      0.487467
     79 H372       -0.3710    5.4700   -1.6610 hn        1 DCU      0.487467
     80 H373       -1.7660    5.1480   -0.7850 hn        1 DCU      0.487467
     81 H363       -1.8010   -3.5020   -7.3100 hn        1 DCU      0.487800
     82 N36        -2.2390   -3.6060   -6.3810 n4        1 DCU     -0.712000
@<TRIPOS>BOND
     1    1    2 1   
     2    1   22 1   
     3    1   36 1   
     4    1   37 1   
     5    2    3 1   
     6    2   38 1   
     7    2   39 1   
     8    3    4 1   
     9    3   40 1   
    10    3   41 1   
    11    4    5 1   
    12    4   42 1   
    13    4   43 1   
    14    5    6 1   
    15    5   44 1   
    16    5   45 1   
    17    6    7 1   
    18    6   46 1   
    19    6   47 1   
    20    7    8 1   
    21    7   48 1   
    22    7   49 1   
    23    8    9 1   
    24    8   50 1   
    25    8   51 1   
    26    9   10 1   
    27    9   52 1   
    28    9   53 1   
    29   10   11 1   
    30   10   54 1   
    31   10   55 1   
    32   11   12 1   
    33   11   13 1   
    34   11   14 1   
    35   12   56 1   
    36   12   57 1   
    37   12   58 1   
    38   13   59 1   
    39   13   60 1   
    40   13   61 1   
    41   14   62 1   
    42   14   63 1   
    43   14   64 1   
    44   15   16 ar  
    45   15   20 ar  
    46   15   65 1   
    47   16   17 ar  
    48   16   24 ar  
    49   17   18 ar  
    50   17   21 ar  
    51   18   19 ar  
    52   18   66 1   
    53   19   20 ar  
    54   19   82 1   
    55   20   67 1   
    56   21   22 1   
    57   21   29 1   
    58   22   23 2   
    59   23   24 ar  
    60   23   25 ar  
    61   24   28 ar  
    62   25   26 ar  
    63   25   68 1   
    64   26   27 ar  
    65   26   35 1   
    66   27   28 ar  
    67   27   69 1   
    68   28   70 1   
    69   29   30 ar  
    70   29   34 ar  
    71   30   31 ar  
    72   30   71 1   
    73   31   32 ar  
    74   31   72 1   
    75   32   33 ar  
    76   32   73 1   
    77   33   34 ar  
    78   33   74 1   
    79   34   75 1   
    80   35   78 1   
    81   35   79 1   
    82   35   80 1   
    83   76   82 1   
    84   77   82 1   
    85   81   82 1   
@<TRIPOS>SUBSTRUCTURE
     1 DCU         1 TEMP              0 ****  ****    0 ROOT
