@<TRIPOS>MOLECULE
DCU
   80    72     1     0     0
SMALL
bcc


@<TRIPOS>ATOM
      1 C2         -2.8240   -0.0700   -0.9670 c3        1 DCU     -0.069000
      2 C3         -1.3110    0.0870   -1.0420 c3        1 DCU     -0.177000
      3 C4         -0.7010   -0.1200    0.3700 c3        1 DCU     -0.158000
      4 C5          0.8070    0.2530    0.3440 c3        1 DCU     -0.157000
      5 C6          1.3360    0.4010    1.8040 c3        1 DCU     -0.158000
      6 C7          2.9010    0.4080    1.7890 c3        1 DCU     -0.158000
      7 C8          3.4430    0.4230    3.2610 c3        1 DCU     -0.158000
      8 C9          4.9950    0.6150    3.2400 c3        1 DCU     -0.159000
      9 C10         5.5060    0.8980    4.6930 c3        1 DCU     -0.181000
     10 C11         7.0610    0.8050    4.7240 c3        1 DCU     -0.124000
     11 N12         7.5440    1.1050    6.0640 n4        1 DCU      0.029000
     12 C13         6.8950    0.1990    7.0340 c3        1 DCU     -0.187667
     13 C14         7.2290    2.4790    6.3980 c3        1 DCU     -0.187667
     14 C15         8.9830    0.9140    6.1120 c3        1 DCU     -0.187667
     15 C16        -4.1800   -0.5380   -6.4230 c1        1 DCU     -0.109500
     16 C17        -3.9030   -0.3910   -5.0510 c1        1 DCU      0.014000
     17 C18        -3.5780   -1.4960   -4.2900 c1        1 DCU     -0.061000
     18 C19        -3.5240   -2.7680   -4.8860 c1        1 DCU     -0.184500
     19 C20        -3.8020   -2.9150   -6.2600 c1        1 DCU      0.146500
     20 C21        -4.1260   -1.8110   -7.0190 c1        1 DCU     -0.109500
     21 C22        -3.3190   -1.3530   -2.9260 c1        1 DCU      0.192000
     22 N23        -3.3890   -0.0960   -2.3320 n2        1 DCU     -0.050000
     23 C24        -3.7190    1.0250   -3.0980 c1        1 DCU      0.067000
     24 C25        -3.9740    0.8860   -4.4450 c1        1 DCU     -0.076000
     25 C26        -3.8110    2.3020   -2.4880 c1        1 DCU     -0.269000
     26 C27        -4.1530    3.3970   -3.2390 c1        1 DCU      0.146500
     27 C28        -4.4160    3.2540   -4.6270 c1        1 DCU     -0.184500
     28 C29        -4.3270    2.0180   -5.2180 c1        1 DCU     -0.052000
     29 C30        -4.3250   -2.1440   -2.1900 c1        1 DCU     -0.134000
     30 C31        -5.6190   -1.6910   -2.0910 c1        1 DCU     -0.109500
     31 C32        -6.5740   -2.4450   -1.3910 c1        1 DCU     -0.109500
     32 C33        -6.2210   -3.6190   -0.8130 c1        1 DCU     -0.109500
     33 C34        -4.9020   -4.0820   -0.9140 c1        1 DCU     -0.109500
     34 C35        -3.9650   -3.3470   -1.5970 c1        1 DCU     -0.099000
     35 N36        -3.7660   -4.0900   -7.1160 n3        1 DCU     -0.362000
     36 N37        -4.6410    4.6740   -2.7900 n3        1 DCU     -0.362000
     37 H21A       -3.2000    0.6710   -0.4780 h1        1 DCU      0.131000
     38 H22        -3.0400   -0.9010   -0.5110 h1        1 DCU      0.131000
     39 H31A       -1.0910    0.9850   -1.3640 hc        1 DCU      0.103000
     40 H32A       -0.9440   -0.5800   -1.6570 hc        1 DCU      0.103000
     41 H41        -1.1740    0.4570    1.0220 hc        1 DCU      0.088500
     42 H42        -0.8010   -1.0640    0.6350 hc        1 DCU      0.088500
     43 H51         1.3110   -0.4540   -0.1160 hc        1 DCU      0.087000
     44 H52         0.9230    1.0860   -0.1240 hc        1 DCU      0.087000
     45 H61         1.0200   -0.3470    2.3410 hc        1 DCU      0.085500
     46 H62         1.0050    1.2480    2.1900 hc        1 DCU      0.085500
     47 H71         3.2320   -0.4060    1.3220 hc        1 DCU      0.087000
     48 H72         3.2220    1.2140    1.3130 hc        1 DCU      0.087000
     49 H81         3.0290    1.1600    3.7540 hc        1 DCU      0.088000
     50 H82         3.2260   -0.4220    3.6960 hc        1 DCU      0.088000
     51 H91         5.4210   -0.2020    2.8960 hc        1 DCU      0.095000
     52 H92         5.2270    1.3840    2.6510 hc        1 DCU      0.095000
     53 H101        5.2270    1.7940    4.9690 hc        1 DCU      0.104000
     54 H102        5.1230    0.2270    5.3140 hc        1 DCU      0.104000
     55 H111        7.3350   -0.0920    4.4760 hx        1 DCU      0.138000
     56 H112        7.4380    1.4460    4.0920 hx        1 DCU      0.138000
     57 H131        7.4620    0.1260    7.8540 hx        1 DCU      0.142111
     58 H132        6.0240    0.5510    7.2730 hx        1 DCU      0.142111
     59 H133        6.7870   -0.7030    6.6230 hx        1 DCU      0.142111
     60 H141        7.7540    2.7540    7.1780 hx        1 DCU      0.142111
     61 H142        6.2890    2.5540    6.6000 hx        1 DCU      0.142111
     62 H143        7.4490    3.0620    5.6320 hx        1 DCU      0.142111
     63 H151        9.1930   -0.0280    5.9390 hx        1 DCU      0.142111
     64 H152        9.4130    1.4790    5.4230 hx        1 DCU      0.142111
     65 H153        9.3170    1.1660    6.9940 hx        1 DCU      0.142111
     66 H16        -4.4090    0.2430   -6.9590 ha        1 DCU      0.156667
     67 H19        -3.2930   -3.5500   -4.3470 ha        1 DCU      0.161000
     68 H21        -4.3150   -1.9120   -7.9550 ha        1 DCU      0.156667
     69 H26        -3.6370    2.3980   -1.5680 ha        1 DCU      0.148000
     70 H28        -4.6620    4.0380   -5.1640 ha        1 DCU      0.161000
     71 H29        -4.5070    1.9210   -6.1630 ha        1 DCU      0.159000
     72 H31        -5.8730   -0.8500   -2.5050 ha        1 DCU      0.156667
     73 H32        -7.4880   -2.1270   -1.3200 ha        1 DCU      0.156667
     74 H33        -6.8930   -4.1480   -0.3220 ha        1 DCU      0.156667
     75 H34        -4.6530   -4.9130   -0.5040 ha        1 DCU      0.156667
     76 H35        -3.0290   -3.6780   -1.6680 ha        1 DCU      0.147000
     77 H361       -3.5570   -4.9310   -6.7510 hn        1 DCU      0.236500
     78 H362       -3.9150   -4.0050   -8.0240 hn        1 DCU      0.236500
     79 H371       -4.5380    5.4320   -3.3320 hn        1 DCU      0.236500
     80 H372       -5.0340    4.7490   -1.9770 hn        1 DCU      0.236500
@<TRIPOS>BOND
     1    1    2 1   
     2    1   22 1   
     3    1   37 1   
     4    1   38 1   
     5    2    3 1   
     6    2   39 1   
     7    2   40 1   
     8    3    4 1   
     9    3   41 1   
    10    3   42 1   
    11    4    5 1   
    12    4   43 1   
    13    4   44 1   
    14    5    6 1   
    15    5   45 1   
    16    5   46 1   
    17    6    7 1   
    18    6   47 1   
    19    6   48 1   
    20    7    8 1   
    21    7   49 1   
    22    7   50 1   
    23    8    9 1   
    24    8   51 1   
    25    8   52 1   
    26    9   10 1   
    27    9   53 1   
    28    9   54 1   
    29   10   11 1   
    30   10   55 1   
    31   10   56 1   
    32   11   12 1   
    33   11   13 1   
    34   11   14 1   
    35   12   57 1   
    36   12   58 1   
    37   12   59 1   
    38   13   60 1   
    39   13   61 1   
    40   13   62 1   
    41   14   63 1   
    42   14   64 1   
    43   14   65 1   
    44   15   20 1   
    45   15   66 1   
    46   16   17 1   
    47   16   24 1   
    48   17   21 1   
    49   18   19 1   
    50   18   67 1   
    51   19   35 1   
    52   20   68 1   
    53   22   23 1   
    54   23   25 1   
    55   24   28 1   
    56   25   69 1   
    57   26   27 1   
    58   26   36 1   
    59   27   70 1   
    60   28   71 1   
    61   29   34 1   
    62   30   31 1   
    63   30   72 1   
    64   31   73 1   
    65   32   33 1   
    66   32   74 1   
    67   33   75 1   
    68   34   76 1   
    69   35   77 1   
    70   35   78 1   
    71   36   79 1   
    72   36   80 1   
@<TRIPOS>SUBSTRUCTURE
     1 DCU         1 TEMP              0 ****  ****    0 ROOT
