@<TRIPOS>MOLECULE
DCU
   80    83     1     0     0
SMALL
bcc


@<TRIPOS>ATOM
      1 C2         -0.1220   -0.4720   -0.2280 c3        1 DCU     -0.009700
      2 C3          1.3780   -0.1870   -0.1600 c3        1 DCU     -0.098400
      3 C4          1.8570   -0.3370    1.2700 c3        1 DCU     -0.079400
      4 C5          3.3480   -0.0900    1.3690 c3        1 DCU     -0.078400
      5 C6          3.8320   -0.2390    2.7960 c3        1 DCU     -0.079400
      6 C7          5.3240    0.0030    2.8960 c3        1 DCU     -0.079400
      7 C8          5.8090   -0.1480    4.3230 c3        1 DCU     -0.079400
      8 C9          7.3020    0.0920    4.4180 c3        1 DCU     -0.080400
      9 C10         7.7820   -0.0610    5.8500 c3        1 DCU     -0.102400
     10 C11         9.2840    0.1840    5.8970 c3        1 DCU      0.112800
     11 N12         9.9210    0.0760    7.2610 n4        1 DCU     -0.603800
     12 C13         9.7220   -1.2900    7.8260 c3        1 DCU      0.088433
     13 C14         9.3430    1.0890    8.1910 c3        1 DCU      0.088433
     14 C15        11.3890    0.3330    7.1140 c3        1 DCU      0.088433
     15 C16        -2.5440    0.2160   -5.3640 ca        1 DCU     -0.103000
     16 C17        -1.9300    0.1030   -4.0910 ca        1 DCU      0.014000
     17 C18        -1.5470   -1.1920   -3.6540 ca        1 DCU     -0.061000
     18 C19        -1.7680   -2.3230   -4.4690 ca        1 DCU     -0.199000
     19 C20        -2.3640   -2.1950   -5.7320 ca        1 DCU      0.206600
     20 C21        -2.7570   -0.8800   -6.1600 ca        1 DCU     -0.114000
     21 C22        -0.9330   -1.3390   -2.3640 cp        1 DCU      0.167700
     22 N23        -0.7130   -0.2750   -1.5570 na        1 DCU      0.017900
     23 C24        -1.0520    1.0330   -1.9720 ca        1 DCU      0.042700
     24 C25        -1.6780    1.2240   -3.2390 ca        1 DCU     -0.076000
     25 C26        -0.7810    2.1460   -1.1420 ca        1 DCU     -0.269000
     26 C27        -1.1370    3.4490   -1.5380 ca        1 DCU      0.249600
     27 C28        -1.7810    3.6240   -2.8080 ca        1 DCU     -0.170000
     28 C29        -2.0290    2.5460   -3.6130 ca        1 DCU     -0.052000
     29 C30        -0.5470   -2.6990   -1.9240 cp        1 DCU     -0.134000
     30 C31         0.7410   -3.1790   -2.1940 ca        1 DCU     -0.100000
     31 C32         1.0840   -4.4770   -1.8190 ca        1 DCU     -0.123500
     32 C33         0.1520   -5.2910   -1.1730 ca        1 DCU     -0.092000
     33 C34        -1.1290   -4.8080   -0.9010 ca        1 DCU     -0.123500
     34 C35        -1.4840   -3.5130   -1.2740 ca        1 DCU     -0.100000
     35 N37        -0.8450    4.5340   -0.7570 nh        1 DCU     -0.854200
     36 H21A       -0.3040   -1.5400    0.0920 h1        1 DCU      0.091700
     37 H22        -0.6790    0.1860    0.5010 h1        1 DCU      0.091700
     38 H31A        1.9290   -0.9070   -0.8230 hc        1 DCU      0.063700
     39 H32A        1.6010    0.8490   -0.5300 hc        1 DCU      0.063700
     40 H41         1.3110    0.3890    1.9290 hc        1 DCU      0.049200
     41 H42         1.6220   -1.3690    1.6430 hc        1 DCU      0.049200
     42 H51         3.5850    0.9420    0.9970 hc        1 DCU      0.047700
     43 H52         3.8940   -0.8140    0.7090 hc        1 DCU      0.047700
     44 H61         3.5930   -1.2700    3.1690 hc        1 DCU      0.046200
     45 H62         3.2880    0.4870    3.4570 hc        1 DCU      0.046200
     46 H71         5.8680   -0.7220    2.2350 hc        1 DCU      0.047700
     47 H72         5.5630    1.0350    2.5250 hc        1 DCU      0.047700
     48 H81         5.2660    0.5790    4.9840 hc        1 DCU      0.048700
     49 H82         5.5680   -1.1800    4.6940 hc        1 DCU      0.048700
     50 H91         7.8410   -0.6360    3.7560 hc        1 DCU      0.055700
     51 H92         7.5400    1.1240    4.0460 hc        1 DCU      0.055700
     52 H101        7.5370   -1.0940    6.2130 hc        1 DCU      0.065200
     53 H102        7.2390    0.6720    6.5020 hc        1 DCU      0.065200
     54 H111        9.5050    1.2220    5.5130 hx        1 DCU      0.098700
     55 H112        9.8040   -0.5640    5.2310 hx        1 DCU      0.098700
     56 H131        8.6300   -1.4630    8.0190 hx        1 DCU      0.102811
     57 H132       10.2870   -1.3780    8.7930 hx        1 DCU      0.102811
     58 H133       10.1020   -2.0540    7.0970 hx        1 DCU      0.102811
     59 H141        9.4470    2.1120    7.7400 hx        1 DCU      0.102811
     60 H142        8.2590    0.8630    8.3690 hx        1 DCU      0.102811
     61 H143        9.8950    1.0520    9.1690 hx        1 DCU      0.102811
     62 H151       11.8340   -0.4320    6.4240 hx        1 DCU      0.102811
     63 H152       11.5470    1.3610    6.6930 hx        1 DCU      0.102811
     64 H153       11.8810    0.2600    8.1210 hx        1 DCU      0.102811
     65 H16        -2.8600    1.2050   -5.7330 ha        1 DCU      0.156000
     66 H19        -1.4590   -3.3140   -4.0990 ha        1 DCU      0.159000
     67 H21        -3.2350   -0.7540   -7.1460 ha        1 DCU      0.161000
     68 H26        -0.2710    2.0160   -0.1750 ha        1 DCU      0.148000
     69 H28        -2.0720    4.6360   -3.1360 ha        1 DCU      0.163000
     70 H29        -2.5210    2.7170   -4.5850 ha        1 DCU      0.159000
     71 H31         1.4750   -2.5410   -2.7100 ha        1 DCU      0.149000
     72 H32         2.0920   -4.8610   -2.0400 ha        1 DCU      0.157000
     73 H33         0.4260   -6.3180   -0.8820 ha        1 DCU      0.158000
     74 H34        -1.8660   -5.4510   -0.3940 ha        1 DCU      0.157000
     75 H35        -2.4980   -3.1380   -1.0680 ha        1 DCU      0.149000
     76 H361       -2.3860   -4.1850   -6.2060 hn        1 DCU      0.439800
     77 H362       -3.0860   -3.1730   -7.3770 hn        1 DCU      0.439800
     78 H371       -1.2000    5.4240   -1.0080 hn        1 DCU      0.442800
     79 H372       -0.5170    4.4020    0.1670 hn        1 DCU      0.442800
     80 N36        -2.5260   -3.2730   -6.5660 nh        1 DCU     -0.852200
@<TRIPOS>BOND
     1    1    2 1   
     2    1   22 1   
     3    1   36 1   
     4    1   37 1   
     5    2    3 1   
     6    2   38 1   
     7    2   39 1   
     8    3    4 1   
     9    3   40 1   
    10    3   41 1   
    11    4    5 1   
    12    4   42 1   
    13    4   43 1   
    14    5    6 1   
    15    5   44 1   
    16    5   45 1   
    17    6    7 1   
    18    6   46 1   
    19    6   47 1   
    20    7    8 1   
    21    7   48 1   
    22    7   49 1   
    23    8    9 1   
    24    8   50 1   
    25    8   51 1   
    26    9   10 1   
    27    9   52 1   
    28    9   53 1   
    29   10   11 1   
    30   10   54 1   
    31   10   55 1   
    32   11   12 1   
    33   11   13 1   
    34   11   14 1   
    35   12   56 1   
    36   12   57 1   
    37   12   58 1   
    38   13   59 1   
    39   13   60 1   
    40   13   61 1   
    41   14   62 1   
    42   14   63 1   
    43   14   64 1   
    44   15   16 ar  
    45   15   20 ar  
    46   15   65 1   
    47   16   17 ar  
    48   16   24 ar  
    49   17   18 ar  
    50   17   21 ar  
    51   18   19 ar  
    52   18   66 1   
    53   19   20 ar  
    54   19   80 1   
    55   20   67 1   
    56   21   22 1   
    57   21   29 1   
    58   22   23 2   
    59   23   24 ar  
    60   23   25 ar  
    61   24   28 ar  
    62   25   26 ar  
    63   25   68 1   
    64   26   27 ar  
    65   26   35 1   
    66   27   28 ar  
    67   27   69 1   
    68   28   70 1   
    69   29   30 ar  
    70   29   34 ar  
    71   30   31 ar  
    72   30   71 1   
    73   31   32 ar  
    74   31   72 1   
    75   32   33 ar  
    76   32   73 1   
    77   33   34 ar  
    78   33   74 1   
    79   34   75 1   
    80   35   78 1   
    81   35   79 1   
    82   76   80 1   
    83   77   80 1   
@<TRIPOS>SUBSTRUCTURE
     1 DCU         1 TEMP              0 ****  ****    0 ROOT
