@<TRIPOS>MOLECULE
DCU
   80    83     1     0     0
SMALL
bcc


@<TRIPOS>ATOM
      1 C2         -0.0670   -0.3090   -0.2230 c3        1 DCU     -0.009700
      2 C3          1.4430   -0.0820   -0.1620 c3        1 DCU     -0.098400
      3 C4          1.9140   -0.2030    1.2740 c3        1 DCU     -0.079400
      4 C5          3.4140   -0.0120    1.3690 c3        1 DCU     -0.078400
      5 C6          3.8900   -0.1340    2.8010 c3        1 DCU     -0.079400
      6 C7          5.3900    0.0520    2.8960 c3        1 DCU     -0.079400
      7 C8          5.8670   -0.0720    4.3290 c3        1 DCU     -0.079400
      8 C9          7.3680    0.1110    4.4190 c3        1 DCU     -0.080400
      9 C10         7.8410   -0.0150    5.8560 c3        1 DCU     -0.102400
     10 C11         9.3510    0.1740    5.8990 c3        1 DCU      0.112800
     11 N12         9.9830    0.0780    7.2670 n4        1 DCU     -0.603800
     12 C13         9.7400   -1.2670    7.8640 c3        1 DCU      0.088433
     13 C14         9.4360    1.1310    8.1710 c3        1 DCU      0.088433
     14 C15        11.4580    0.2850    7.1170 c3        1 DCU      0.088433
     15 C16        -2.4520    0.3010   -5.3870 ca        1 DCU     -0.103000
     16 C17        -1.8450    0.2060   -4.1090 ca        1 DCU      0.014000
     17 C18        -1.5140   -1.0870   -3.6280 ca        1 DCU     -0.061000
     18 C19        -1.7780   -2.2350   -4.4050 ca        1 DCU     -0.199000
     19 C20        -2.3660   -2.1260   -5.6730 ca        1 DCU      0.206600
     20 C21        -2.7070   -0.8120   -6.1460 ca        1 DCU     -0.114000
     21 C22        -0.9080   -1.2150   -2.3320 cp        1 DCU      0.167700
     22 N23        -0.6480   -0.1340   -1.5600 na        1 DCU      0.017900
     23 C24        -0.9350    1.1710   -2.0200 ca        1 DCU      0.042700
     24 C25        -1.5500    1.3440   -3.2940 ca        1 DCU     -0.076000
     25 C26        -0.6210    2.3010   -1.2260 ca        1 DCU     -0.269000
     26 C27        -0.9250    3.6020   -1.6660 ca        1 DCU      0.249600
     27 C28        -1.5600    3.7600   -2.9430 ca        1 DCU     -0.170000
     28 C29        -1.8490    2.6670   -3.7120 ca        1 DCU     -0.052000
     29 C30        -0.5760   -2.5730   -1.8460 cp        1 DCU     -0.134000
     30 C31         0.6920   -3.1120   -2.0960 ca        1 DCU     -0.100000
     31 C32         0.9840   -4.4090   -1.6770 ca        1 DCU     -0.123500
     32 C33         0.0200   -5.1640   -1.0080 ca        1 DCU     -0.092000
     33 C34        -1.2420   -4.6230   -0.7550 ca        1 DCU     -0.123500
     34 C35        -1.5450   -3.3280   -1.1720 ca        1 DCU     -0.100000
     35 N37        -0.5930    4.7010   -0.9200 nv        1 DCU     -0.854200
     36 H21A       -0.2920   -1.3580    0.1310 h1        1 DCU      0.091700
     37 H22        -0.5980    0.3940    0.4810 h1        1 DCU      0.091700
     38 H31A        1.9660   -0.8440   -0.7980 hc        1 DCU      0.063700
     39 H32A        1.7070    0.9320   -0.5640 hc        1 DCU      0.063700
     40 H41         1.3970    0.5640    1.9080 hc        1 DCU      0.049200
     41 H42         1.6380   -1.2120    1.6800 hc        1 DCU      0.049200
     42 H51         3.9320   -0.7790    0.7340 hc        1 DCU      0.047700
     43 H52         3.6920    0.9970    0.9640 hc        1 DCU      0.047700
     44 H61         3.6090   -1.1420    3.2070 hc        1 DCU      0.046200
     45 H62         3.3750    0.6350    3.4360 hc        1 DCU      0.046200
     46 H71         5.9050   -0.7160    2.2600 hc        1 DCU      0.047700
     47 H72         5.6710    1.0600    2.4920 hc        1 DCU      0.047700
     48 H81         5.3540    0.6970    4.9640 hc        1 DCU      0.048700
     49 H82         5.5840   -1.0800    4.7330 hc        1 DCU      0.048700
     50 H91         7.8790   -0.6590    3.7820 hc        1 DCU      0.055700
     51 H92         7.6480    1.1200    4.0140 hc        1 DCU      0.055700
     52 H101        7.5550   -1.0250    6.2520 hc        1 DCU      0.064700
     53 H102        7.3260    0.7590    6.4840 hc        1 DCU      0.064700
     54 H111        9.6110    1.1920    5.4870 hx        1 DCU      0.098700
     55 H112        9.8430   -0.6110    5.2550 hx        1 DCU      0.098700
     56 H131        8.6430   -1.4020    8.0560 hx        1 DCU      0.102811
     57 H132       10.2990   -1.3490    8.8350 hx        1 DCU      0.102811
     58 H133       10.1000   -2.0600    7.1550 hx        1 DCU      0.102811
     59 H141        9.5690    2.1380    7.6940 hx        1 DCU      0.102811
     60 H142        8.3450    0.9410    8.3540 hx        1 DCU      0.102811
     61 H143        9.9860    1.1030    9.1500 hx        1 DCU      0.102811
     62 H151       11.8790   -0.5080    6.4440 hx        1 DCU      0.102811
     63 H152       11.6500    1.2980    6.6740 hx        1 DCU      0.102811
     64 H153       11.9470    0.2180    8.1250 hx        1 DCU      0.102811
     65 H16        -2.7290    1.2890   -5.7900 ha        1 DCU      0.156000
     66 H19        -1.5080   -3.2240   -4.0020 ha        1 DCU      0.159000
     67 H21        -3.1780   -0.7000   -7.1380 ha        1 DCU      0.161000
     68 H26        -0.1190    2.1830   -0.2540 ha        1 DCU      0.148000
     69 H28        -1.8110    4.7710   -3.3050 ha        1 DCU      0.163000
     70 H29        -2.3320    2.8230   -4.6920 ha        1 DCU      0.159000
     71 H31         1.4520   -2.5210   -2.6310 ha        1 DCU      0.149000
     72 H32         1.9770   -4.8390   -1.8820 ha        1 DCU      0.157000
     73 H33         0.2530   -6.1910   -0.6820 ha        1 DCU      0.158000
     74 H34        -2.0040   -5.2200   -0.2290 ha        1 DCU      0.157000
     75 H35        -2.5450   -2.9070   -0.9820 ha        1 DCU      0.149000
     76 H361       -2.4650   -4.1280   -6.0820 hn        1 DCU      0.439800
     77 H362       -3.1230   -3.1300   -7.2870 hn        1 DCU      0.439800
     78 H371       -0.2710    4.5860    0.0080 hn        1 DCU      0.442800
     79 H372       -0.9120    5.5950   -1.2030 hn        1 DCU      0.442800
     80 N36        -2.5680   -3.2240   -6.4720 nv        1 DCU     -0.852200
@<TRIPOS>BOND
     1    1    2 1   
     2    1   22 1   
     3    1   36 1   
     4    1   37 1   
     5    2    3 1   
     6    2   38 1   
     7    2   39 1   
     8    3    4 1   
     9    3   40 1   
    10    3   41 1   
    11    4    5 1   
    12    4   42 1   
    13    4   43 1   
    14    5    6 1   
    15    5   44 1   
    16    5   45 1   
    17    6    7 1   
    18    6   46 1   
    19    6   47 1   
    20    7    8 1   
    21    7   48 1   
    22    7   49 1   
    23    8    9 1   
    24    8   50 1   
    25    8   51 1   
    26    9   10 1   
    27    9   52 1   
    28    9   53 1   
    29   10   11 1   
    30   10   54 1   
    31   10   55 1   
    32   11   12 1   
    33   11   13 1   
    34   11   14 1   
    35   12   56 1   
    36   12   57 1   
    37   12   58 1   
    38   13   59 1   
    39   13   60 1   
    40   13   61 1   
    41   14   62 1   
    42   14   63 1   
    43   14   64 1   
    44   15   16 ar  
    45   15   20 ar  
    46   15   65 1   
    47   16   17 ar  
    48   16   24 ar  
    49   17   18 ar  
    50   17   21 ar  
    51   18   19 ar  
    52   18   66 1   
    53   19   20 ar  
    54   19   80 1   
    55   20   67 1   
    56   21   22 1   
    57   21   29 1   
    58   22   23 2   
    59   23   24 ar  
    60   23   25 ar  
    61   24   28 ar  
    62   25   26 ar  
    63   25   68 1   
    64   26   27 ar  
    65   26   35 1   
    66   27   28 ar  
    67   27   69 1   
    68   28   70 1   
    69   29   30 ar  
    70   29   34 ar  
    71   30   31 ar  
    72   30   71 1   
    73   31   32 ar  
    74   31   72 1   
    75   32   33 ar  
    76   32   73 1   
    77   33   34 ar  
    78   33   74 1   
    79   34   75 1   
    80   35   78 1   
    81   35   79 1   
    82   76   80 1   
    83   77   80 1   
@<TRIPOS>SUBSTRUCTURE
     1 DCU         1 TEMP              0 ****  ****    0 ROOT
