@<TRIPOS>MOLECULE
DCU
   80    83     1     0     0
SMALL
bcc


@<TRIPOS>ATOM
      1 C2          1.5950   -0.2350    1.1390 c3        1 DCU     -0.009700
      2 C3          0.4570   -0.3190    0.1220 c3        1 DCU     -0.098400
      3 C4         -0.8720   -0.2150    0.8430 c3        1 DCU     -0.079400
      4 C5         -2.0240   -0.2660   -0.1400 c3        1 DCU     -0.078400
      5 C6         -3.3560   -0.1600    0.5750 c3        1 DCU     -0.079400
      6 C7         -4.5080   -0.2070   -0.4060 c3        1 DCU     -0.079400
      7 C8         -5.8400   -0.0970    0.3080 c3        1 DCU     -0.079400
      8 C9         -6.9890   -0.1420   -0.6780 c3        1 DCU     -0.080400
      9 C10        -8.3210   -0.0300    0.0430 c3        1 DCU     -0.102400
     10 C11        -9.4450   -0.0800   -0.9840 c3        1 DCU      0.112800
     11 N12       -10.8440    0.0220   -0.4260 n4        1 DCU     -0.603800
     12 C13       -11.0300    1.3190    0.2890 c3        1 DCU      0.088433
     13 C14       -11.1190   -1.1070    0.5100 c3        1 DCU      0.088433
     14 C15       -11.8090   -0.0460   -1.5680 c3        1 DCU      0.088433
     15 C16         6.8680   -0.8430   -0.9940 ca        1 DCU     -0.103000
     16 C17         5.5490   -0.7470   -0.4830 ca        1 DCU      0.014000
     17 C18         5.0270    0.5490   -0.2370 ca        1 DCU     -0.061000
     18 C19         5.8010    1.7000   -0.5010 ca        1 DCU     -0.199000
     19 C20         7.0990    1.5910   -1.0200 ca        1 DCU      0.206600
     20 C21         7.6210    0.2730   -1.2550 ca        1 DCU     -0.114000
     21 C22         3.6980    0.6780    0.2900 cp        1 DCU      0.167700
     22 N23         2.9330   -0.4070    0.5600 na        1 DCU      0.017900
     23 C24         3.4080   -1.7120    0.2980 ca        1 DCU      0.042700
     24 C25         4.7280   -1.8860   -0.2120 ca        1 DCU     -0.076000
     25 C26         2.5890   -2.8400    0.5410 ca        1 DCU     -0.269000
     26 C27         3.0620   -4.1430    0.3060 ca        1 DCU      0.249600
     27 C28         4.3980   -4.3050   -0.1920 ca        1 DCU     -0.170000
     28 C29         5.1820   -3.2110   -0.4390 ca        1 DCU     -0.052000
     29 C30         3.1740    2.0380    0.5460 cp        1 DCU     -0.134000
     30 C31         2.4570    2.7080   -0.4530 ca        1 DCU     -0.100000
     31 C32         2.0070    4.0080   -0.2240 ca        1 DCU     -0.123500
     32 C33         2.2650    4.6350    0.9960 ca        1 DCU     -0.092000
     33 C34         2.9770    3.9640    1.9920 ca        1 DCU     -0.123500
     34 C35         3.4340    2.6650    1.7720 ca        1 DCU     -0.100000
     35 N37         2.2630   -5.2370    0.5050 nh        1 DCU     -0.854200
     36 H21A        1.5520    0.7700    1.6520 h1        1 DCU      0.091700
     37 H22         1.4620   -1.0170    1.9420 h1        1 DCU      0.091700
     38 H31A        0.5070   -1.2830   -0.4480 hc        1 DCU      0.063700
     39 H32A        0.5530    0.5180   -0.6210 hc        1 DCU      0.063700
     40 H41        -0.9150    0.7440    1.4230 hc        1 DCU      0.049200
     41 H42        -0.9700   -1.0560    1.5800 hc        1 DCU      0.049200
     42 H51        -1.9830   -1.2250   -0.7200 hc        1 DCU      0.047700
     43 H52        -1.9260    0.5730   -0.8780 hc        1 DCU      0.047700
     44 H61        -3.3950    0.7980    1.1570 hc        1 DCU      0.046200
     45 H62        -3.4550   -1.0000    1.3120 hc        1 DCU      0.046200
     46 H71        -4.4700   -1.1660   -0.9870 hc        1 DCU      0.047700
     47 H72        -4.4070    0.6320   -1.1450 hc        1 DCU      0.047700
     48 H81        -5.8770    0.8620    0.8880 hc        1 DCU      0.048700
     49 H82        -5.9410   -0.9370    1.0450 hc        1 DCU      0.048700
     50 H91        -6.9500   -1.1030   -1.2560 hc        1 DCU      0.055700
     51 H92        -6.8850    0.6980   -1.4150 hc        1 DCU      0.055700
     52 H101       -8.3500    0.9320    0.6180 hc        1 DCU      0.064700
     53 H102       -8.4160   -0.8740    0.7760 hc        1 DCU      0.064700
     54 H111       -9.3880   -1.0530   -1.5520 hx        1 DCU      0.098700
     55 H112       -9.3200    0.7710   -1.7140 hx        1 DCU      0.098700
     56 H131      -10.3660    1.3490    1.1930 hx        1 DCU      0.102811
     57 H132      -10.7680    2.1650   -0.4000 hx        1 DCU      0.102811
     58 H133      -12.1010    1.4140    0.6120 hx        1 DCU      0.102811
     59 H141      -12.1930   -1.0650    0.8360 hx        1 DCU      0.102811
     60 H142      -10.9220   -2.0800   -0.0130 hx        1 DCU      0.102811
     61 H143      -10.4540   -1.0200    1.4100 hx        1 DCU      0.102811
     62 H151      -11.6140    0.8040   -2.2730 hx        1 DCU      0.102811
     63 H152      -11.6810   -1.0230   -2.1060 hx        1 DCU      0.102811
     64 H153      -12.8580    0.0290   -1.1730 hx        1 DCU      0.102811
     65 H16         7.3090   -1.8340   -1.1910 ha        1 DCU      0.156000
     66 H19         5.3660    2.6920   -0.2990 ha        1 DCU      0.159000
     67 H21         8.6440    0.1600   -1.6550 ha        1 DCU      0.161000
     68 H26         1.5580   -2.7170    0.9060 ha        1 DCU      0.148000
     69 H28         4.7910   -5.3180   -0.3790 ha        1 DCU      0.163000
     70 H29         6.2020   -3.3700   -0.8260 ha        1 DCU      0.159000
     71 H31         2.2590    2.2180   -1.4190 ha        1 DCU      0.149000
     72 H32         1.4520    4.5400   -1.0120 ha        1 DCU      0.157000
     73 H33         1.9120    5.6640    1.1710 ha        1 DCU      0.158000
     74 H34         3.1830    4.4600    2.9540 ha        1 DCU      0.157000
     75 H35         4.0040    2.1420    2.5550 ha        1 DCU      0.149000
     76 H361        8.8020    2.5880   -1.5600 hn        1 DCU      0.439300
     77 H362        7.5310    3.5910   -1.0470 hn        1 DCU      0.439300
     78 H371        1.3930   -5.1330    0.9630 hn        1 DCU      0.442800
     79 H372        2.6540   -6.1440    0.4330 hn        1 DCU      0.442800
     80 N36         7.8410    2.6990   -1.3460 nh        1 DCU     -0.852200
@<TRIPOS>BOND
     1    1    2 1   
     2    1   22 1   
     3    1   36 1   
     4    1   37 1   
     5    2    3 1   
     6    2   38 1   
     7    2   39 1   
     8    3    4 1   
     9    3   40 1   
    10    3   41 1   
    11    4    5 1   
    12    4   42 1   
    13    4   43 1   
    14    5    6 1   
    15    5   44 1   
    16    5   45 1   
    17    6    7 1   
    18    6   46 1   
    19    6   47 1   
    20    7    8 1   
    21    7   48 1   
    22    7   49 1   
    23    8    9 1   
    24    8   50 1   
    25    8   51 1   
    26    9   10 1   
    27    9   52 1   
    28    9   53 1   
    29   10   11 1   
    30   10   54 1   
    31   10   55 1   
    32   11   12 1   
    33   11   13 1   
    34   11   14 1   
    35   12   56 1   
    36   12   57 1   
    37   12   58 1   
    38   13   59 1   
    39   13   60 1   
    40   13   61 1   
    41   14   62 1   
    42   14   63 1   
    43   14   64 1   
    44   15   16 ar  
    45   15   20 ar  
    46   15   65 1   
    47   16   17 ar  
    48   16   24 ar  
    49   17   18 ar  
    50   17   21 ar  
    51   18   19 ar  
    52   18   66 1   
    53   19   20 ar  
    54   19   80 1   
    55   20   67 1   
    56   21   22 1   
    57   21   29 1   
    58   22   23 2   
    59   23   24 ar  
    60   23   25 ar  
    61   24   28 ar  
    62   25   26 ar  
    63   25   68 1   
    64   26   27 ar  
    65   26   35 1   
    66   27   28 ar  
    67   27   69 1   
    68   28   70 1   
    69   29   30 ar  
    70   29   34 ar  
    71   30   31 ar  
    72   30   71 1   
    73   31   32 ar  
    74   31   72 1   
    75   32   33 ar  
    76   32   73 1   
    77   33   34 ar  
    78   33   74 1   
    79   34   75 1   
    80   35   78 1   
    81   35   79 1   
    82   76   80 1   
    83   77   80 1   
@<TRIPOS>SUBSTRUCTURE
     1 DCU         1 TEMP              0 ****  ****    0 ROOT
