@<TRIPOS>MOLECULE
DCV
   33    33     1     0     0
SMALL
bcc


@<TRIPOS>ATOM
      1 C1          0.0000    0.0000    0.0000 c         1 DCV      0.289100
      2 N1          1.3480    0.0000    0.0000 nx        1 DCV      0.246300
      3 O1         -0.6060    0.0000    1.0500 o         1 DCV     -0.521100
      4 Cl1         6.9460   -2.5750    0.2270 cl        1 DCV     -0.060400
      5 C2          2.0800   -0.0070    1.2690 c3        1 DCV     -0.039200
      6 O2          2.0560    0.0060   -1.2270 oh        1 DCV     -0.529300
      7 Cl2         8.6380   -0.5820    1.9320 cl        1 DCV     -0.068400
      8 C3          2.0120   -1.4040    1.8890 c3        1 DCV     -0.000400
      9 C4          2.8220   -1.4260    3.1870 c3        1 DCV      0.005400
     10 C5         -0.7530    0.0070   -1.3050 c3        1 DCV     -0.054100
     11 PA1         2.6060   -3.0380    4.0110 p5        1 DCV      0.493700
     12 CAC         4.2810   -1.2150    2.8720 ca        1 DCV      0.022700
     13 CAD         5.0310   -0.3360    3.6300 ca        1 DCV     -0.102000
     14 CAE         4.8690   -1.9030    1.8270 ca        1 DCV     -0.109000
     15 CAF         6.3690   -0.1400    3.3420 ca        1 DCV     -0.097000
     16 CAG         6.2080   -1.7090    1.5380 ca        1 DCV     -0.018600
     17 CAH         6.9580   -0.8260    2.2940 ca        1 DCV     -0.065600
     18 OP1         3.5640   -3.1110    5.3040 o         1 DCV     -0.582833
     19 OP2         1.0720   -3.2050    4.4690 o         1 DCV     -0.582833
     20 OP3         2.9630   -4.1240    3.0720 o         1 DCV     -0.582833
     21 H2          1.6350    0.7110    1.9460 hx        1 DCV      0.063200
     22 H2A         3.1150    0.2580    1.0900 hx        1 DCV      0.063200
     23 HO2         2.0580   -0.8630   -1.5920 ho        1 DCV      0.423000
     24 H3          2.4220   -2.1280    1.1950 hc        1 DCV      0.042200
     25 H3A         0.9800   -1.6540    2.1040 hc        1 DCV      0.042200
     26 H4          2.4770   -0.6350    3.8430 hc        1 DCV      0.040700
     27 H5         -0.4040    0.8280   -1.9190 hc        1 DCV      0.026700
     28 H5A        -0.5850   -0.9290   -1.8240 hc        1 DCV      0.026700
     29 H5B        -1.8120    0.1260   -1.1090 hc        1 DCV      0.026700
     30 HAD         4.5700    0.2000    4.4510 ha        1 DCV      0.111000
     31 HAE         4.2950   -2.6330    1.2690 ha        1 DCV      0.148000
     32 HAF         6.9650    0.5190    3.9610 ha        1 DCV      0.101000
     33 H11         1.3480    1.0010    0.0060 hn        1 DCV      0.241800
@<TRIPOS>BOND
     1    1    2 1   
     2    1    3 2   
     3    1   10 1   
     4    2    5 1   
     5    2    6 1   
     6    2   33 1   
     7    4   16 1   
     8    5    8 1   
     9    5   21 1   
    10    5   22 1   
    11    6   23 1   
    12    7   17 1   
    13    8    9 1   
    14    8   24 1   
    15    8   25 1   
    16    9   11 1   
    17    9   12 1   
    18    9   26 1   
    19   10   27 1   
    20   10   28 1   
    21   10   29 1   
    22   11   18 1   
    23   11   19 1   
    24   11   20 1   
    25   12   13 ar  
    26   12   14 ar  
    27   13   15 ar  
    28   13   30 1   
    29   14   16 ar  
    30   14   31 1   
    31   15   17 ar  
    32   15   32 1   
    33   16   17 ar  
@<TRIPOS>SUBSTRUCTURE
     1 DCV         1 TEMP              0 ****  ****    0 ROOT
