@<TRIPOS>MOLECULE
DCV
   32    31     1     0     0
SMALL
bcc


@<TRIPOS>ATOM
      1 C1        -86.1580 -258.6200   10.0350 c2        1 DCV      0.279000
      2 N1        -85.2670 -259.7340   10.0760 n         1 DCV     -0.166000
      3 O1        -87.0820 -258.5250   10.8640 o         1 DCV     -0.357000
      4 CL1       -81.5610 -263.9480    8.5120 cl        1 DCV     -0.105000
      5 C2        -85.8300 -261.0380   10.4640 c3        1 DCV     -0.099000
      6 O2        -84.5130 -259.7890    8.9640 oh        1 DCV     -0.263000
      7 CL2       -81.8860 -266.9960    9.3290 cl        1 DCV     -0.095000
      8 C3        -86.4950 -261.8680    9.3590 c3        1 DCV     -0.073000
      9 C4        -86.5090 -263.2930    9.7200 c2        1 DCV     -0.453000
     10 C5        -85.8620 -257.5070    9.0640 c3        1 DCV     -0.234000
     11 PA1       603.7790    0.8850  -65.0300 p2        1 DCV      0.649000
     12 CAC       -85.4250 -264.1250    9.6140 ca        1 DCV      0.108000
     13 CAD       -85.5230 -265.5170    9.9690 ca        1 DCV     -0.262000
     14 CAE       -84.1370 -263.6830    9.1550 ca        1 DCV     -0.289000
     15 CAF       -84.4490 -266.3660    9.8760 ca        1 DCV     -0.052000
     16 CAG       -83.0740 -264.5560    9.0700 ca        1 DCV      0.046000
     17 CAH       -83.1990 -265.9050    9.4260 ca        1 DCV     -0.257000
     18 OP1       603.6800    0.5280  -64.4640 o         1 DCV     -0.427000
     19 OP2       604.5810    0.9140  -64.3430 os        1 DCV     -0.427000
     20 OP3       603.0770    0.2150  -66.2840 o         1 DCV     -0.795000
     21 H2        -84.9630 -261.6260   10.8790 h1        1 DCV      0.111500
     22 H2A       -86.5660 -260.8430   11.2910 h1        1 DCV      0.111500
     23 HO2       -83.7540 -260.3580    9.2010 ho        1 DCV      0.231000
     24 H3        -87.5410 -261.4920    9.2060 hc        1 DCV      0.058000
     25 H3A       -85.9430 -261.7110    8.3910 hc        1 DCV      0.058000
     26 H4        -87.4610 -263.6880   10.0910 ha        1 DCV      0.095000
     27 H5        -84.8320 -257.1120    9.2370 hc        1 DCV      0.099667
     28 H5A       -85.9200 -257.8980    8.0190 hc        1 DCV      0.099667
     29 H5B       -86.6050 -256.6860    9.2010 hc        1 DCV      0.099667
     30 HAD       -86.4930 -265.8900   10.3200 ha        1 DCV      0.102000
     31 HAE       -84.0180 -262.6300    8.8670 ha        1 DCV      0.108000
     32 HAF       -84.5550 -267.4250   10.1550 ha        1 DCV      0.100000
@<TRIPOS>BOND
     1    1    2 1   
     2    1    3 1   
     3    1   10 1   
     4    2    5 1   
     5    2    6 1   
     6    4   16 1   
     7    5    8 1   
     8    5   21 1   
     9    5   22 1   
    10    6   23 1   
    11    7   17 1   
    12    8    9 1   
    13    8   24 1   
    14    8   25 1   
    15    9   12 1   
    16    9   26 1   
    17   10   27 1   
    18   10   28 1   
    19   10   29 1   
    20   11   19 1   
    21   11   20 1   
    22   12   13 1   
    23   12   14 1   
    24   13   15 1   
    25   13   30 1   
    26   14   16 1   
    27   14   31 1   
    28   15   17 1   
    29   15   32 1   
    30   16   17 1   
    31   18   19 1   
@<TRIPOS>SUBSTRUCTURE
     1 DCV         1 TEMP              0 ****  ****    0 ROOT
