@<TRIPOS>MOLECULE
DCV
   32    29     1     0     0
SMALL
bcc


@<TRIPOS>ATOM
      1 C1         -1.8680    2.8450   -2.2660 c1        1 DCV      0.263000
      2 N1         -0.9160    1.8390   -1.8560 n2        1 DCV     -0.131000
      3 O1         -2.7420    3.2010   -1.5040 o         1 DCV     -0.360000
      4 CL1        -0.4700   -4.9740    2.2360 cl        1 DCV     -0.090500
      5 C2         -0.5650    1.7010   -0.4580 c3        1 DCV     -0.089000
      6 O2         -0.2980    1.0580   -2.7970 oh        1 DCV     -0.253000
      7 CL2         2.3140   -5.6740    1.7410 cl        1 DCV     -0.090500
      8 C3         -0.4340    0.2040   -0.1060 c3        1 DCV     -0.087000
      9 C4          0.5020    0.0420    1.0790 c3        1 DCV     -0.489000
     10 C5         -1.7950    3.4370   -3.6780 c3        1 DCV     -0.256000
     11 PA1        -0.3790    0.4470    2.6030 p5        1 DCV      1.402500
     12 CAC         0.9950   -1.3970    1.1450 c2        1 DCV      0.108000
     13 CAD         2.3360   -1.6820    0.9070 c2        1 DCV     -0.266000
     14 CAE         0.1340   -2.4060    1.5580 c1        1 DCV     -0.296000
     15 CAF         2.8140   -2.9760    1.0820 c1        1 DCV     -0.052000
     16 CAG         0.6140   -3.7040    1.7340 c1        1 DCV     -0.104000
     17 CAH         1.9510   -3.9870    1.4960 c1        1 DCV     -0.104000
     18 OP1        -1.7650   -0.1480    2.5560 o         1 DCV     -0.800500
     19 OP2         0.3730   -0.1180    3.7860 o         1 DCV     -0.800500
     20 OP3        -0.4800    1.9450    2.7420 o         1 DCV     -0.800500
     21 H2         -1.2630    2.1070    0.0960 h1        1 DCV      0.093500
     22 H2A         0.2890    2.1520   -0.2900 h1        1 DCV      0.093500
     23 HO2         0.2450    1.5600   -3.2900 ho        1 DCV      0.226000
     24 H3         -1.3150   -0.1550    0.1230 hc        1 DCV      0.063500
     25 H3A        -0.0740   -0.2800   -0.8730 hc        1 DCV      0.063500
     26 H4          1.2630    0.6410    0.9760 hc        1 DCV      0.094000
     27 H5         -1.8000    2.7110   -4.3370 hc        1 DCV      0.111333
     28 H5A        -0.9690    3.9580   -3.7730 hc        1 DCV      0.111333
     29 H5B        -2.5720    4.0230   -3.8300 hc        1 DCV      0.111333
     30 HAD         2.9410   -0.9740    0.6170 ha        1 DCV      0.104000
     31 HAE        -0.8180   -2.2200    1.6670 ha        1 DCV      0.121000
     32 HAF         3.7560   -3.1760    0.9150 ha        1 DCV      0.104000
@<TRIPOS>BOND
     1    1    3 1   
     2    1   10 1   
     3    2    5 1   
     4    2    6 1   
     5    4   16 1   
     6    5    8 1   
     7    5   21 1   
     8    5   22 1   
     9    6   23 1   
    10    7   17 1   
    11    8    9 1   
    12    8   24 1   
    13    8   25 1   
    14    9   11 1   
    15    9   12 1   
    16    9   26 1   
    17   10   27 1   
    18   10   28 1   
    19   10   29 1   
    20   11   18 1   
    21   11   19 1   
    22   11   20 1   
    23   12   13 1   
    24   12   14 1   
    25   13   15 1   
    26   13   30 1   
    27   14   31 1   
    28   15   32 1   
    29   16   17 1   
@<TRIPOS>SUBSTRUCTURE
     1 DCV         1 TEMP              0 ****  ****    0 ROOT
