@<TRIPOS>MOLECULE
DCV
   32    31     1     0     0
SMALL
bcc


@<TRIPOS>ATOM
      1 C1        120.8690  110.5550 -175.9270 c2        1 DCV      0.279000
      2 N1        121.8030  110.3140 -174.8750 n         1 DCV     -0.166000
      3 O1        119.6520  110.6350 -175.6780 o         1 DCV     -0.357000
      4 CL1       126.5080  108.5670 -171.9270 cl        1 DCV     -0.105000
      5 C2        121.3780  109.4220 -173.7830 c3        1 DCV     -0.099000
      6 O2        123.0170  110.0100 -175.3700 oh        1 DCV     -0.263000
      7 CL2       126.4010  106.9300 -169.2120 cl        1 DCV     -0.095000
      8 C3        121.5450  107.9150 -174.0070 c3        1 DCV     -0.073000
      9 C4        121.6210  107.2060 -172.7210 c2        1 DCV     -0.453000
     10 C5        121.4060  110.8500 -177.3030 c3        1 DCV     -0.234000
     11 PA1      -834.2970 -767.3310    0.1240 p3        1 DCV      2.361000
     12 CAC       122.7420  107.1560 -171.9340 ca        1 DCV      0.108000
     13 CAD       122.7450  106.4240 -170.6940 ca        1 DCV     -0.262000
     14 CAE       123.9710  107.8180 -172.2750 ca        1 DCV     -0.289000
     15 CAF       123.8540  106.3660 -169.8890 ca        1 DCV     -0.052000
     16 CAG       125.0730  107.7440 -171.4490 ca        1 DCV      0.046000
     17 CAH       125.0430  107.0260 -170.2470 ca        1 DCV     -0.257000
     18 OP1      -834.9640 -766.0630    0.7770 o         1 DCV     -1.120000
     19 OP2      -834.8960 -768.6140    0.7190 o         1 DCV     -1.120000
     20 OP3      -833.0300 -767.3140    0.8780 o         1 DCV     -1.120000
     21 H2        122.0030  109.7220 -172.8930 h1        1 DCV      0.111500
     22 H2A       120.3020  109.6600 -173.5670 h1        1 DCV      0.111500
     23 HO2       123.6360  110.1650 -174.6300 ho        1 DCV      0.231000
     24 H3        122.4730  107.7280 -174.6160 hc        1 DCV      0.058000
     25 H3A       120.6750  107.5410 -174.6090 hc        1 DCV      0.058000
     26 H4        120.7100  106.6920 -172.3980 ha        1 DCV      0.095000
     27 H5        120.5590  111.0810 -177.9910 hc        1 DCV      0.099667
     28 H5A       122.1050  111.7190 -177.2620 hc        1 DCV      0.099667
     29 H5B       121.9690  109.9620 -177.6810 hc        1 DCV      0.099667
     30 HAD       121.8230  105.9030 -170.4040 ha        1 DCV      0.102000
     31 HAE       124.0170  108.3830 -173.2150 ha        1 DCV      0.108000
     32 HAF       123.8250  105.7980 -168.9470 ha        1 DCV      0.100000
@<TRIPOS>BOND
     1    1    2 1   
     2    1    3 1   
     3    1   10 1   
     4    2    5 1   
     5    2    6 1   
     6    4   16 1   
     7    5    8 1   
     8    5   21 1   
     9    5   22 1   
    10    6   23 1   
    11    7   17 1   
    12    8    9 1   
    13    8   24 1   
    14    8   25 1   
    15    9   12 1   
    16    9   26 1   
    17   10   27 1   
    18   10   28 1   
    19   10   29 1   
    20   11   18 1   
    21   11   19 1   
    22   11   20 1   
    23   12   13 1   
    24   12   14 1   
    25   13   15 1   
    26   13   30 1   
    27   14   16 1   
    28   14   31 1   
    29   15   17 1   
    30   15   32 1   
    31   16   17 1   
@<TRIPOS>SUBSTRUCTURE
     1 DCV         1 TEMP              0 ****  ****    0 ROOT
