@<TRIPOS>MOLECULE
DCW
   40    41     1     0     0
SMALL
bcc


@<TRIPOS>ATOM
      1 N1          1.1190   -0.8440   -0.0880 n         1 DCW     -0.533400
      2 O1          1.0130    1.3880    0.3820 o         1 DCW     -0.634100
      3 C1          0.4090    0.3670    0.1220 c         1 DCW      0.731100
      4 C2          2.5500   -0.8620    0.0070 c3        1 DCW      0.087200
      5 N2         -1.0080    0.3790    0.0530 n         1 DCW     -0.533400
      6 C3          2.9550   -1.8150    1.1150 c3        1 DCW     -0.092650
      7 C7          3.1260   -1.2590   -1.3400 c3        1 DCW     -0.092650
      8 C4          2.6700   -3.2600    0.7670 c3        1 DCW     -0.075650
      9 C5          3.2460   -3.6570   -0.5790 c3        1 DCW     -0.079900
     10 C6          2.8410   -2.7040   -1.6860 c3        1 DCW     -0.075650
     11 C8         -1.6370    1.4450    0.2600 c3        1 DCW      0.087200
     12 C9         -2.4670    1.9040   -1.0200 c3        1 DCW     -0.092650
     13 C13        -2.9070    1.2160    1.2340 c3        1 DCW     -0.092650
     14 C10        -3.2640    3.1780   -0.7890 c3        1 DCW     -0.075650
     15 C11        -3.4400    3.4220    0.5340 c3        1 DCW     -0.079900
     16 C12        -3.6970    2.4750    1.4810 c3        1 DCW     -0.075650
     17 H1          0.6650   -1.6130   -0.2740 hn        1 DCW      0.285000
     18 H2          2.8640    0.0360    0.2330 h1        1 DCW      0.091200
     19 HA         -1.4630   -0.3910   -0.1350 hn        1 DCW      0.285000
     20 H31C        3.9130   -1.7140    1.2840 hc        1 DCW      0.049200
     21 H32C        2.4640   -1.5820    1.9280 hc        1 DCW      0.049200
     22 H71C        2.7390   -0.6860   -2.0310 hc        1 DCW      0.049200
     23 H72C        4.0950   -1.1240   -1.3220 hc        1 DCW      0.049200
     24 H8         -1.0540    2.1580    0.5880 h1        1 DCW      0.091200
     25 H41C        3.0570   -3.8330    1.4590 hc        1 DCW      0.039325
     26 H42C        1.7020   -3.3950    0.7490 hc        1 DCW      0.039325
     27 H61C        1.8830   -2.8050   -1.8560 hc        1 DCW      0.039325
     28 H62C        3.3330   -2.9370   -2.4990 hc        1 DCW      0.039325
     29 H51C        4.2220   -3.6700   -0.5140 hc        1 DCW      0.041950
     30 H52C        2.9320   -4.5550   -0.8040 hc        1 DCW      0.041950
     31 H91C       -1.8450    2.0530   -1.7610 hc        1 DCW      0.049200
     32 H92C       -3.0850    1.1880   -1.2680 hc        1 DCW      0.049200
     33 H131       -3.4970    0.5490    0.8290 hc        1 DCW      0.049200
     34 H132       -2.5870    0.8730    2.0930 hc        1 DCW      0.049200
     35 H101       -2.7860    3.9320   -1.1920 hc        1 DCW      0.039325
     36 H102       -4.1400    3.0900   -1.2170 hc        1 DCW      0.039325
     37 H121       -4.6530    2.2610    1.4680 hc        1 DCW      0.039325
     38 H122       -3.4610    2.8330    2.3620 hc        1 DCW      0.039325
     39 H111       -4.1760    4.0690    0.5930 hc        1 DCW      0.041950
     40 H112       -2.6290    3.8880    0.8320 hc        1 DCW      0.041950
@<TRIPOS>BOND
     1    1    3 1   
     2    1    4 1   
     3    1   17 1   
     4    2    3 2   
     5    3    5 1   
     6    4    6 1   
     7    4    7 1   
     8    4   18 1   
     9    5   11 1   
    10    5   19 1   
    11    6    8 1   
    12    6   20 1   
    13    6   21 1   
    14    7   10 1   
    15    7   22 1   
    16    7   23 1   
    17    8    9 1   
    18    8   25 1   
    19    8   26 1   
    20    9   10 1   
    21    9   29 1   
    22    9   30 1   
    23   10   27 1   
    24   10   28 1   
    25   11   12 1   
    26   11   13 1   
    27   11   24 1   
    28   12   14 1   
    29   12   31 1   
    30   12   32 1   
    31   13   16 1   
    32   13   33 1   
    33   13   34 1   
    34   14   15 1   
    35   14   35 1   
    36   14   36 1   
    37   15   16 1   
    38   15   39 1   
    39   15   40 1   
    40   16   37 1   
    41   16   38 1   
@<TRIPOS>SUBSTRUCTURE
     1 DCW         1 TEMP              0 ****  ****    0 ROOT
