@<TRIPOS>MOLECULE
DCW
   42    43     1     0     0
SMALL
bcc


@<TRIPOS>ATOM
      1 N1          0.5770    1.3190   -0.8890 n4        1 DCW     -0.663800
      2 O1          0.7050    1.4980   -3.2300 o         1 DCW     -0.300100
      3 C1          0.0950    1.0540   -2.2690 c         1 DCW      0.492100
      4 C2          1.6670    0.3190   -0.4490 c3        1 DCW      0.135500
      5 N2         -1.1350    0.2430   -2.4720 n4        1 DCW     -0.663800
      6 C3          2.4140    0.8960    0.7590 c3        1 DCW     -0.107400
      7 C7          1.0670   -1.0440   -0.1150 c3        1 DCW     -0.107400
      8 C4          3.5300   -0.0650    1.1410 c3        1 DCW     -0.078900
      9 C5          2.9910   -1.4460    1.4430 c3        1 DCW     -0.099400
     10 C6          2.1920   -1.9920    0.2810 c3        1 DCW     -0.078900
     11 C8         -2.3900    1.1240   -2.6520 c3        1 DCW      0.135500
     12 C9         -3.5030    0.2800   -3.2820 c3        1 DCW     -0.107400
     13 C13        -2.8450    1.7180   -1.3230 c3        1 DCW     -0.107400
     14 C10        -4.7120    1.1730   -3.5170 c3        1 DCW     -0.078900
     15 C11        -5.1800    1.8220   -2.2340 c3        1 DCW     -0.099400
     16 C12        -4.0650    2.5980   -1.5690 c3        1 DCW     -0.078900
     17 H1          1.0100    2.2640   -0.8880 hn        1 DCW      0.492300
     18 H2          2.3770    0.2360   -1.3280 hx        1 DCW      0.130700
     19 HA         -1.0090   -0.2950   -3.3520 hn        1 DCW      0.492300
     20 H31C        1.7180    1.0210    1.6290 hc        1 DCW      0.065950
     21 H32C        2.8630    1.8950    0.5110 hc        1 DCW      0.065950
     22 H71C        0.5320   -1.4720   -1.0020 hc        1 DCW      0.065950
     23 H72C        0.3440   -0.9610    0.7400 hc        1 DCW      0.065950
     24 H8         -2.0860    1.9450   -3.3710 hx        1 DCW      0.130700
     25 H41C        4.2880   -0.1170    0.3160 hc        1 DCW      0.087450
     26 H42C        4.0500    0.3470    2.0490 hc        1 DCW      0.087450
     27 H61C        2.8640   -2.1690   -0.6000 hc        1 DCW      0.087450
     28 H62C        1.7380   -2.9810    0.5640 hc        1 DCW      0.087450
     29 H51C        3.8500   -2.1390    1.6570 hc        1 DCW      0.087700
     30 H52C        2.3540   -1.4160    2.3670 hc        1 DCW      0.087700
     31 H91C       -3.1710   -0.1510   -4.2640 hc        1 DCW      0.065950
     32 H92C       -3.7930   -0.5620   -2.5990 hc        1 DCW      0.065950
     33 H131       -2.0350    2.3470   -0.8690 hc        1 DCW      0.065950
     34 H132       -3.1240    0.9060   -0.5990 hc        1 DCW      0.065950
     35 H101       -4.4630    1.9580   -4.2800 hc        1 DCW      0.087450
     36 H102       -5.5370    0.5400   -3.9460 hc        1 DCW      0.087450
     37 H121       -4.4170    2.9990   -0.5810 hc        1 DCW      0.087450
     38 H122       -3.7750    3.4760   -2.2050 hc        1 DCW      0.087450
     39 H111       -5.5750    1.0410   -1.5310 hc        1 DCW      0.087700
     40 H112       -6.0310    2.5210   -2.4610 hc        1 DCW      0.087700
     41 H12        -0.1880    1.3120   -0.2000 hn        1 DCW      0.492300
     42 H22        -1.2940   -0.4220   -1.7030 hn        1 DCW      0.492300
@<TRIPOS>BOND
     1    1    3 1   
     2    1    4 1   
     3    1   17 1   
     4    1   41 1   
     5    2    3 2   
     6    3    5 1   
     7    4    6 1   
     8    4    7 1   
     9    4   18 1   
    10    5   11 1   
    11    5   19 1   
    12    5   42 1   
    13    6    8 1   
    14    6   20 1   
    15    6   21 1   
    16    7   10 1   
    17    7   22 1   
    18    7   23 1   
    19    8    9 1   
    20    8   25 1   
    21    8   26 1   
    22    9   10 1   
    23    9   29 1   
    24    9   30 1   
    25   10   27 1   
    26   10   28 1   
    27   11   12 1   
    28   11   13 1   
    29   11   24 1   
    30   12   14 1   
    31   12   31 1   
    32   12   32 1   
    33   13   16 1   
    34   13   33 1   
    35   13   34 1   
    36   14   15 1   
    37   14   35 1   
    38   14   36 1   
    39   15   16 1   
    40   15   39 1   
    41   15   40 1   
    42   16   37 1   
    43   16   38 1   
@<TRIPOS>SUBSTRUCTURE
     1 DCW         1 TEMP              0 ****  ****    0 ROOT
