@<TRIPOS>MOLECULE
DCW
   42    43     1     0     0
SMALL
bcc


@<TRIPOS>ATOM
      1 N1          0.5800    1.3130   -0.8820 n4        1 DCW     -0.663800
      2 O1          0.7040    1.5160   -3.2220 o         1 DCW     -0.300100
      3 C1          0.0940    1.0630   -2.2640 c         1 DCW      0.493100
      4 C2          1.6680    0.3060   -0.4550 c3        1 DCW      0.135500
      5 N2         -1.1380    0.2590   -2.4730 n4        1 DCW     -0.663800
      6 C3          2.4170    0.8670    0.7600 c3        1 DCW     -0.107400
      7 C7          1.0670   -1.0600   -0.1390 c3        1 DCW     -0.107400
      8 C4          3.5300   -0.1020    1.1300 c3        1 DCW     -0.078900
      9 C5          2.9900   -1.4850    1.4140 c3        1 DCW     -0.099400
     10 C6          2.1890   -2.0160    0.2450 c3        1 DCW     -0.078900
     11 C8         -2.3910    1.1450   -2.6420 c3        1 DCW      0.135500
     12 C9         -3.5100    0.3100   -3.2760 c3        1 DCW     -0.107400
     13 C13        -2.8400    1.7310   -1.3070 c3        1 DCW     -0.107400
     14 C10        -4.7160    1.2090   -3.5000 c3        1 DCW     -0.078900
     15 C11        -5.1780    1.8490   -2.2100 c3        1 DCW     -0.099400
     16 C12        -4.0580    2.6160   -1.5430 c3        1 DCW     -0.078900
     17 H1         -0.1840    1.3000   -0.1920 hn        1 DCW      0.492300
     18 H2          2.3780    0.2340   -1.3350 hx        1 DCW      0.130700
     19 HA         -1.2990   -0.4130   -1.7110 hn        1 DCW      0.492300
     20 H31C        1.7200    0.9810    1.6320 hc        1 DCW      0.065950
     21 H32C        2.8660    1.8680    0.5250 hc        1 DCW      0.065950
     22 H71C        0.3440   -0.9880    0.7170 hc        1 DCW      0.065950
     23 H72C        0.5310   -1.4760   -1.0320 hc        1 DCW      0.065950
     24 H8         -2.0860    1.9700   -3.3560 hx        1 DCW      0.130700
     25 H41C        4.0510    0.2980    2.0430 hc        1 DCW      0.087450
     26 H42C        4.2890   -0.1430    0.3040 hc        1 DCW      0.087450
     27 H61C        2.8620   -2.1820   -0.6380 hc        1 DCW      0.087450
     28 H62C        1.7340   -3.0070    0.5140 hc        1 DCW      0.087450
     29 H51C        2.3530   -1.4660    2.3380 hc        1 DCW      0.087700
     30 H52C        3.8480   -2.1830    1.6190 hc        1 DCW      0.087700
     31 H91C       -3.1820   -0.1140   -4.2620 hc        1 DCW      0.065950
     32 H92C       -3.7990   -0.5370   -2.5980 hc        1 DCW      0.065950
     33 H131       -3.1200    0.9140   -0.5890 hc        1 DCW      0.065950
     34 H132       -2.0270    2.3530   -0.8510 hc        1 DCW      0.065950
     35 H101       -5.5440    0.5820   -3.9310 hc        1 DCW      0.087450
     36 H102       -4.4670    1.9990   -4.2570 hc        1 DCW      0.087450
     37 H121       -4.4060    3.0110   -0.5500 hc        1 DCW      0.087450
     38 H122       -3.7670    3.4980   -2.1730 hc        1 DCW      0.087450
     39 H111       -6.0270    2.5530   -2.4290 hc        1 DCW      0.087700
     40 H112       -5.5730    1.0640   -1.5120 hc        1 DCW      0.087700
     41 H12         1.0140    2.2570   -0.8720 hn        1 DCW      0.492300
     42 H22        -1.0160   -0.2710   -3.3590 hn        1 DCW      0.492300
@<TRIPOS>BOND
     1    1    3 1   
     2    1    4 1   
     3    1   17 1   
     4    1   41 1   
     5    2    3 2   
     6    3    5 1   
     7    4    6 1   
     8    4    7 1   
     9    4   18 1   
    10    5   11 1   
    11    5   19 1   
    12    5   42 1   
    13    6    8 1   
    14    6   20 1   
    15    6   21 1   
    16    7   10 1   
    17    7   22 1   
    18    7   23 1   
    19    8    9 1   
    20    8   25 1   
    21    8   26 1   
    22    9   10 1   
    23    9   29 1   
    24    9   30 1   
    25   10   27 1   
    26   10   28 1   
    27   11   12 1   
    28   11   13 1   
    29   11   24 1   
    30   12   14 1   
    31   12   31 1   
    32   12   32 1   
    33   13   16 1   
    34   13   33 1   
    35   13   34 1   
    36   14   15 1   
    37   14   35 1   
    38   14   36 1   
    39   15   16 1   
    40   15   39 1   
    41   15   40 1   
    42   16   37 1   
    43   16   38 1   
@<TRIPOS>SUBSTRUCTURE
     1 DCW         1 TEMP              0 ****  ****    0 ROOT
