@<TRIPOS>MOLECULE
DCW
   42    43     1     0     0
SMALL
bcc


@<TRIPOS>ATOM
      1 N1          0.5710    1.3180   -0.8550 ny        1 DCW     -0.663800
      2 O1          0.7140    1.5720   -3.1880 o         1 DCW     -0.300100
      3 C1          0.1000    1.0940   -2.2460 c         1 DCW      0.492100
      4 C2          1.6640    0.3090   -0.4390 c3        1 DCW      0.135500
      5 N2         -1.1240    0.2850   -2.4830 ny        1 DCW     -0.663800
      6 C3          2.4000    0.8510    0.7910 c3        1 DCW     -0.107400
      7 C7          1.0690   -1.0660   -0.1540 c3        1 DCW     -0.107400
      8 C4          3.5170   -0.1170    1.1510 c3        1 DCW     -0.078900
      9 C5          2.9840   -1.5090    1.4040 c3        1 DCW     -0.099400
     10 C6          2.1960   -2.0220    0.2190 c3        1 DCW     -0.078900
     11 C8         -2.3830    1.1650   -2.6430 c3        1 DCW      0.135500
     12 C9         -3.4880    0.3360   -3.3080 c3        1 DCW     -0.107400
     13 C13        -2.8490    1.7150   -1.2990 c3        1 DCW     -0.107400
     14 C10        -4.6990    1.2300   -3.5220 c3        1 DCW     -0.078900
     15 C11        -5.1790    1.8350   -2.2220 c3        1 DCW     -0.099400
     16 C12        -4.0720    2.5960   -1.5260 c3        1 DCW     -0.078900
     17 H1          0.9990    2.2650   -0.8210 hn        1 DCW      0.492300
     18 H2          2.3800    0.2590   -1.3160 hx        1 DCW      0.130700
     19 HA         -1.2860   -0.4050   -1.7370 hn        1 DCW      0.492300
     20 H31C        2.8450    1.8600    0.5790 hc        1 DCW      0.065950
     21 H32C        1.6960    0.9440    1.6610 hc        1 DCW      0.065950
     22 H71C        0.3400   -1.0150    0.6980 hc        1 DCW      0.065950
     23 H72C        0.5420   -1.4680   -1.0590 hc        1 DCW      0.065950
     24 H8         -2.0780    2.0090   -3.3340 hx        1 DCW      0.130700
     25 H41C        4.0290    0.2690    2.0750 hc        1 DCW      0.087450
     26 H42C        4.2820   -0.1370    0.3300 hc        1 DCW      0.087450
     27 H61C        1.7450   -3.0210    0.4660 hc        1 DCW      0.087450
     28 H62C        2.8750   -2.1670   -0.6620 hc        1 DCW      0.087450
     29 H51C        2.3410   -1.5120    2.3230 hc        1 DCW      0.087700
     30 H52C        3.8460   -2.2040    1.6010 hc        1 DCW      0.087700
     31 H91C       -3.7770   -0.5290   -2.6540 hc        1 DCW      0.065950
     32 H92C       -3.1470   -0.0620   -4.3010 hc        1 DCW      0.065950
     33 H131       -2.0460    2.3320   -0.8200 hc        1 DCW      0.065950
     34 H132       -3.1290    0.8790   -0.6040 hc        1 DCW      0.065950
     35 H101       -4.4490    2.0400   -4.2580 hc        1 DCW      0.087450
     36 H102       -5.5180    0.6070   -3.9770 hc        1 DCW      0.087450
     37 H121       -3.7820    3.4940   -2.1320 hc        1 DCW      0.087450
     38 H122       -4.4330    2.9640   -0.5270 hc        1 DCW      0.087450
     39 H111       -6.0310    2.5380   -2.4330 hc        1 DCW      0.087700
     40 H112       -5.5750    1.0310   -1.5470 hc        1 DCW      0.087700
     41 H12        -0.1980    1.2840   -0.1720 hn        1 DCW      0.492300
     42 H22        -0.9900   -0.2250   -3.3790 hn        1 DCW      0.492300
@<TRIPOS>BOND
     1    1    3 1   
     2    1    4 1   
     3    1   17 1   
     4    1   41 1   
     5    2    3 2   
     6    3    5 1   
     7    4    6 1   
     8    4    7 1   
     9    4   18 1   
    10    5   11 1   
    11    5   19 1   
    12    5   42 1   
    13    6    8 1   
    14    6   20 1   
    15    6   21 1   
    16    7   10 1   
    17    7   22 1   
    18    7   23 1   
    19    8    9 1   
    20    8   25 1   
    21    8   26 1   
    22    9   10 1   
    23    9   29 1   
    24    9   30 1   
    25   10   27 1   
    26   10   28 1   
    27   11   12 1   
    28   11   13 1   
    29   11   24 1   
    30   12   14 1   
    31   12   31 1   
    32   12   32 1   
    33   13   16 1   
    34   13   33 1   
    35   13   34 1   
    36   14   15 1   
    37   14   35 1   
    38   14   36 1   
    39   15   16 1   
    40   15   39 1   
    41   15   40 1   
    42   16   37 1   
    43   16   38 1   
@<TRIPOS>SUBSTRUCTURE
     1 DCW         1 TEMP              0 ****  ****    0 ROOT
