@<TRIPOS>MOLECULE
DCW
   40    41     1     0     0
SMALL
bcc


@<TRIPOS>ATOM
      1 N1          1.1740   -0.3000   -0.8010 n         1 DCW     -0.534900
      2 O1          0.0000   -0.0090    1.1810 o         1 DCW     -0.632100
      3 C1          0.0000    0.0000   -0.0740 c         1 DCW      0.731100
      4 C2          2.4450   -0.2460   -0.0970 c3        1 DCW      0.084700
      5 N2         -1.1740    0.3110   -0.7970 n         1 DCW     -0.534900
      6 C3          3.5040   -1.0990   -0.8160 c3        1 DCW     -0.091900
      7 C7          2.9890    1.1820    0.0880 c3        1 DCW     -0.091900
      8 C4          4.7910   -1.1150   -0.0180 c3        1 DCW     -0.074900
      9 C5          5.3220    0.2850    0.2080 c3        1 DCW     -0.079400
     10 C6          4.2810    1.1600    0.8750 c3        1 DCW     -0.074900
     11 C8         -2.4450    0.2470   -0.0930 c3        1 DCW      0.084700
     12 C9         -3.5030    1.1110   -0.7990 c3        1 DCW     -0.091900
     13 C13        -2.9890   -1.1830    0.0700 c3        1 DCW     -0.091900
     14 C10        -4.7900    1.1150   -0.0010 c3        1 DCW     -0.074900
     15 C11        -5.3220   -0.2880    0.2040 c3        1 DCW     -0.079400
     16 C12        -4.2810   -1.1730    0.8570 c3        1 DCW     -0.074900
     17 H1          1.2180    0.0330   -1.7390 hn        1 DCW      0.284500
     18 H2          2.2700   -0.6860    0.9330 h1        1 DCW      0.091700
     19 HA         -1.2180   -0.0070   -1.7400 hn        1 DCW      0.284500
     20 H31C        3.1280   -2.1480   -0.9390 hc        1 DCW      0.045450
     21 H32C        3.6990   -0.6830   -1.8380 hc        1 DCW      0.045450
     22 H71C        3.1640    1.6550   -0.9130 hc        1 DCW      0.045450
     23 H72C        2.2290    1.8000    0.6340 hc        1 DCW      0.045450
     24 H8         -2.2690    0.6720    0.9430 h1        1 DCW      0.091700
     25 H41C        4.6120   -1.6120    0.9720 hc        1 DCW      0.043950
     26 H42C        5.5560   -1.7240   -0.5670 hc        1 DCW      0.043950
     27 H61C        4.6740    2.2060    0.9700 hc        1 DCW      0.043950
     28 H62C        4.0800    0.7800    1.9110 hc        1 DCW      0.043950
     29 H51C        6.2410    0.2390    0.8490 hc        1 DCW      0.040200
     30 H52C        5.6180    0.7370   -0.7750 hc        1 DCW      0.040200
     31 H91C       -3.1280    2.1620   -0.9070 hc        1 DCW      0.045450
     32 H92C       -3.6990    0.7110   -1.8270 hc        1 DCW      0.045450
     33 H131       -3.1650   -1.6410   -0.9380 hc        1 DCW      0.045450
     34 H132       -2.2290   -1.8100    0.6070 hc        1 DCW      0.045450
     35 H101       -4.6110    1.5980    0.9960 hc        1 DCW      0.043950
     36 H102       -5.5560    1.7320   -0.5410 hc        1 DCW      0.043950
     37 H121       -4.6750   -2.2200    0.9370 hc        1 DCW      0.043950
     38 H122       -4.0800   -0.8090    1.9000 hc        1 DCW      0.043950
     39 H111       -6.2410   -0.2520    0.8450 hc        1 DCW      0.040200
     40 H112       -5.6180   -0.7250   -0.7850 hc        1 DCW      0.040200
@<TRIPOS>BOND
     1    1    3 1   
     2    1    4 1   
     3    1   17 1   
     4    2    3 2   
     5    3    5 1   
     6    4    6 1   
     7    4    7 1   
     8    4   18 1   
     9    5   11 1   
    10    5   19 1   
    11    6    8 1   
    12    6   20 1   
    13    6   21 1   
    14    7   10 1   
    15    7   22 1   
    16    7   23 1   
    17    8    9 1   
    18    8   25 1   
    19    8   26 1   
    20    9   10 1   
    21    9   29 1   
    22    9   30 1   
    23   10   27 1   
    24   10   28 1   
    25   11   12 1   
    26   11   13 1   
    27   11   24 1   
    28   12   14 1   
    29   12   31 1   
    30   12   32 1   
    31   13   16 1   
    32   13   33 1   
    33   13   34 1   
    34   14   15 1   
    35   14   35 1   
    36   14   36 1   
    37   15   16 1   
    38   15   39 1   
    39   15   40 1   
    40   16   37 1   
    41   16   38 1   
@<TRIPOS>SUBSTRUCTURE
     1 DCW         1 TEMP              0 ****  ****    0 ROOT
