@<TRIPOS>MOLECULE
DCX
   41    40     1     0     0
SMALL
bcc


@<TRIPOS>ATOM
      1 C3          0.3390    0.0080   -0.2110 c3        1 DCX     -0.460300
      2 O4          2.6310   -1.1610   -0.6440 o         1 DCX     -0.893300
      3 C6          3.9370    1.4240   -0.8950 c3        1 DCX     -0.070400
      4 C14        12.0450    6.1320   -4.3460 c3        1 DCX     -0.092100
      5 C13        10.5490    6.1890   -4.1770 c3        1 DCX     -0.080400
      6 C12        10.0210    4.9520   -3.4810 c3        1 DCX     -0.079400
      7 C11         8.5180    5.0130   -3.3120 c3        1 DCX     -0.078400
      8 C10         7.9920    3.7760   -2.6160 c3        1 DCX     -0.079400
      9 C9          6.4900    3.8380   -2.4470 c3        1 DCX     -0.078400
     10 C8          5.9640    2.6000   -1.7520 c3        1 DCX     -0.080400
     11 C7          4.4620    2.6640   -1.5800 c3        1 DCX     -0.071400
     12 C4          2.4430    1.4600   -0.6930 c3        1 DCX     -0.432600
     13 P1          1.9820    0.0090   -0.0500 p5        1 DCX      1.435900
     14 C2          2.2240    0.1590    1.5750 c3        1 DCX     -0.460300
     15 H31         0.0270   -0.1820   -1.2680 hc        1 DCX      0.093533
     16 H32        -0.1490    0.9630    0.0950 hc        1 DCX      0.093533
     17 H33        -0.1420   -0.8000    0.3920 hc        1 DCX      0.093533
     18 H61         4.1910    0.5080   -1.4990 hc        1 DCX      0.059700
     19 H62         4.4300    1.3050    0.1070 hc        1 DCX      0.059700
     20 H141       12.3390    5.2440   -4.9570 hc        1 DCX      0.032700
     21 H142       12.5520    6.0570   -3.3540 hc        1 DCX      0.032700
     22 H143       12.4120    7.0520   -4.8610 hc        1 DCX      0.032700
     23 H131       10.2710    7.0990   -3.5820 hc        1 DCX      0.038200
     24 H132       10.0590    6.2890   -5.1810 hc        1 DCX      0.038200
     25 H121       10.2960    4.0410   -4.0750 hc        1 DCX      0.040200
     26 H122       10.5090    4.8500   -2.4750 hc        1 DCX      0.040200
     27 H111        8.2430    5.9250   -2.7180 hc        1 DCX      0.039200
     28 H112        8.0310    5.1150   -4.3170 hc        1 DCX      0.039200
     29 H101        8.2660    2.8650   -3.2110 hc        1 DCX      0.040700
     30 H102        8.4810    3.6740   -1.6110 hc        1 DCX      0.040700
     31 H91         6.2150    4.7490   -1.8510 hc        1 DCX      0.038700
     32 H92         6.0020    3.9410   -3.4520 hc        1 DCX      0.038700
     33 H81         6.4540    2.4960   -0.7480 hc        1 DCX      0.043200
     34 H82         6.2360    1.6890   -2.3490 hc        1 DCX      0.043200
     35 H71         3.9720    2.7720   -2.5840 hc        1 DCX      0.038700
     36 H72         4.1880    3.5710   -0.9800 hc        1 DCX      0.038700
     37 H41         1.9520    1.6570   -1.6820 hc        1 DCX      0.092700
     38 H42         2.1750    2.3420   -0.0570 hc        1 DCX      0.092700
     39 H21         1.9710   -0.7850    2.1180 hc        1 DCX      0.093533
     40 H22         1.6230    0.9670    2.0520 hc        1 DCX      0.093533
     41 H23         3.2920    0.3710    1.8270 hc        1 DCX      0.093533
@<TRIPOS>BOND
     1    1   13 1   
     2    1   15 1   
     3    1   16 1   
     4    1   17 1   
     5    2   13 2   
     6    3   11 1   
     7    3   12 1   
     8    3   18 1   
     9    3   19 1   
    10    4    5 1   
    11    4   20 1   
    12    4   21 1   
    13    4   22 1   
    14    5    6 1   
    15    5   23 1   
    16    5   24 1   
    17    6    7 1   
    18    6   25 1   
    19    6   26 1   
    20    7    8 1   
    21    7   27 1   
    22    7   28 1   
    23    8    9 1   
    24    8   29 1   
    25    8   30 1   
    26    9   10 1   
    27    9   31 1   
    28    9   32 1   
    29   10   11 1   
    30   10   33 1   
    31   10   34 1   
    32   11   35 1   
    33   11   36 1   
    34   12   13 1   
    35   12   37 1   
    36   12   38 1   
    37   13   14 1   
    38   14   39 1   
    39   14   40 1   
    40   14   41 1   
@<TRIPOS>SUBSTRUCTURE
     1 DCX         1 TEMP              0 ****  ****    0 ROOT
