@<TRIPOS>MOLECULE
DCX
   41    40     1     0     0
SMALL
bcc


@<TRIPOS>ATOM
      1 C3         -4.8520   -2.4420    3.5030 c3        1 DCX     -0.460300
      2 O4         -2.3730   -3.4470    3.1520 o         1 DCX     -0.893300
      3 C6         -1.4830   -1.1800    1.7430 c3        1 DCX     -0.070400
      4 C14         4.7110    2.2030   -5.1730 c3        1 DCX     -0.092100
      5 C13         3.4880    2.5280   -4.3450 c3        1 DCX     -0.080400
      6 C12         3.1710    1.3620   -3.4340 c3        1 DCX     -0.079400
      7 C11         1.9760    1.7050   -2.5720 c3        1 DCX     -0.078400
      8 C10         1.5870    0.4990   -1.7470 c3        1 DCX     -0.079400
      9 C9          0.4460    0.8670   -0.8230 c3        1 DCX     -0.078400
     10 C8          0.0480   -0.3430   -0.0070 c3        1 DCX     -0.080400
     11 C7         -1.0460    0.0420    0.9650 c3        1 DCX     -0.071400
     12 C4         -2.5080   -0.7780    2.7800 c3        1 DCX     -0.432600
     13 P1         -3.0570   -2.2490    3.6910 p5        1 DCX      1.435900
     14 C2         -2.6490   -2.0600    5.4500 c3        1 DCX     -0.460300
     15 H31        -5.0680   -2.5870    2.5580 hc        1 DCX      0.093533
     16 H32        -5.3030   -1.6320    3.8210 hc        1 DCX      0.093533
     17 H33        -5.1550   -3.2120    4.0290 hc        1 DCX      0.093533
     18 H61        -0.7070   -1.5780    2.1870 hc        1 DCX      0.059700
     19 H62        -1.8770   -1.8330    1.1300 hc        1 DCX      0.059700
     20 H141        4.5240    1.4270   -5.7420 hc        1 DCX      0.032700
     21 H142        4.9390    2.9720   -5.7350 hc        1 DCX      0.032700
     22 H143        5.4640    1.9980   -4.5790 hc        1 DCX      0.032700
     23 H131        2.7280    2.6940   -4.9370 hc        1 DCX      0.038200
     24 H132        3.6620    3.3250   -3.8050 hc        1 DCX      0.038200
     25 H121        2.9680    0.5720   -3.9740 hc        1 DCX      0.040200
     26 H122        3.9430    1.1760   -2.8620 hc        1 DCX      0.040200
     27 H111        2.2050    2.4470   -1.9780 hc        1 DCX      0.039200
     28 H112        1.2260    1.9650   -3.1440 hc        1 DCX      0.039200
     29 H101        2.3540    0.2050   -1.2160 hc        1 DCX      0.040700
     30 H102        1.3040   -0.2260   -2.3410 hc        1 DCX      0.040700
     31 H91        -0.3190    1.1680   -1.3530 hc        1 DCX      0.038700
     32 H92         0.7310    1.5850   -0.2240 hc        1 DCX      0.038700
     33 H81        -0.2780   -1.0460   -0.6030 hc        1 DCX      0.043200
     34 H82         0.8240   -0.6710    0.4900 hc        1 DCX      0.043200
     35 H71        -0.7090    0.7190    1.5840 hc        1 DCX      0.038700
     36 H72        -1.8090    0.4030    0.4700 hc        1 DCX      0.038700
     37 H41        -3.2750   -0.3630    2.3370 hc        1 DCX      0.092700
     38 H42        -2.1070   -0.1390    3.4040 hc        1 DCX      0.092700
     39 H21        -3.0120   -2.8180    5.9530 hc        1 DCX      0.093533
     40 H22        -1.6750   -2.0320    5.5580 hc        1 DCX      0.093533
     41 H23        -3.0390   -1.2260    5.7880 hc        1 DCX      0.093533
@<TRIPOS>BOND
     1    1   13 1   
     2    1   15 1   
     3    1   16 1   
     4    1   17 1   
     5    2   13 2   
     6    3   11 1   
     7    3   12 1   
     8    3   18 1   
     9    3   19 1   
    10    4    5 1   
    11    4   20 1   
    12    4   21 1   
    13    4   22 1   
    14    5    6 1   
    15    5   23 1   
    16    5   24 1   
    17    6    7 1   
    18    6   25 1   
    19    6   26 1   
    20    7    8 1   
    21    7   27 1   
    22    7   28 1   
    23    8    9 1   
    24    8   29 1   
    25    8   30 1   
    26    9   10 1   
    27    9   31 1   
    28    9   32 1   
    29   10   11 1   
    30   10   33 1   
    31   10   34 1   
    32   11   35 1   
    33   11   36 1   
    34   12   13 1   
    35   12   37 1   
    36   12   38 1   
    37   13   14 1   
    38   14   39 1   
    39   14   40 1   
    40   14   41 1   
@<TRIPOS>SUBSTRUCTURE
     1 DCX         1 TEMP              0 ****  ****    0 ROOT
