@<TRIPOS>MOLECULE
DCX
   41    40     1     0     0
SMALL
bcc


@<TRIPOS>ATOM
      1 C3          0.3390    0.0180   -0.1970 c3        1 DCX     -0.460300
      2 O4          2.6190   -1.1580   -0.6710 o         1 DCX     -0.893300
      3 C6          3.9380    1.4220   -0.8960 c3        1 DCX     -0.070400
      4 C14        12.0370    6.1310   -4.3660 c3        1 DCX     -0.092100
      5 C13        10.5440    6.1970   -4.1750 c3        1 DCX     -0.080400
      6 C12        10.0150    4.9510   -3.4950 c3        1 DCX     -0.079400
      7 C11         8.5150    5.0210   -3.3060 c3        1 DCX     -0.078400
      8 C10         7.9890    3.7750   -2.6270 c3        1 DCX     -0.079400
      9 C9          6.4890    3.8450   -2.4370 c3        1 DCX     -0.078400
     10 C8          5.9630    2.5990   -1.7580 c3        1 DCX     -0.080400
     11 C7          4.4630    2.6700   -1.5670 c3        1 DCX     -0.071400
     12 C4          2.4460    1.4650   -0.6770 c3        1 DCX     -0.432600
     13 P1          1.9830    0.0060   -0.0530 p5        1 DCX      1.435900
     14 C2          2.2420    0.1290    1.5710 c3        1 DCX     -0.460300
     15 H31         0.0150   -0.1550   -1.2530 hc        1 DCX      0.093533
     16 H32        -0.1410    0.9700    0.1280 hc        1 DCX      0.093533
     17 H33        -0.1410   -0.7960    0.4000 hc        1 DCX      0.093533
     18 H61         4.1790    0.5150   -1.5180 hc        1 DCX      0.059700
     19 H62         4.4410    1.2840    0.0980 hc        1 DCX      0.059700
     20 H141       12.3160    5.2540   -4.9970 hc        1 DCX      0.032700
     21 H142       12.5560    6.0330   -3.3820 hc        1 DCX      0.032700
     22 H143       12.4050    7.0590   -4.8680 hc        1 DCX      0.032700
     23 H131       10.2810    7.0980   -3.5600 hc        1 DCX      0.038200
     24 H132       10.0420    6.3200   -5.1710 hc        1 DCX      0.038200
     25 H121       10.2760    4.0490   -4.1100 hc        1 DCX      0.040200
     26 H122       10.5150    4.8270   -2.4990 hc        1 DCX      0.040200
     27 H111        8.2560    5.9230   -2.6920 hc        1 DCX      0.039200
     28 H112        8.0160    5.1450   -4.3030 hc        1 DCX      0.039200
     29 H101        8.2490    2.8730   -3.2410 hc        1 DCX      0.040700
     30 H102        8.4890    3.6510   -1.6300 hc        1 DCX      0.040700
     31 H91         6.2290    4.7470   -1.8230 hc        1 DCX      0.038700
     32 H92         5.9890    3.9690   -3.4340 hc        1 DCX      0.038700
     33 H81         6.4640    2.4740   -0.7620 hc        1 DCX      0.043200
     34 H82         6.2210    1.6970   -2.3730 hc        1 DCX      0.043200
     35 H71         3.9630    2.7980   -2.5630 hc        1 DCX      0.038700
     36 H72         4.2030    3.5690   -0.9490 hc        1 DCX      0.038700
     37 H41         1.9460    1.6800   -1.6580 hc        1 DCX      0.092700
     38 H42         2.1910    2.3380   -0.0250 hc        1 DCX      0.092700
     39 H21         1.9900   -0.8220    2.1020 hc        1 DCX      0.093533
     40 H22         1.6500    0.9330    2.0680 hc        1 DCX      0.093533
     41 H23         3.3140    0.3320    1.8160 hc        1 DCX      0.093533
@<TRIPOS>BOND
     1    1   13 1   
     2    1   15 1   
     3    1   16 1   
     4    1   17 1   
     5    2   13 2   
     6    3   11 1   
     7    3   12 1   
     8    3   18 1   
     9    3   19 1   
    10    4    5 1   
    11    4   20 1   
    12    4   21 1   
    13    4   22 1   
    14    5    6 1   
    15    5   23 1   
    16    5   24 1   
    17    6    7 1   
    18    6   25 1   
    19    6   26 1   
    20    7    8 1   
    21    7   27 1   
    22    7   28 1   
    23    8    9 1   
    24    8   29 1   
    25    8   30 1   
    26    9   10 1   
    27    9   31 1   
    28    9   32 1   
    29   10   11 1   
    30   10   33 1   
    31   10   34 1   
    32   11   35 1   
    33   11   36 1   
    34   12   13 1   
    35   12   37 1   
    36   12   38 1   
    37   13   14 1   
    38   14   39 1   
    39   14   40 1   
    40   14   41 1   
@<TRIPOS>SUBSTRUCTURE
     1 DCX         1 TEMP              0 ****  ****    0 ROOT
