@<TRIPOS>MOLECULE
DCX
   41    40     1     0     0
SMALL
bcc


@<TRIPOS>ATOM
      1 C3          5.6220   -0.9140   -0.1120 c3        1 DCX     -0.460300
      2 O4          4.2590    0.9210   -1.3670 o         1 DCX     -0.893300
      3 C6          1.8330    0.1050    0.0090 c3        1 DCX     -0.070400
      4 C14        -8.1480    0.4890   -0.1970 c3        1 DCX     -0.092100
      5 C13        -6.9400   -0.3650    0.0860 c3        1 DCX     -0.080400
      6 C12        -5.6530    0.3980   -0.1450 c3        1 DCX     -0.079400
      7 C11        -4.4420   -0.4630    0.1400 c3        1 DCX     -0.078400
      8 C10        -3.1560    0.3010   -0.0910 c3        1 DCX     -0.079400
      9 C9         -1.9450   -0.5600    0.1940 c3        1 DCX     -0.078400
     10 C8         -0.6600    0.2050   -0.0380 c3        1 DCX     -0.080400
     11 C7          0.5510   -0.6570    0.2490 c3        1 DCX     -0.071400
     12 C4          3.0620   -0.7200    0.3010 c3        1 DCX     -0.432600
     13 P1          4.3860    0.1790   -0.1130 p5        1 DCX      1.435900
     14 C2          4.6910    1.1280    1.2010 c3        1 DCX     -0.460300
     15 H31         6.6230   -0.4180   -0.1370 hc        1 DCX      0.093533
     16 H32         5.6310   -1.5920    0.7740 hc        1 DCX      0.093533
     17 H33         5.5930   -1.5730   -1.0140 hc        1 DCX      0.093533
     18 H61         1.8850    0.4530   -1.0600 hc        1 DCX      0.059700
     19 H62         1.8570    1.0220    0.6560 hc        1 DCX      0.059700
     20 H141       -9.0850   -0.0920   -0.0210 hc        1 DCX      0.032700
     21 H142       -8.1610    1.3870    0.4670 hc        1 DCX      0.032700
     22 H143       -8.1450    0.8390   -1.2570 hc        1 DCX      0.032700
     23 H131       -6.9740   -0.7270    1.1470 hc        1 DCX      0.038200
     24 H132       -6.9580   -1.2740   -0.5730 hc        1 DCX      0.038200
     25 H121       -5.6160    0.7600   -1.2070 hc        1 DCX      0.040200
     26 H122       -5.6320    1.3060    0.5130 hc        1 DCX      0.040200
     27 H111       -4.4790   -0.8250    1.2020 hc        1 DCX      0.039200
     28 H112       -4.4630   -1.3710   -0.5190 hc        1 DCX      0.039200
     29 H101       -3.1190    0.6620   -1.1530 hc        1 DCX      0.040700
     30 H102       -3.1350    1.2100    0.5670 hc        1 DCX      0.040700
     31 H91        -1.9820   -0.9210    1.2560 hc        1 DCX      0.038700
     32 H92        -1.9660   -1.4690   -0.4650 hc        1 DCX      0.038700
     33 H81        -0.6220    0.5640   -1.1010 hc        1 DCX      0.043200
     34 H82        -0.6400    1.1140    0.6190 hc        1 DCX      0.043200
     35 H71         0.5280   -1.5680   -0.4060 hc        1 DCX      0.038700
     36 H72         0.5170   -1.0140    1.3120 hc        1 DCX      0.038700
     37 H41         3.0490   -1.0410    1.3730 hc        1 DCX      0.092700
     38 H42         3.0010   -1.6730   -0.2870 hc        1 DCX      0.092700
     39 H21         5.5590    1.8100    1.0240 hc        1 DCX      0.093533
     40 H22         3.8310    1.7980    1.4500 hc        1 DCX      0.093533
     41 H23         4.9230    0.5580    2.1310 hc        1 DCX      0.093533
@<TRIPOS>BOND
     1    1   13 1   
     2    1   15 1   
     3    1   16 1   
     4    1   17 1   
     5    2   13 2   
     6    3   11 1   
     7    3   12 1   
     8    3   18 1   
     9    3   19 1   
    10    4    5 1   
    11    4   20 1   
    12    4   21 1   
    13    4   22 1   
    14    5    6 1   
    15    5   23 1   
    16    5   24 1   
    17    6    7 1   
    18    6   25 1   
    19    6   26 1   
    20    7    8 1   
    21    7   27 1   
    22    7   28 1   
    23    8    9 1   
    24    8   29 1   
    25    8   30 1   
    26    9   10 1   
    27    9   31 1   
    28    9   32 1   
    29   10   11 1   
    30   10   33 1   
    31   10   34 1   
    32   11   35 1   
    33   11   36 1   
    34   12   13 1   
    35   12   37 1   
    36   12   38 1   
    37   13   14 1   
    38   14   39 1   
    39   14   40 1   
    40   14   41 1   
@<TRIPOS>SUBSTRUCTURE
     1 DCX         1 TEMP              0 ****  ****    0 ROOT
