@<TRIPOS>MOLECULE
DCY
   13    12     1     0     0
SMALL
bcc


@<TRIPOS>ATOM
      1 N           1.7250    0.3720    0.0180 n3        1 DCY     -0.882800
      2 CA          0.2760    0.3770   -0.1310 c3        1 DCY      0.021500
      3 C          -0.2250    0.0530   -1.5870 c         1 DCY      0.890600
      4 O           0.6390    0.0060   -2.5060 o         1 DCY     -0.836800
      5 CB         -0.4390   -0.5650    0.8230 c3        1 DCY      0.052700
      6 SG         -0.3390    0.0320    2.5030 sh        1 DCY     -0.434900
      7 OXT        -1.4630   -0.1210   -1.7520 o         1 DCY     -0.836800
      8 H           2.1050    0.8390   -0.7910 hn        1 DCY      0.332300
      9 H2          2.0510   -0.5770   -0.0260 hn        1 DCY      0.332300
     10 HA         -0.0650    1.4320    0.0870 h1        1 DCY      0.060700
     11 HB2        -1.5100   -0.6200    0.5040 h1        1 DCY      0.067200
     12 HB3        -0.0030   -1.5910    0.7830 h1        1 DCY      0.067200
     13 HG         -1.4020   -0.5790    2.9900 hs        1 DCY      0.165800
@<TRIPOS>BOND
     1    1    2 1   
     2    1    8 1   
     3    1    9 1   
     4    2    3 1   
     5    2    5 1   
     6    2   10 1   
     7    3    4 1   
     8    3    7 1   
     9    5    6 1   
    10    5   11 1   
    11    5   12 1   
    12    6   13 1   
@<TRIPOS>SUBSTRUCTURE
     1 DCY         1 TEMP              0 ****  ****    0 ROOT
