@<TRIPOS>MOLECULE
DCY
   13    12     1     0     0
SMALL
bcc


@<TRIPOS>ATOM
      1 N          -1.6890    0.4270    0.0280 n3        1 DCY     -0.897800
      2 CA         -0.2700    0.5050   -0.0330 c3        1 DCY      0.002500
      3 C           0.2920    0.5770    1.3680 c         1 DCY      0.893600
      4 O          -0.1500   -0.1900    2.2630 o         1 DCY     -0.834300
      5 CB          0.2720   -0.7210   -0.7310 c3        1 DCY      0.071700
      6 SG          2.0000   -0.8900   -0.3720 sh        1 DCY     -0.506900
      7 OXT         1.2020    1.4040    1.6400 o         1 DCY     -0.834300
      8 H          -2.0260    1.2270    0.3230 hn        1 DCY      0.335800
      9 H2         -2.0210    0.2440   -0.8050 hn        1 DCY      0.335800
     10 HA         -0.0090    1.3050   -0.5300 h1        1 DCY      0.054700
     11 HB2        -0.2060   -1.5140   -0.4150 h1        1 DCY      0.074700
     12 HB3         0.1470   -0.6280   -1.6970 h1        1 DCY      0.074700
     13 HG          2.4570   -1.7470   -1.0380 hs        1 DCY      0.229800
@<TRIPOS>BOND
     1    1    2 1   
     2    1    8 1   
     3    1    9 1   
     4    2    3 1   
     5    2    5 1   
     6    2   10 1   
     7    3    4 1   
     8    3    7 1   
     9    5    6 1   
    10    5   11 1   
    11    5   12 1   
    12    6   13 1   
@<TRIPOS>SUBSTRUCTURE
     1 DCY         1 TEMP              0 ****  ****    0 ROOT
