@<TRIPOS>MOLECULE
DCZ
   29    29     1     0     0
SMALL
bcc


@<TRIPOS>ATOM
      1 N1          0.2750    0.9600    0.2910 n         1 DCZ     -0.300000
      2 C2          1.7420    0.9600    0.2910 c2        1 DCZ      0.354000
      3 N3          2.4760    0.9600    1.5600 n2        1 DCZ     -0.297000
      4 C4          1.7720    0.8480    2.7900 c1        1 DCZ      0.226000
      5 C5          0.3010    0.7500    2.7880 c1        1 DCZ     -0.353000
      6 C6         -0.4350    0.7970    1.5120 c2        1 DCZ      0.072000
      7 O2          2.3470    1.0550   -0.7570 o         1 DCZ     -0.352000
      8 N4          2.4910    0.7770    4.0210 n3        1 DCZ     -0.353000
      9 C1'        -0.4440    1.2750   -0.9220 c3        1 DCZ      0.162000
     10 C2'         0.2260    0.5270   -2.1700 c3        1 DCZ     -0.222000
     11 C3'        -0.2340   -0.6700   -2.1560 c3        1 DCZ      0.011000
     12 C4'        -1.6030   -0.5600   -1.4640 c3        1 DCZ      0.023000
     13 O4'        -1.6450    0.8440   -0.8460 os        1 DCZ     -0.278000
     14 O3'        -0.4010   -1.1800   -3.5610 oh        1 DCZ     -0.315000
     15 C5'        -1.7240   -1.5370   -0.4620 c3        1 DCZ     -0.042000
     16 O5'        -2.3460   -2.6840   -0.9990 oh        1 DCZ     -0.320000
     17 H5         -0.1840    0.6560    3.6300 ha        1 DCZ      0.153000
     18 H6         -1.4100    0.7650    1.5110 h4        1 DCZ      0.169000
     19 HN41        2.0390    0.6950    4.8090 hn        1 DCZ      0.229500
     20 HN42        3.4020    0.8080    4.0190 hn        1 DCZ      0.229500
     21 H1'        -0.4430    2.2400   -1.0700 h2        1 DCZ      0.141000
     22 H2'1        1.1970    0.5150   -2.0730 hc        1 DCZ      0.126000
     23 H2'2       -0.0230    0.9730   -3.0020 hc        1 DCZ      0.126000
     24 H3'         0.3580   -1.2570   -1.6480 h1        1 DCZ      0.106000
     25 H4'        -2.3190   -0.6590   -2.1190 h1        1 DCZ      0.151000
     26 HO3'        0.2970   -1.6830   -3.7780 ho        1 DCZ      0.206000
     27 H5'1       -0.8370   -1.7740   -0.1300 h1        1 DCZ      0.071000
     28 H5'2       -2.2640   -1.1870    0.2710 h1        1 DCZ      0.071000
     29 HO51       -2.6150   -3.2120   -0.3370 ho        1 DCZ      0.206000
@<TRIPOS>BOND
     1    1    2 1   
     2    1    6 1   
     3    1    9 1   
     4    2    3 1   
     5    2    7 1   
     6    3    4 1   
     7    4    8 1   
     8    5    6 1   
     9    5   17 1   
    10    6   18 1   
    11    8   19 1   
    12    8   20 1   
    13    9   10 1   
    14    9   13 1   
    15    9   21 1   
    16   10   11 1   
    17   10   22 1   
    18   10   23 1   
    19   11   12 1   
    20   11   14 1   
    21   11   24 1   
    22   12   13 1   
    23   12   15 1   
    24   12   25 1   
    25   14   26 1   
    26   15   16 1   
    27   15   27 1   
    28   15   28 1   
    29   16   29 1   
@<TRIPOS>SUBSTRUCTURE
     1 DCZ         1 TEMP              0 ****  ****    0 ROOT
