@<TRIPOS>MOLECULE
DCZ
   30    31     1     0     0
SMALL
bcc


@<TRIPOS>ATOM
      1 N1         -0.1070    0.4060   -0.2920 n         1 DCZ     -0.347000
      2 C2          1.3310    0.5170   -0.3250 c         1 DCZ      0.842900
      3 N3          2.0850    0.1180    0.8230 nc        1 DCZ     -0.622100
      4 C4          1.4340   -0.3760    1.8540 cd        1 DCZ      0.610500
      5 C5          0.0100   -0.5230    1.9390 cd        1 DCZ     -0.441600
      6 C6         -0.7010   -0.1380    0.8120 cc        1 DCZ      0.134600
      7 O2          1.9270    0.9660   -1.3110 o         1 DCZ     -0.533500
      8 N4          2.2410   -0.8310    3.0190 nz        1 DCZ     -0.803600
      9 C1'        -0.9590    0.6130   -1.4910 c3        1 DCZ      0.297500
     10 C2'        -0.4500    1.6210   -2.5350 c3        1 DCZ     -0.141400
     11 C3'         0.0870    0.7600   -3.6930 c3        1 DCZ      0.129100
     12 C4'        -0.3060   -0.6910   -3.3390 c3        1 DCZ      0.087100
     13 O4'        -1.1330   -0.6320   -2.1600 os        1 DCZ     -0.407600
     14 O3'        -0.5610    1.0770   -4.9080 oh        1 DCZ     -0.583800
     15 C5'         0.9040   -1.5850   -3.0550 c3        1 DCZ      0.105400
     16 O5'         0.6950   -2.3760   -1.9020 oh        1 DCZ     -0.608800
     17 H5         -0.5030   -0.9290    2.8170 ha        1 DCZ      0.183000
     18 H6         -1.8060   -0.2630    0.7830 h4        1 DCZ      0.199000
     19 HN41        1.9150   -0.3370    3.8560 hn        1 DCZ      0.478133
     20 HN42        3.2450   -0.6440    2.8760 hn        1 DCZ      0.478133
     21 H1'        -1.9840    0.8960   -1.1030 h2        1 DCZ      0.104700
     22 H2'1       -1.3250    2.2280   -2.8860 hc        1 DCZ      0.095700
     23 H2'2        0.3280    2.3170   -2.1440 hc        1 DCZ      0.095700
     24 H3'         1.2000    0.8740   -3.7890 h1        1 DCZ      0.078700
     25 H4'        -0.9710   -1.1350   -4.1310 h1        1 DCZ      0.116700
     26 HO3'       -0.1550    1.8840   -5.2480 ho        1 DCZ      0.420000
     27 H5'1        1.1070   -2.2350   -3.9470 h1        1 DCZ      0.069700
     28 H5'2        1.8210   -0.9800   -2.8140 h1        1 DCZ      0.069700
     29 HO51       -0.1150   -2.8820   -2.0430 ho        1 DCZ      0.413000
     30 H43         2.0980   -1.8410    3.1350 hn        1 DCZ      0.478133
@<TRIPOS>BOND
     1    1    2 1   
     2    1    6 1   
     3    1    9 1   
     4    2    3 1   
     5    2    7 2   
     6    3    4 2   
     7    4    5 1   
     8    4    8 1   
     9    5    6 2   
    10    5   17 1   
    11    6   18 1   
    12    8   19 1   
    13    8   20 1   
    14    8   30 1   
    15    9   10 1   
    16    9   13 1   
    17    9   21 1   
    18   10   11 1   
    19   10   22 1   
    20   10   23 1   
    21   11   12 1   
    22   11   14 1   
    23   11   24 1   
    24   12   13 1   
    25   12   15 1   
    26   12   25 1   
    27   14   26 1   
    28   15   16 1   
    29   15   27 1   
    30   15   28 1   
    31   16   29 1   
@<TRIPOS>SUBSTRUCTURE
     1 DCZ         1 TEMP              0 ****  ****    0 ROOT
