@<TRIPOS>MOLECULE
DCZ
   30    31     1     0     0
SMALL
bcc


@<TRIPOS>ATOM
      1 N1         -0.1220    0.3760   -0.2800 n         1 DCZ     -0.347000
      2 C2          1.3120    0.5260   -0.3080 c         1 DCZ      0.842900
      3 N3          2.0760    0.1200    0.8310 nc        1 DCZ     -0.622100
      4 C4          1.4370   -0.4140    1.8490 cd        1 DCZ      0.610500
      5 C5          0.0170   -0.6010    1.9290 cd        1 DCZ     -0.441600
      6 C6         -0.7030   -0.2080    0.8090 cc        1 DCZ      0.134600
      7 O2          1.8980    1.0130   -1.2840 o         1 DCZ     -0.533500
      8 N4          2.2550   -0.8740    3.0050 n4        1 DCZ     -0.803600
      9 C1'        -0.9780    0.5880   -1.4760 c3        1 DCZ      0.297500
     10 C2'        -0.4950    1.6320   -2.4960 c3        1 DCZ     -0.141400
     11 C3'         0.0660    0.8130   -3.6720 c3        1 DCZ      0.129100
     12 C4'        -0.2890   -0.6560   -3.3520 c3        1 DCZ      0.087100
     13 O4'        -1.1180   -0.6460   -2.1740 os        1 DCZ     -0.407600
     14 O3'        -0.5890    1.1390   -4.8810 oh        1 DCZ     -0.583800
     15 C5'         0.9440   -1.5250   -3.0860 c3        1 DCZ      0.105400
     16 O5'         0.7550   -2.3460   -1.9510 oh        1 DCZ     -0.608800
     17 H5         -0.4860   -1.0400    2.7970 ha        1 DCZ      0.183000
     18 H6         -1.8040   -0.3620    0.7760 h4        1 DCZ      0.199000
     19 HN41        2.1390   -1.8900    3.0970 hn        1 DCZ      0.478133
     20 HN42        1.9150   -0.4090    3.8530 hn        1 DCZ      0.478133
     21 H1'        -2.0110    0.8350   -1.0830 h2        1 DCZ      0.104700
     22 H2'1       -1.3850    2.2240   -2.8350 hc        1 DCZ      0.095700
     23 H2'2        0.2650    2.3400   -2.0880 hc        1 DCZ      0.095700
     24 H3'         1.1760    0.9580   -3.7640 h1        1 DCZ      0.078700
     25 H4'        -0.9410   -1.0990   -4.1550 h1        1 DCZ      0.116700
     26 HO3'       -0.2030    1.9640   -5.2020 ho        1 DCZ      0.420000
     27 H5'1        1.1640   -2.1490   -3.9920 h1        1 DCZ      0.069700
     28 H5'2        1.8450   -0.9010   -2.8310 h1        1 DCZ      0.069700
     29 HO51       -0.0420   -2.8700   -2.1060 ho        1 DCZ      0.413000
     30 H43         3.2530   -0.6560    2.8690 hn        1 DCZ      0.478133
@<TRIPOS>BOND
     1    1    2 1   
     2    1    6 1   
     3    1    9 1   
     4    2    3 1   
     5    2    7 2   
     6    3    4 2   
     7    4    5 1   
     8    4    8 1   
     9    5    6 2   
    10    5   17 1   
    11    6   18 1   
    12    8   19 1   
    13    8   20 1   
    14    8   30 1   
    15    9   10 1   
    16    9   13 1   
    17    9   21 1   
    18   10   11 1   
    19   10   22 1   
    20   10   23 1   
    21   11   12 1   
    22   11   14 1   
    23   11   24 1   
    24   12   13 1   
    25   12   15 1   
    26   12   25 1   
    27   14   26 1   
    28   15   16 1   
    29   15   27 1   
    30   15   28 1   
    31   16   29 1   
@<TRIPOS>SUBSTRUCTURE
     1 DCZ         1 TEMP              0 ****  ****    0 ROOT
