@<TRIPOS>MOLECULE
DCZ
   29    30     1     0     0
SMALL
bcc


@<TRIPOS>ATOM
      1 N1         -0.4610   -0.5580    0.8110 n         1 DCZ     -0.398000
      2 C2         -0.2370    0.8530    1.0470 c         1 DCZ      0.840900
      3 N3          0.2670    1.2980    2.2750 nc        1 DCZ     -0.724100
      4 C4          0.5810    0.3960    3.2210 cd        1 DCZ      0.755500
      5 C5          0.4400   -1.0420    2.9890 cd        1 DCZ     -0.423600
      6 C6         -0.0620   -1.4490    1.7830 cc        1 DCZ      0.069600
      7 O2         -0.5150    1.6560    0.1320 o         1 DCZ     -0.636500
      8 N4          1.0160    0.8200    4.4580 nh        1 DCZ     -0.916800
      9 C1'        -0.9330   -1.0950   -0.4640 c3        1 DCZ      0.309500
     10 C2'        -2.0020   -0.2600   -1.1930 c3        1 DCZ     -0.132400
     11 C3'        -1.2820    0.3550   -2.4000 c3        1 DCZ      0.124100
     12 C4'         0.0790   -0.3610   -2.4790 c3        1 DCZ      0.100100
     13 O4'         0.1630   -1.2760   -1.3750 os        1 DCZ     -0.436600
     14 O3'        -1.9710    0.0900   -3.6100 oh        1 DCZ     -0.594800
     15 C5'         1.2490    0.6190   -2.4020 c3        1 DCZ      0.112400
     16 O5'         2.4860   -0.0600   -2.4720 oh        1 DCZ     -0.597800
     17 H5          0.7270   -1.7690    3.7560 ha        1 DCZ      0.156000
     18 H6         -0.1750   -2.5260    1.5500 h4        1 DCZ      0.158000
     19 HN41        1.2190    1.7800    4.6070 hn        1 DCZ      0.437800
     20 HN42        1.4350    0.1520    5.0550 hn        1 DCZ      0.437800
     21 H1'        -1.3130   -2.1440   -0.2650 h2        1 DCZ      0.075700
     22 H2'1       -2.8190   -0.9430   -1.5380 hc        1 DCZ      0.079200
     23 H2'2       -2.4470    0.5340   -0.5450 hc        1 DCZ      0.079200
     24 H3'        -1.1450    1.4620   -2.2560 h1        1 DCZ      0.081700
     25 H4'         0.1560   -1.0000   -3.4020 h1        1 DCZ      0.097700
     26 HO3'       -2.7550    0.6510   -3.6090 ho        1 DCZ      0.406000
     27 H5'1        1.2370    1.2980   -3.2950 h1        1 DCZ      0.065700
     28 H5'2        1.1850    1.2230   -1.4570 h1        1 DCZ      0.065700
     29 HO51        2.4890   -0.7120   -1.7590 ho        1 DCZ      0.407000
@<TRIPOS>BOND
     1    1    2 1   
     2    1    6 1   
     3    1    9 1   
     4    2    3 1   
     5    2    7 2   
     6    3    4 2   
     7    4    5 1   
     8    4    8 1   
     9    5    6 2   
    10    5   17 1   
    11    6   18 1   
    12    8   19 1   
    13    8   20 1   
    14    9   10 1   
    15    9   13 1   
    16    9   21 1   
    17   10   11 1   
    18   10   22 1   
    19   10   23 1   
    20   11   12 1   
    21   11   14 1   
    22   11   24 1   
    23   12   13 1   
    24   12   15 1   
    25   12   25 1   
    26   14   26 1   
    27   15   16 1   
    28   15   27 1   
    29   15   28 1   
    30   16   29 1   
@<TRIPOS>SUBSTRUCTURE
     1 DCZ         1 TEMP              0 ****  ****    0 ROOT
