@<TRIPOS>MOLECULE
DD1
   52    55     1     0     0
SMALL
bcc


@<TRIPOS>ATOM
      1 F58         0.4480   -1.7000   -0.1010 f         1 DD1     -0.143900
      2 C1          1.5490   -0.9170    0.0160 ca        1 DD1      0.122900
      3 C6          2.3250   -1.0030    1.1880 ca        1 DD1     -0.167000
      4 C5          3.4560   -0.2070    1.3250 ca        1 DD1     -0.105000
      5 C4          3.8240    0.6720    0.3060 ca        1 DD1     -0.148000
      6 C3          3.0590    0.7560   -0.8560 ca        1 DD1     -0.087000
      7 C2          1.9160   -0.0310   -1.0200 ca        1 DD1     -0.119300
      8 C13         1.1260    0.0250   -2.2940 c3        1 DD1      0.213100
      9 N15         0.7870    1.3790   -2.7210 n3        1 DD1     -0.729600
     10 C21         0.2600    1.3900   -4.0800 c3        1 DD1      0.167800
     11 C20        -0.1030    2.7900   -4.5730 c3        1 DD1     -0.075400
     12 C19        -1.0530    3.4740   -3.6040 c3        1 DD1     -0.074700
     13 C18        -0.4530    3.4770   -2.2090 c3        1 DD1     -0.075400
     14 C17        -0.0870    2.0610   -1.7740 c3        1 DD1      0.167800
     15 C28        -1.3420    4.8930   -4.0840 c3        1 DD1      0.137400
     16 O30        -2.5360    5.3060   -3.4030 os        1 DD1     -0.363900
     17 C32        -2.8190    6.6590   -3.4270 ca        1 DD1      0.191100
     18 C38        -3.7190    7.1530   -2.4360 ca        1 DD1     -0.357600
     19 C45        -4.3170    6.3930   -1.3370 ca        1 DD1      0.766200
     20 N54        -3.9770    5.0870   -1.0820 nv        1 DD1     -0.960500
     21 N46        -5.2150    6.9540   -0.4890 nb        1 DD1     -0.853000
     22 C47        -5.4960    8.3110   -0.6540 ca        1 DD1      0.918900
     23 N56        -6.3300    8.8970    0.3060 nv        1 DD1     -0.928500
     24 N48        -4.9820    9.1140   -1.6350 nb        1 DD1     -0.806000
     25 C37        -4.0980    8.5360   -2.5070 ca        1 DD1      0.510600
     26 C36        -3.5360    9.3670   -3.5340 ca        1 DD1     -0.232300
     27 C35        -2.6580    8.8460   -4.4460 ca        1 DD1     -0.062000
     28 C34        -2.2950    7.4860   -4.4070 ca        1 DD1     -0.255000
     29 H6          2.0240   -1.7000    1.9840 ha        1 DD1      0.148000
     30 H5          4.0610   -0.2730    2.2410 ha        1 DD1      0.137000
     31 H4          4.7200    1.3010    0.4180 ha        1 DD1      0.137000
     32 H3          3.3520    1.4510   -1.6590 ha        1 DD1      0.152000
     33 H13         1.7600   -0.4370   -3.1070 h1        1 DD1      0.048200
     34 H13A        0.1990   -0.6150   -2.1830 h1        1 DD1      0.048200
     35 H21         1.0560    0.9690   -4.7570 h1        1 DD1      0.035200
     36 H21A       -0.6530    0.7300   -4.1760 h1        1 DD1      0.035200
     37 H20        -0.5820    2.6950   -5.5820 hc        1 DD1      0.052450
     38 H20A        0.8260    3.4060   -4.6880 hc        1 DD1      0.052450
     39 H19        -2.0250    2.9050   -3.5780 hc        1 DD1      0.062700
     40 H18        -1.1910    3.9000   -1.4800 hc        1 DD1      0.052450
     41 H18A        0.4600    4.1290   -2.1900 hc        1 DD1      0.052450
     42 H17         0.4620    2.1110   -0.7910 h1        1 DD1      0.035200
     43 H17A       -1.0420    1.4810   -1.6030 h1        1 DD1      0.035200
     44 H28        -1.5410    4.9050   -5.1880 h1        1 DD1      0.048200
     45 H28A       -0.4960    5.5870   -3.8390 h1        1 DD1      0.048200
     46 HN54       -4.4620    4.5840   -0.3780 hn        1 DD1      0.445300
     47 HN5A       -3.4510    4.5740   -1.7460 hn        1 DD1      0.445300
     48 HN56       -6.8950    8.2810    0.8410 hn        1 DD1      0.424800
     49 HN5B       -6.7380    9.7700    0.0630 hn        1 DD1      0.424800
     50 H36        -3.8240   10.4280   -3.5700 ha        1 DD1      0.153000
     51 H35        -2.2260    9.4860   -5.2310 ha        1 DD1      0.134000
     52 H34        -1.6040    7.1020   -5.1690 ha        1 DD1      0.138000
@<TRIPOS>BOND
     1    1    2 1   
     2    2    3 ar  
     3    2    7 ar  
     4    3    4 ar  
     5    3   29 1   
     6    4    5 ar  
     7    4   30 1   
     8    5    6 ar  
     9    5   31 1   
    10    6    7 ar  
    11    6   32 1   
    12    7    8 1   
    13    8    9 1   
    14    8   33 1   
    15    8   34 1   
    16    9   10 1   
    17    9   14 1   
    18   10   11 1   
    19   10   35 1   
    20   10   36 1   
    21   11   12 1   
    22   11   37 1   
    23   11   38 1   
    24   12   13 1   
    25   12   15 1   
    26   12   39 1   
    27   13   14 1   
    28   13   40 1   
    29   13   41 1   
    30   14   42 1   
    31   14   43 1   
    32   15   16 1   
    33   15   44 1   
    34   15   45 1   
    35   16   17 1   
    36   17   18 ar  
    37   17   28 ar  
    38   18   19 ar  
    39   18   25 ar  
    40   19   20 1   
    41   19   21 ar  
    42   20   46 1   
    43   20   47 1   
    44   21   22 ar  
    45   22   23 1   
    46   22   24 ar  
    47   23   48 1   
    48   23   49 1   
    49   24   25 ar  
    50   25   26 ar  
    51   26   27 ar  
    52   26   50 1   
    53   27   28 ar  
    54   27   51 1   
    55   28   52 1   
@<TRIPOS>SUBSTRUCTURE
     1 DD1         1 TEMP              0 ****  ****    0 ROOT
