@<TRIPOS>MOLECULE
DD1
   52    55     1     0     0
SMALL
bcc


@<TRIPOS>ATOM
      1 F58         0.4420   -1.7060   -0.1100 f         1 DD1     -0.143900
      2 C1          1.5440   -0.9250    0.0100 ca        1 DD1      0.122900
      3 C6          2.3170   -1.0150    1.1840 ca        1 DD1     -0.167000
      4 C5          3.4490   -0.2190    1.3240 ca        1 DD1     -0.105000
      5 C4          3.8190    0.6630    0.3080 ca        1 DD1     -0.148000
      6 C3          3.0570    0.7500   -0.8540 ca        1 DD1     -0.087000
      7 C2          1.9130   -0.0360   -1.0220 ca        1 DD1     -0.119300
      8 C13         1.1250    0.0240   -2.2980 c3        1 DD1      0.213100
      9 N15         0.7880    1.3790   -2.7220 n3        1 DD1     -0.729600
     10 C21         0.2630    1.3940   -4.0820 c3        1 DD1      0.167800
     11 C20        -0.0980    2.7950   -4.5720 c3        1 DD1     -0.075400
     12 C19        -1.0490    3.4780   -3.6040 c3        1 DD1     -0.074700
     13 C18        -0.4500    3.4770   -2.2070 c3        1 DD1     -0.075400
     14 C17        -0.0860    2.0600   -1.7750 c3        1 DD1      0.167800
     15 C28        -1.3350    4.8980   -4.0800 c3        1 DD1      0.137400
     16 O30        -2.5300    5.3110   -3.4010 os        1 DD1     -0.363900
     17 C32        -2.8130    6.6650   -3.4230 ca        1 DD1      0.191100
     18 C38        -3.7150    7.1570   -2.4350 ca        1 DD1     -0.357600
     19 C45        -4.3170    6.3960   -1.3390 ca        1 DD1      0.766200
     20 N54        -3.9750    5.0900   -1.0830 nh        1 DD1     -0.960500
     21 N46        -5.2180    6.9550   -0.4930 nb        1 DD1     -0.853000
     22 C47        -5.4990    8.3120   -0.6580 ca        1 DD1      0.918900
     23 N56        -6.3380    8.8960    0.3000 nh        1 DD1     -0.928500
     24 N48        -4.9820    9.1160   -1.6360 nb        1 DD1     -0.806000
     25 C37        -4.0950    8.5400   -2.5050 ca        1 DD1      0.510600
     26 C36        -3.5300    9.3720   -3.5290 ca        1 DD1     -0.232300
     27 C35        -2.6480    8.8520   -4.4390 ca        1 DD1     -0.062000
     28 C34        -2.2850    7.4930   -4.4010 ca        1 DD1     -0.255000
     29 H6          2.0150   -1.7140    1.9760 ha        1 DD1      0.148000
     30 H5          4.0530   -0.2880    2.2410 ha        1 DD1      0.137000
     31 H4          4.7150    1.2900    0.4240 ha        1 DD1      0.137000
     32 H3          3.3500    1.4470   -1.6550 ha        1 DD1      0.152000
     33 H13         0.1980   -0.6160   -2.1900 h1        1 DD1      0.048200
     34 H13A        1.7600   -0.4370   -3.1100 h1        1 DD1      0.048200
     35 H21        -0.6510    0.7350   -4.1800 h1        1 DD1      0.035200
     36 H21A        1.0600    0.9740   -4.7590 h1        1 DD1      0.035200
     37 H20        -0.5750    2.7030   -5.5820 hc        1 DD1      0.052450
     38 H20A        0.8320    3.4110   -4.6840 hc        1 DD1      0.052450
     39 H19        -2.0210    2.9100   -3.5800 hc        1 DD1      0.062700
     40 H18         0.4630    4.1280   -2.1860 hc        1 DD1      0.052450
     41 H18A       -1.1890    3.9000   -1.4790 hc        1 DD1      0.052450
     42 H17        -1.0420    1.4800   -1.6070 h1        1 DD1      0.035200
     43 H17A        0.4610    2.1070   -0.7910 h1        1 DD1      0.035200
     44 H28        -0.4890    5.5910   -3.8330 h1        1 DD1      0.048200
     45 H28A       -1.5320    4.9130   -5.1850 h1        1 DD1      0.048200
     46 HN54       -3.4470    4.5770   -1.7450 hn        1 DD1      0.445300
     47 HN5A       -4.4620    4.5860   -0.3810 hn        1 DD1      0.445300
     48 HN56       -6.7450    9.7690    0.0560 hn        1 DD1      0.424800
     49 HN5B       -6.9040    8.2780    0.8320 hn        1 DD1      0.424800
     50 H36        -3.8180   10.4340   -3.5650 ha        1 DD1      0.153000
     51 H35        -2.2140    9.4940   -5.2220 ha        1 DD1      0.134000
     52 H34        -1.5920    7.1100   -5.1620 ha        1 DD1      0.138000
@<TRIPOS>BOND
     1    1    2 1   
     2    2    3 ar  
     3    2    7 ar  
     4    3    4 ar  
     5    3   29 1   
     6    4    5 ar  
     7    4   30 1   
     8    5    6 ar  
     9    5   31 1   
    10    6    7 ar  
    11    6   32 1   
    12    7    8 1   
    13    8    9 1   
    14    8   33 1   
    15    8   34 1   
    16    9   10 1   
    17    9   14 1   
    18   10   11 1   
    19   10   35 1   
    20   10   36 1   
    21   11   12 1   
    22   11   37 1   
    23   11   38 1   
    24   12   13 1   
    25   12   15 1   
    26   12   39 1   
    27   13   14 1   
    28   13   40 1   
    29   13   41 1   
    30   14   42 1   
    31   14   43 1   
    32   15   16 1   
    33   15   44 1   
    34   15   45 1   
    35   16   17 1   
    36   17   18 ar  
    37   17   28 ar  
    38   18   19 ar  
    39   18   25 ar  
    40   19   20 1   
    41   19   21 ar  
    42   20   46 1   
    43   20   47 1   
    44   21   22 ar  
    45   22   23 1   
    46   22   24 ar  
    47   23   48 1   
    48   23   49 1   
    49   24   25 ar  
    50   25   26 ar  
    51   26   27 ar  
    52   26   50 1   
    53   27   28 ar  
    54   27   51 1   
    55   28   52 1   
@<TRIPOS>SUBSTRUCTURE
     1 DD1         1 TEMP              0 ****  ****    0 ROOT
