@<TRIPOS>MOLECULE
DD1
   54    57     1     0     0
SMALL
bcc


@<TRIPOS>ATOM
      1 F58        -0.1250   -0.2760    0.1530 f         1 DD1     -0.158900
      2 C1          1.2320   -0.2230    0.1530 ca        1 DD1      0.110900
      3 C6          1.9270   -0.3860    1.3650 ca        1 DD1     -0.162000
      4 C5          3.3180   -0.3170    1.3720 ca        1 DD1     -0.092000
      5 C4          4.0170   -0.0850    0.1870 ca        1 DD1     -0.134000
      6 C3          3.3280    0.0680   -1.0150 ca        1 DD1     -0.084000
      7 C2          1.9340   -0.0070   -1.0530 ca        1 DD1     -0.130300
      8 C13         1.2110    0.0770   -2.3630 c3        1 DD1      0.217100
      9 N15         0.8550    1.4390   -2.7600 n3        1 DD1     -0.722600
     10 C21         0.3440    1.4800   -4.1250 c3        1 DD1      0.165300
     11 C20        -0.0070    2.8920   -4.5920 c3        1 DD1     -0.069900
     12 C19        -0.9750    3.5470   -3.6150 c3        1 DD1     -0.080700
     13 C18        -0.3850    3.5190   -2.2160 c3        1 DD1     -0.069900
     14 C17        -0.0350    2.0880   -1.8110 c3        1 DD1      0.165300
     15 C28        -1.2640    4.9710   -4.0720 c3        1 DD1      0.138400
     16 O30        -2.3630    5.4220   -3.2340 os        1 DD1     -0.405900
     17 C32        -2.7760    6.7200   -3.3660 ca        1 DD1      0.175100
     18 C38        -3.7520    7.1540   -2.4240 ca        1 DD1     -0.271600
     19 C45        -4.3160    6.3750   -1.3500 ca        1 DD1      0.609200
     20 N54        -3.8790    4.9760   -1.1520 n4        1 DD1     -0.833300
     21 N46        -5.2350    6.8360   -0.4930 nb        1 DD1     -0.700000
     22 C47        -5.6330    8.1610   -0.7010 ca        1 DD1      0.714900
     23 N56        -6.6580    8.6760    0.2520 n4        1 DD1     -0.811300
     24 N48        -5.1950    8.9990   -1.6490 nb        1 DD1     -0.578000
     25 C37        -4.2460    8.5160   -2.5280 ca        1 DD1      0.442600
     26 C36        -3.7490    9.3690   -3.5460 ca        1 DD1     -0.157300
     27 C35        -2.7960    8.8980   -4.4350 ca        1 DD1     -0.016000
     28 C34        -2.3090    7.5870   -4.3530 ca        1 DD1     -0.136000
     29 H6          1.3670   -0.5760    2.2920 ha        1 DD1      0.153000
     30 H5          3.8650   -0.4510    2.3180 ha        1 DD1      0.151000
     31 H4          5.1170   -0.0310    0.2000 ha        1 DD1      0.151000
     32 H3          3.8850    0.2430   -1.9490 ha        1 DD1      0.148000
     33 H13         1.8850   -0.3350   -3.1700 h1        1 DD1      0.056700
     34 H13A        0.2940   -0.5840   -2.3080 h1        1 DD1      0.056700
     35 H21        -0.5690    0.8250   -4.2500 h1        1 DD1      0.047450
     36 H21A        1.1510    1.0760   -4.8020 h1        1 DD1      0.047450
     37 H20         0.9260    3.5100   -4.6710 hc        1 DD1      0.045700
     38 H20A       -0.4700    2.8250   -5.6100 hc        1 DD1      0.045700
     39 H19        -1.9400    2.9660   -3.6200 hc        1 DD1      0.054700
     40 H18        -1.1240    3.9320   -1.4800 hc        1 DD1      0.045700
     41 H18A        0.5340    4.1610   -2.1740 hc        1 DD1      0.045700
     42 H17         0.4920    2.1080   -0.8150 h1        1 DD1      0.047450
     43 H17A       -0.9970    1.5080   -1.6720 h1        1 DD1      0.047450
     44 H28        -1.6020    4.9970   -5.1400 h1        1 DD1      0.075700
     45 H28A       -0.3850    5.6470   -3.9100 h1        1 DD1      0.075700
     46 HN54       -2.8470    4.9670   -1.0410 hn        1 DD1      0.497467
     47 HN5A       -4.1020    4.4410   -2.0080 hn        1 DD1      0.497467
     48 HN56       -7.5100    8.1000    0.1820 hn        1 DD1      0.495800
     49 HN5B       -6.2880    8.6250    1.2120 hn        1 DD1      0.495800
     50 H36        -4.1240   10.4070   -3.6270 ha        1 DD1      0.203000
     51 H35        -2.4110    9.5680   -5.2290 ha        1 DD1      0.200000
     52 H34        -1.5510    7.2500   -5.0840 ha        1 DD1      0.195000
     53 H543       -4.3250    4.5350   -0.3350 hn        1 DD1      0.497467
     54 H563       -6.8890    9.6570    0.0260 hn        1 DD1      0.495800
@<TRIPOS>BOND
     1    1    2 1   
     2    2    3 ar  
     3    2    7 ar  
     4    3    4 ar  
     5    3   29 1   
     6    4    5 ar  
     7    4   30 1   
     8    5    6 ar  
     9    5   31 1   
    10    6    7 ar  
    11    6   32 1   
    12    7    8 1   
    13    8    9 1   
    14    8   33 1   
    15    8   34 1   
    16    9   10 1   
    17    9   14 1   
    18   10   11 1   
    19   10   35 1   
    20   10   36 1   
    21   11   12 1   
    22   11   37 1   
    23   11   38 1   
    24   12   13 1   
    25   12   15 1   
    26   12   39 1   
    27   13   14 1   
    28   13   40 1   
    29   13   41 1   
    30   14   42 1   
    31   14   43 1   
    32   15   16 1   
    33   15   44 1   
    34   15   45 1   
    35   16   17 1   
    36   17   18 ar  
    37   17   28 ar  
    38   18   19 ar  
    39   18   25 ar  
    40   19   20 1   
    41   19   21 ar  
    42   20   46 1   
    43   20   47 1   
    44   20   53 1   
    45   21   22 ar  
    46   22   23 1   
    47   22   24 ar  
    48   23   48 1   
    49   23   49 1   
    50   23   54 1   
    51   24   25 ar  
    52   25   26 ar  
    53   26   27 ar  
    54   26   50 1   
    55   27   28 ar  
    56   27   51 1   
    57   28   52 1   
@<TRIPOS>SUBSTRUCTURE
     1 DD1         1 TEMP              0 ****  ****    0 ROOT
