@<TRIPOS>MOLECULE
DD1
   52    55     1     0     0
SMALL
bcc


@<TRIPOS>ATOM
      1 F58        -5.7770    1.8580   -1.8750 f         1 DD1     -0.143900
      2 C1         -5.8980    1.5200   -0.5670 ca        1 DD1      0.122900
      3 C6         -6.5900    2.3880    0.3000 ca        1 DD1     -0.167000
      4 C5         -6.7210    2.0570    1.6440 ca        1 DD1     -0.105000
      5 C4         -6.1730    0.8710    2.1330 ca        1 DD1     -0.148000
      6 C3         -5.4920    0.0090    1.2760 ca        1 DD1     -0.087000
      7 C2         -5.3420    0.3170   -0.0800 ca        1 DD1     -0.119300
      8 C13        -4.6530   -0.6380   -1.0090 c3        1 DD1      0.213100
      9 N15        -3.3580   -1.1050   -0.5230 n3        1 DD1     -0.729600
     10 C21        -2.8620   -2.2180   -1.3240 c3        1 DD1      0.167800
     11 C20        -1.5100   -2.7450   -0.8480 c3        1 DD1     -0.075400
     12 C19        -0.4900   -1.6220   -0.7670 c3        1 DD1     -0.074700
     13 C18        -1.0270   -0.5010    0.1070 c3        1 DD1     -0.075400
     14 C17        -2.3870   -0.0260   -0.3970 c3        1 DD1      0.167800
     15 C28         0.8280   -2.1630   -0.2210 c3        1 DD1      0.137400
     16 O30         1.8300   -1.1980   -0.5760 os        1 DD1     -0.363900
     17 C32         3.0430   -1.3040    0.0780 ca        1 DD1      0.191100
     18 C38         3.8840   -0.1520    0.0800 ca        1 DD1     -0.357600
     19 C45         3.5660    1.1680   -0.4690 ca        1 DD1      0.766200
     20 N54         2.3250    1.4670   -0.9780 nh        1 DD1     -0.960500
     21 N46         4.4720    2.1780   -0.4680 nb        1 DD1     -0.853000
     22 C47         5.7020    1.9370    0.1440 ca        1 DD1      0.918900
     23 N56         6.5750    3.0280    0.2400 nh        1 DD1     -0.928500
     24 N48         6.0940    0.7500    0.6980 nb        1 DD1     -0.806000
     25 C37         5.1860   -0.2750    0.6700 ca        1 DD1      0.510600
     26 C36         5.5740   -1.5240    1.2620 ca        1 DD1     -0.232300
     27 C35         4.7180   -2.5930    1.2520 ca        1 DD1     -0.062000
     28 C34         3.4470   -2.4970    0.6550 ca        1 DD1     -0.255000
     29 H6         -7.0170    3.3190   -0.0980 ha        1 DD1      0.148000
     30 H5         -7.2600    2.7360    2.3220 ha        1 DD1      0.137000
     31 H4         -6.2790    0.6130    3.1970 ha        1 DD1      0.137000
     32 H3         -5.0600   -0.9270    1.6640 ha        1 DD1      0.152000
     33 H13        -5.3190   -1.5440   -1.1190 h1        1 DD1      0.048200
     34 H13A       -4.5610   -0.1590   -2.0300 h1        1 DD1      0.048200
     35 H21        -3.6150   -3.0520   -1.2520 h1        1 DD1      0.035200
     36 H21A       -2.7700   -1.9340   -2.4150 h1        1 DD1      0.035200
     37 H20        -1.6210   -3.2260    0.1590 hc        1 DD1      0.052450
     38 H20A       -1.1630   -3.5300   -1.5690 hc        1 DD1      0.052450
     39 H19        -0.3050   -1.2170   -1.8020 hc        1 DD1      0.062700
     40 H18        -1.1150   -0.8550    1.1670 hc        1 DD1      0.052450
     41 H18A       -0.3140    0.3640    0.0930 hc        1 DD1      0.052450
     42 H17        -2.2370    0.5110   -1.3810 h1        1 DD1      0.035200
     43 H17A       -2.8090    0.7180    0.3370 h1        1 DD1      0.035200
     44 H28         0.7890   -2.2890    0.8920 h1        1 DD1      0.048200
     45 H28A        1.0870   -3.1390   -0.7100 h1        1 DD1      0.048200
     46 HN54        2.1740    2.3470   -1.4100 hn        1 DD1      0.445300
     47 HN5A        1.6730    0.7430   -1.1490 hn        1 DD1      0.445300
     48 HN56        6.4070    3.7890   -0.3750 hn        1 DD1      0.424800
     49 HN5B        7.5270    2.8170    0.4300 hn        1 DD1      0.424800
     50 H36         6.5710   -1.6030    1.7230 ha        1 DD1      0.153000
     51 H35         5.0170   -3.5490    1.7090 ha        1 DD1      0.134000
     52 H34         2.7980   -3.3830    0.6500 ha        1 DD1      0.138000
@<TRIPOS>BOND
     1    1    2 1   
     2    2    3 ar  
     3    2    7 ar  
     4    3    4 ar  
     5    3   29 1   
     6    4    5 ar  
     7    4   30 1   
     8    5    6 ar  
     9    5   31 1   
    10    6    7 ar  
    11    6   32 1   
    12    7    8 1   
    13    8    9 1   
    14    8   33 1   
    15    8   34 1   
    16    9   10 1   
    17    9   14 1   
    18   10   11 1   
    19   10   35 1   
    20   10   36 1   
    21   11   12 1   
    22   11   37 1   
    23   11   38 1   
    24   12   13 1   
    25   12   15 1   
    26   12   39 1   
    27   13   14 1   
    28   13   40 1   
    29   13   41 1   
    30   14   42 1   
    31   14   43 1   
    32   15   16 1   
    33   15   44 1   
    34   15   45 1   
    35   16   17 1   
    36   17   18 ar  
    37   17   28 ar  
    38   18   19 ar  
    39   18   25 ar  
    40   19   20 1   
    41   19   21 ar  
    42   20   46 1   
    43   20   47 1   
    44   21   22 ar  
    45   22   23 1   
    46   22   24 ar  
    47   23   48 1   
    48   23   49 1   
    49   24   25 ar  
    50   25   26 ar  
    51   26   27 ar  
    52   26   50 1   
    53   27   28 ar  
    54   27   51 1   
    55   28   52 1   
@<TRIPOS>SUBSTRUCTURE
     1 DD1         1 TEMP              0 ****  ****    0 ROOT
