@<TRIPOS>MOLECULE
DD1
   52    50     1     0     0
SMALL
bcc


@<TRIPOS>ATOM
      1 F58         2.7040   -4.3140   -0.8510 f         1 DD1     -0.109000
      2 C1          3.4600   -4.4530    0.1850 c2        1 DD1      0.088000
      3 C6          4.7170   -4.8970    0.0330 c2        1 DD1     -0.167000
      4 C5          5.4660   -5.2380    1.1420 c1        1 DD1     -0.105000
      5 C4          4.9330   -5.1240    2.3820 c1        1 DD1     -0.117500
      6 C3          3.6670   -4.6770    2.5360 c1        1 DD1     -0.117500
      7 C2          2.9220   -4.3380    1.4400 c1        1 DD1     -0.112000
      8 C13         1.4600   -3.8520    1.6220 c3        1 DD1     -0.031000
      9 N15         1.3710   -2.3910    1.3070 n3        1 DD1     -0.255000
     10 C21         0.6330   -2.2100    0.0480 c3        1 DD1     -0.069000
     11 C20         0.3570   -0.7020   -0.2740 c3        1 DD1     -0.153500
     12 C19        -0.2660    0.0010    0.8440 c3        1 DD1     -0.114000
     13 C18         0.4880   -0.1950    2.1340 c3        1 DD1     -0.153500
     14 C17         0.7500   -1.6810    2.4420 c3        1 DD1     -0.069000
     15 C28        -0.3090    1.5690    0.4980 c3        1 DD1     -0.013000
     16 O30        -1.6620    1.9510    0.1320 os        1 DD1     -0.245000
     17 C32        -1.7710    3.2750   -0.3880 c2        1 DD1      0.147000
     18 C38        -2.6460    3.5430   -1.4520 c2        1 DD1     -0.226000
     19 C45        -3.4150    2.5240   -1.9990 c2        1 DD1      0.240000
     20 N54        -3.3250    1.2110   -1.4810 n3        1 DD1     -0.351000
     21 N46        -4.2450    2.7870   -3.0130 n1        1 DD1     -0.322000
     22 C47        -4.3400    4.1100   -3.5300 c1        1 DD1      0.198000
     23 N56        -5.3080    4.4160   -4.5710 n3        1 DD1     -0.323000
     24 N48        -3.5770    5.1180   -2.9870 n1        1 DD1     -0.278000
     25 C37        -2.7450    4.8600   -1.9710 c1        1 DD1      0.117000
     26 C36        -1.9620    5.9090   -1.4160 c2        1 DD1     -0.167000
     27 C35        -1.1240    5.6560   -0.3970 c1        1 DD1     -0.061000
     28 C34        -1.0150    4.2880    0.1480 c1        1 DD1     -0.256000
     29 H6          5.0780   -4.9750   -0.8100 ha        1 DD1      0.148000
     30 H5          6.4410   -5.5830    1.0280 ha        1 DD1      0.137000
     31 H4          5.4280   -5.3490    3.1090 ha        1 DD1      0.144500
     32 H3          3.3030   -4.5990    3.3860 ha        1 DD1      0.144500
     33 H13         1.1740   -4.0050    2.5860 h1        1 DD1      0.087500
     34 H13A        0.8110   -4.4040    0.9620 h1        1 DD1      0.087500
     35 H21         1.1500   -2.5940   -0.6710 h1        1 DD1      0.075000
     36 H21A       -0.2640   -2.7080    0.1150 h1        1 DD1      0.075000
     37 H20        -0.2970   -0.6420   -1.1280 hc        1 DD1      0.091250
     38 H20A        1.3030   -0.2120   -0.5170 hc        1 DD1      0.091250
     39 H19        -1.2170   -0.3410    0.9570 hc        1 DD1      0.103000
     40 H18         1.3350    0.2660    2.0770 hc        1 DD1      0.091250
     41 H18A       -0.0400    0.1950    2.8750 hc        1 DD1      0.091250
     42 H17        -0.1470   -2.1340    2.6720 h1        1 DD1      0.075000
     43 H17A        1.3630   -1.7470    3.2460 h1        1 DD1      0.075000
     44 H28         0.2890    1.7490   -0.2470 h1        1 DD1      0.087500
     45 H28A       -0.0310    2.0640    1.2510 h1        1 DD1      0.087500
     46 HN54       -3.9980    0.8740   -1.0220 hn        1 DD1      0.236500
     47 HN5A       -2.6900    0.7230   -1.7020 hn        1 DD1      0.236500
     48 HN56       -5.3730    5.2560   -4.8930 hn        1 DD1      0.219000
     49 HN5B       -5.8160    3.7400   -4.9410 hn        1 DD1      0.219000
     50 H36        -2.0320    6.8050   -1.7720 ha        1 DD1      0.153000
     51 H35        -0.5900    6.3740   -0.0190 ha        1 DD1      0.134000
     52 H34        -0.3990    4.1030    0.8990 ha        1 DD1      0.138000
@<TRIPOS>BOND
     1    1    2 1   
     2    2    3 1   
     3    2    7 1   
     4    3    4 1   
     5    3   29 1   
     6    4   30 1   
     7    5    6 1   
     8    5   31 1   
     9    6   32 1   
    10    7    8 1   
    11    8    9 1   
    12    8   33 1   
    13    8   34 1   
    14    9   10 1   
    15    9   14 1   
    16   10   11 1   
    17   10   35 1   
    18   10   36 1   
    19   11   12 1   
    20   11   37 1   
    21   11   38 1   
    22   12   13 1   
    23   12   15 1   
    24   12   39 1   
    25   13   14 1   
    26   13   40 1   
    27   13   41 1   
    28   14   42 1   
    29   14   43 1   
    30   15   16 1   
    31   15   44 1   
    32   15   45 1   
    33   16   17 1   
    34   17   18 1   
    35   17   28 1   
    36   18   19 1   
    37   18   25 1   
    38   19   20 1   
    39   19   21 1   
    40   20   46 1   
    41   20   47 1   
    42   22   23 1   
    43   22   24 1   
    44   23   48 1   
    45   23   49 1   
    46   25   26 1   
    47   26   27 1   
    48   26   50 1   
    49   27   51 1   
    50   28   52 1   
@<TRIPOS>SUBSTRUCTURE
     1 DD1         1 TEMP              0 ****  ****    0 ROOT
