@<TRIPOS>MOLECULE
DD2
   52    48     1     0     0
SMALL
bcc


@<TRIPOS>ATOM
      1 C1         -1.4300    4.8620    3.0340 c1        1 DD2     -0.052500
      2 C2         -0.3340    4.1140    3.4820 c1        1 DD2     -0.062000
      3 C3         -0.2140    3.7940    4.8240 c1        1 DD2     -0.121000
      4 C4         -1.1840    4.2160    5.7330 c1        1 DD2     -0.120500
      5 C5         -2.2800    4.9620    5.2910 c1        1 DD2     -0.120500
      6 C6         -2.4030    5.2850    3.9420 c1        1 DD2     -0.052500
      7 C9          0.7550    3.6190    2.4610 c3        1 DD2     -0.028000
      8 C11         0.8880    2.8620    0.2420 c3        1 DD2     -0.065500
      9 C14        -0.3650    0.3630    1.0310 c3        1 DD2     -0.153500
     10 C15         0.1270    1.3770    2.0570 c3        1 DD2     -0.065500
     11 O17         0.6920   -1.3040   -1.9640 os        1 DD2     -0.255000
     12 C18         0.1650   -2.3210   -2.7940 c2        1 DD2      0.111000
     13 C19        -0.8510   -1.8200   -3.6250 c2        1 DD2     -0.199000
     14 C20        -1.5230   -2.6700   -4.4920 c1        1 DD2     -0.080000
     15 C21        -1.1900   -4.0260   -4.5410 c1        1 DD2     -0.146000
     16 C22        -0.1500   -4.5440   -3.6930 c1        1 DD2      0.102000
     17 C24         1.5460   -4.2280   -2.0130 c1        1 DD2      0.229000
     18 C26         1.2020   -6.3820   -2.9340 c1        1 DD2      0.195000
     19 CL8        -1.5050    5.3820    1.3770 cl        1 DD2      0.014000
     20 CL7        -3.6800    6.3220    3.4150 cl        1 DD2      0.014000
     21 N10         0.1600    2.7620    1.5150 n3        1 DD2     -0.251000
     22 C13         0.3710    0.4560   -0.2540 c3        1 DD2     -0.109000
     23 C12         0.3990    1.8530   -0.7920 c3        1 DD2     -0.153500
     24 C16        -0.3220   -0.4830   -1.3100 c3        1 DD2     -0.017000
     25 C23         0.5090   -3.7150   -2.8430 c1        1 DD2     -0.215000
     26 N29         2.2710   -3.3550   -1.1590 n2        1 DD2     -0.337500
     27 N25         1.8730   -5.5430   -2.0710 n2        1 DD2     -0.316000
     28 N28         1.7330   -7.7260   -3.1060 n2        1 DD2     -0.337500
     29 N27         0.1850   -5.8790   -3.7500 n2        1 DD2     -0.275000
     30 H3          0.5470    3.2760    5.1320 ha        1 DD2      0.139000
     31 H4         -1.0950    3.9860    6.6920 ha        1 DD2      0.146000
     32 H5         -2.9550    5.2550    5.9230 ha        1 DD2      0.146000
     33 H9          1.1430    4.3760    2.0090 h1        1 DD2      0.084000
     34 H9A         1.4550    3.1350    2.9430 h1        1 DD2      0.084000
     35 H11         0.7680    3.7930   -0.1270 h1        1 DD2      0.071750
     36 H11A        1.8230    2.7090    0.4050 h1        1 DD2      0.071750
     37 H14        -1.3220    0.5230    0.8620 hc        1 DD2      0.093750
     38 H14A       -0.2490   -0.5700    1.4080 hc        1 DD2      0.093750
     39 H15        -0.4740    1.3570    2.8370 h1        1 DD2      0.071750
     40 H15A        1.0540    1.1210    2.3540 h1        1 DD2      0.071750
     41 H19        -1.0860   -0.8720   -3.5920 ha        1 DD2      0.143000
     42 H20        -2.2280   -2.3210   -5.0680 ha        1 DD2      0.136000
     43 H21        -1.6910   -4.6560   -5.1880 ha        1 DD2      0.153000
     44 H13         1.2730    0.1570   -0.1180 hc        1 DD2      0.094000
     45 H12        -0.4720    2.0960   -1.0690 hc        1 DD2      0.093750
     46 H12A        0.9900    1.8800   -1.5600 hc        1 DD2      0.093750
     47 H16        -0.7920    0.0710   -1.9900 h1        1 DD2      0.085500
     48 H16A       -0.9700   -1.0620   -0.8560 h1        1 DD2      0.085500
     49 HN29        3.0180   -3.6700   -0.6950 hn        1 DD2      0.227000
     50 HN2A        2.0000   -2.5100   -1.0500 hn        1 DD2      0.227000
     51 HN28        1.4230   -8.2590   -3.7860 hn        1 DD2      0.227000
     52 HN2B        2.3930   -8.0460   -2.5260 hn        1 DD2      0.227000
@<TRIPOS>BOND
     1    1    6 1   
     2    1   19 1   
     3    2    3 1   
     4    2    7 1   
     5    3   30 1   
     6    4    5 1   
     7    4   31 1   
     8    5   32 1   
     9    6   20 1   
    10    7   21 1   
    11    7   33 1   
    12    7   34 1   
    13    8   21 1   
    14    8   23 1   
    15    8   35 1   
    16    8   36 1   
    17    9   10 1   
    18    9   22 1   
    19    9   37 1   
    20    9   38 1   
    21   10   21 1   
    22   10   39 1   
    23   10   40 1   
    24   11   12 1   
    25   11   24 1   
    26   12   13 1   
    27   12   25 1   
    28   13   14 1   
    29   13   41 1   
    30   14   42 1   
    31   15   16 1   
    32   15   43 1   
    33   16   29 1   
    34   17   25 1   
    35   17   27 1   
    36   18   27 1   
    37   18   29 1   
    38   22   23 1   
    39   22   24 1   
    40   22   44 1   
    41   23   45 1   
    42   23   46 1   
    43   24   47 1   
    44   24   48 1   
    45   26   49 1   
    46   26   50 1   
    47   28   51 1   
    48   28   52 1   
@<TRIPOS>SUBSTRUCTURE
     1 DD2         1 TEMP              0 ****  ****    0 ROOT
