@<TRIPOS>MOLECULE
DD2
   52    55     1     0     0
SMALL
bcc


@<TRIPOS>ATOM
      1 C1          5.3250    0.2190    0.3550 ca        1 DD2      0.039400
      2 C2          4.7360    1.0320   -0.6260 ca        1 DD2     -0.070300
      3 C3          5.3990    1.2310   -1.8410 ca        1 DD2     -0.121000
      4 C4          6.6340    0.6350   -2.0830 ca        1 DD2     -0.125000
      5 C5          7.2230   -0.1730   -1.1140 ca        1 DD2     -0.116000
      6 C6          6.5700   -0.3830    0.1050 ca        1 DD2      0.012400
      7 C9          3.4250    1.7260   -0.3860 c3        1 DD2      0.217100
      8 C11         1.1080    1.4450    0.2330 c3        1 DD2      0.171300
      9 C14         0.8500   -0.7860   -1.5970 c3        1 DD2     -0.075400
     10 C15         2.0230    0.1910   -1.6330 c3        1 DD2      0.171300
     11 O17        -2.7410   -0.3480   -0.8810 os        1 DD2     -0.362900
     12 C18        -3.8850   -1.0300   -0.5110 ca        1 DD2      0.192100
     13 C19        -3.9690   -2.4090   -0.6060 ca        1 DD2     -0.255000
     14 C20        -5.1780   -3.0610   -0.2930 ca        1 DD2     -0.061000
     15 C21        -6.2870   -2.3490    0.0810 ca        1 DD2     -0.232300
     16 C22        -6.2350   -0.9180    0.1760 ca        1 DD2      0.509600
     17 C24        -5.0160    1.2060    0.1190 ca        1 DD2      0.760200
     18 C26        -7.3200    1.1050    0.5810 ca        1 DD2      0.915900
     19 CL8         4.5500   -0.0340    1.8420 cl        1 DD2     -0.055400
     20 CL7         7.3130   -1.3730    1.2670 cl        1 DD2     -0.071400
     21 N10         2.2880    0.8150   -0.3440 n3        1 DD2     -0.725600
     22 C13        -0.3940   -0.1080   -1.0470 c3        1 DD2     -0.074700
     23 C12        -0.0910    0.5020    0.3110 c3        1 DD2     -0.075400
     24 C16        -1.5320   -1.1190   -0.9540 c3        1 DD2      0.137400
     25 C23        -4.9960   -0.2430   -0.0860 ca        1 DD2     -0.355600
     26 N29        -3.8650    1.9610    0.0930 nh        1 DD2     -0.953500
     27 N25        -6.1620    1.8670    0.4180 nb        1 DD2     -0.848000
     28 N28        -8.5130    1.8140    0.7740 nh        1 DD2     -0.925500
     29 N27        -7.3860   -0.2590    0.5190 nb        1 DD2     -0.804000
     30 H3          4.9380    1.8660   -2.6140 ha        1 DD2      0.139000
     31 H4          7.1480    0.8000   -3.0420 ha        1 DD2      0.141000
     32 H5          8.1980   -0.6460   -1.3040 ha        1 DD2      0.151000
     33 H9          3.4840    2.2530    0.6110 h1        1 DD2      0.045200
     34 H9A         3.2870    2.5220   -1.1790 h1        1 DD2      0.045200
     35 H11         1.3730    1.7740    1.2770 h1        1 DD2      0.033200
     36 H11A        0.8040    2.3650   -0.3490 h1        1 DD2      0.033200
     37 H14         0.6620   -1.1510   -2.6400 hc        1 DD2      0.053700
     38 H14A        1.1100   -1.6710   -0.9610 hc        1 DD2      0.053700
     39 H15         2.9540   -0.3680   -1.9330 h1        1 DD2      0.033200
     40 H15A        1.8170    0.9650   -2.4320 h1        1 DD2      0.033200
     41 H19        -3.1140   -3.0150   -0.9310 ha        1 DD2      0.138000
     42 H20        -5.2200   -4.1590   -0.3650 ha        1 DD2      0.134000
     43 H21        -7.2350   -2.8600    0.3080 ha        1 DD2      0.153000
     44 H13        -0.7070    0.7140   -1.7510 hc        1 DD2      0.061700
     45 H12         0.1170   -0.3120    1.0530 hc        1 DD2      0.053700
     46 H12A       -0.9810    1.0790    0.6740 hc        1 DD2      0.053700
     47 H16        -1.4310   -1.7660   -0.0450 h1        1 DD2      0.048700
     48 H16A       -1.5720   -1.7570   -1.8770 h1        1 DD2      0.048700
     49 HN29       -3.0440    1.5780   -0.3090 hn        1 DD2      0.440300
     50 HN2A       -3.9400    2.9510    0.1240 hn        1 DD2      0.440300
     51 HN28       -8.4240    2.7510    1.0940 hn        1 DD2      0.423800
     52 HN2B       -9.2760    1.2970    1.1450 hn        1 DD2      0.423800
@<TRIPOS>BOND
     1    1    2 ar  
     2    1    6 ar  
     3    1   19 1   
     4    2    3 ar  
     5    2    7 1   
     6    3    4 ar  
     7    3   30 1   
     8    4    5 ar  
     9    4   31 1   
    10    5    6 ar  
    11    5   32 1   
    12    6   20 1   
    13    7   21 1   
    14    7   33 1   
    15    7   34 1   
    16    8   21 1   
    17    8   23 1   
    18    8   35 1   
    19    8   36 1   
    20    9   10 1   
    21    9   22 1   
    22    9   37 1   
    23    9   38 1   
    24   10   21 1   
    25   10   39 1   
    26   10   40 1   
    27   11   12 1   
    28   11   24 1   
    29   12   13 ar  
    30   12   25 ar  
    31   13   14 ar  
    32   13   41 1   
    33   14   15 ar  
    34   14   42 1   
    35   15   16 ar  
    36   15   43 1   
    37   16   25 ar  
    38   16   29 ar  
    39   17   25 ar  
    40   17   26 1   
    41   17   27 ar  
    42   18   27 ar  
    43   18   28 1   
    44   18   29 ar  
    45   22   23 1   
    46   22   24 1   
    47   22   44 1   
    48   23   45 1   
    49   23   46 1   
    50   24   47 1   
    51   24   48 1   
    52   26   49 1   
    53   26   50 1   
    54   28   51 1   
    55   28   52 1   
@<TRIPOS>SUBSTRUCTURE
     1 DD2         1 TEMP              0 ****  ****    0 ROOT
