@<TRIPOS>MOLECULE
DD2
   54    57     1     0     0
SMALL
bcc


@<TRIPOS>ATOM
      1 C1         -0.0200   -0.1300   -0.0840 ca        1 DD2      0.038400
      2 C2          1.3750    0.0320   -0.0760 ca        1 DD2     -0.091300
      3 C3          2.0270    0.3260    1.1250 ca        1 DD2     -0.120000
      4 C4          1.3040    0.4620    2.3080 ca        1 DD2     -0.116000
      5 C5         -0.0790    0.2970    2.3070 ca        1 DD2     -0.103000
      6 C6         -0.7450   -0.0000    1.1130 ca        1 DD2      0.014400
      7 C9          2.1780   -0.0560   -1.3430 c3        1 DD2      0.226100
      8 C11         2.5710   -1.4310   -3.3090 c3        1 DD2      0.176300
      9 C14         2.8250   -3.7830   -1.6290 c3        1 DD2     -0.069900
     10 C15         2.9610   -2.3510   -1.1110 c3        1 DD2      0.176300
     11 O17         3.4710   -5.3430   -4.9420 os        1 DD2     -0.405900
     12 C18         3.2680   -6.5000   -5.6460 ca        1 DD2      0.174100
     13 C19         2.7090   -7.6540   -5.0970 ca        1 DD2     -0.135000
     14 C20         2.5490   -8.8070   -5.8760 ca        1 DD2     -0.017000
     15 C21         2.9380   -8.8370   -7.2060 ca        1 DD2     -0.157300
     16 C22         3.5080   -7.6830   -7.7990 ca        1 DD2      0.441600
     17 C24         4.2660   -5.3610   -7.7110 ca        1 DD2      0.608200
     18 C26         4.4190   -6.6130   -9.6470 ca        1 DD2      0.713900
     19 CL8        -0.8390   -0.4660   -1.5340 cl        1 DD2     -0.073400
     20 CL7        -2.4280   -0.1950    1.1400 cl        1 DD2     -0.050400
     21 N10         2.2020   -1.4000   -1.9060 n3        1 DD2     -0.736600
     22 C13         3.1990   -3.8580   -3.1060 c3        1 DD2     -0.077700
     23 C12         2.4110   -2.8320   -3.9040 c3        1 DD2     -0.069900
     24 C16         2.9250   -5.2750   -3.5960 c3        1 DD2      0.136400
     25 C23         3.6820   -6.4760   -7.0090 ca        1 DD2     -0.271600
     26 N29         4.4860   -4.0830   -6.9980 n4        1 DD2     -0.833300
     27 N25         4.6360   -5.3940   -8.9960 nb        1 DD2     -0.700000
     28 N28         4.8300   -6.6530  -11.0810 n4        1 DD2     -0.811300
     29 N27         3.8890   -7.7260   -9.1260 nb        1 DD2     -0.578000
     30 H3          3.1190    0.4620    1.1350 ha        1 DD2      0.139000
     31 H4          1.8250    0.7020    3.2480 ha        1 DD2      0.153000
     32 H5         -0.6510    0.4060    3.2430 ha        1 DD2      0.164000
     33 H9          1.7100    0.6350   -2.1040 h1        1 DD2      0.051700
     34 H9A         3.2250    0.3190   -1.1420 h1        1 DD2      0.051700
     35 H11         1.8910   -0.7260   -3.8660 h1        1 DD2      0.044950
     36 H11A        3.6360   -1.0890   -3.4770 h1        1 DD2      0.044950
     37 H14         1.7710   -4.1370   -1.4870 hc        1 DD2      0.045200
     38 H14A        3.5010   -4.4450   -1.0290 hc        1 DD2      0.045200
     39 H15         2.5600   -2.3090   -0.0570 h1        1 DD2      0.044950
     40 H15A        4.0590   -2.0850   -1.0740 h1        1 DD2      0.044950
     41 H19         2.3880   -7.6750   -4.0390 ha        1 DD2      0.195000
     42 H20         2.1040   -9.7110   -5.4160 ha        1 DD2      0.201000
     43 H21         2.8040   -9.7570   -7.8060 ha        1 DD2      0.203000
     44 H13         4.2980   -3.6420   -3.2130 hc        1 DD2      0.055700
     45 H12         2.7760   -2.8150   -4.9650 hc        1 DD2      0.045200
     46 H12A        1.3250   -3.1110   -3.9180 hc        1 DD2      0.045200
     47 H16         1.8260   -5.4900   -3.6420 h1        1 DD2      0.075700
     48 H16A        3.4580   -6.0310   -2.9630 h1        1 DD2      0.075700
     49 HN29        3.5800   -3.7700   -6.6000 hn        1 DD2      0.496800
     50 HN2A        5.1270   -4.2600   -6.2060 hn        1 DD2      0.496800
     51 HN28        5.8390   -6.4570  -11.1520 hn        1 DD2      0.495800
     52 HN2B        4.3040   -5.9410  -11.6070 hn        1 DD2      0.495800
     53 H293        4.8750   -3.3520   -7.6100 hn        1 DD2      0.496800
     54 H283        4.6350   -7.5870  -11.4780 hn        1 DD2      0.495800
@<TRIPOS>BOND
     1    1    2 ar  
     2    1    6 ar  
     3    1   19 1   
     4    2    3 ar  
     5    2    7 1   
     6    3    4 ar  
     7    3   30 1   
     8    4    5 ar  
     9    4   31 1   
    10    5    6 ar  
    11    5   32 1   
    12    6   20 1   
    13    7   21 1   
    14    7   33 1   
    15    7   34 1   
    16    8   21 1   
    17    8   23 1   
    18    8   35 1   
    19    8   36 1   
    20    9   10 1   
    21    9   22 1   
    22    9   37 1   
    23    9   38 1   
    24   10   21 1   
    25   10   39 1   
    26   10   40 1   
    27   11   12 1   
    28   11   24 1   
    29   12   13 ar  
    30   12   25 ar  
    31   13   14 ar  
    32   13   41 1   
    33   14   15 ar  
    34   14   42 1   
    35   15   16 ar  
    36   15   43 1   
    37   16   25 ar  
    38   16   29 ar  
    39   17   25 ar  
    40   17   26 1   
    41   17   27 ar  
    42   18   27 ar  
    43   18   28 1   
    44   18   29 ar  
    45   22   23 1   
    46   22   24 1   
    47   22   44 1   
    48   23   45 1   
    49   23   46 1   
    50   24   47 1   
    51   24   48 1   
    52   26   49 1   
    53   26   50 1   
    54   26   53 1   
    55   28   51 1   
    56   28   52 1   
    57   28   54 1   
@<TRIPOS>SUBSTRUCTURE
     1 DD2         1 TEMP              0 ****  ****    0 ROOT
