@<TRIPOS>MOLECULE
DD2
   52    55     1     0     0
SMALL
bcc


@<TRIPOS>ATOM
      1 C1         -0.0170   -0.0030    0.0720 ca        1 DD2      0.039400
      2 C2          1.3780    0.0600   -0.0780 ca        1 DD2     -0.070300
      3 C3          2.1780    0.3230    1.0390 ca        1 DD2     -0.121000
      4 C4          1.6050    0.5260    2.2920 ca        1 DD2     -0.125000
      5 C5          0.2220    0.4640    2.4470 ca        1 DD2     -0.116000
      6 C6         -0.5900    0.1990    1.3390 ca        1 DD2      0.012400
      7 C9          2.0310   -0.1110   -1.4210 c3        1 DD2      0.217100
      8 C11         2.2650   -1.5420   -3.3520 c3        1 DD2      0.171300
      9 C14         2.6490   -3.8500   -1.6430 c3        1 DD2     -0.075400
     10 C15         2.7400   -2.4120   -1.1370 c3        1 DD2      0.171300
     11 O17         3.6280   -5.4410   -4.8260 os        1 DD2     -0.364900
     12 C18         3.3740   -6.5320   -5.6370 ca        1 DD2      0.191100
     13 C19         2.8070   -7.6890   -5.1270 ca        1 DD2     -0.254000
     14 C20         2.6260   -8.8070   -5.9630 ca        1 DD2     -0.062000
     15 C21         3.0140   -8.7760   -7.2760 ca        1 DD2     -0.232300
     16 C22         3.6060   -7.5930   -7.8320 ca        1 DD2      0.510600
     17 C24         4.3580   -5.2670   -7.6650 ca        1 DD2      0.765200
     18 C26         4.5370   -6.4920   -9.6650 ca        1 DD2      0.918900
     19 CL8        -1.0120   -0.3120   -1.2650 cl        1 DD2     -0.055400
     20 CL7        -2.2720    0.1300    1.5600 cl        1 DD2     -0.071400
     21 N10         1.9560   -1.4750   -1.9290 n3        1 DD2     -0.725600
     22 C13         3.0260   -3.9230   -3.1140 c3        1 DD2     -0.074700
     23 C12         2.1680   -2.9580   -3.9150 c3        1 DD2     -0.075400
     24 C16         2.8600   -5.3540   -3.6160 c3        1 DD2      0.137400
     25 C23         3.7750   -6.4350   -7.0020 ca        1 DD2     -0.356600
     26 N29         4.4890   -4.0560   -7.0280 nh        1 DD2     -0.960500
     27 N25         4.7640   -5.3100   -8.9580 nb        1 DD2     -0.852000
     28 N28         4.8510   -6.4740  -11.0300 nh        1 DD2     -0.928500
     29 N27         3.9880   -7.6320   -9.1470 nb        1 DD2     -0.806000
     30 H3          3.2720    0.3710    0.9240 ha        1 DD2      0.139000
     31 H4          2.2430    0.7360    3.1630 ha        1 DD2      0.141000
     32 H5         -0.2330    0.6230    3.4370 ha        1 DD2      0.151000
     33 H9          3.1030    0.2450   -1.3490 h1        1 DD2      0.045200
     34 H9A         1.5020    0.5630   -2.1570 h1        1 DD2      0.045200
     35 H11         1.5210   -0.8910   -3.8930 h1        1 DD2      0.032950
     36 H11A        3.2980   -1.1370   -3.5710 h1        1 DD2      0.032950
     37 H14         3.3430   -4.4840   -1.0340 hc        1 DD2      0.053700
     38 H14A        1.6080   -4.2390   -1.5010 hc        1 DD2      0.053700
     39 H15         2.3450   -2.3720   -0.0820 h1        1 DD2      0.032950
     40 H15A        3.8310   -2.1150   -1.1040 h1        1 DD2      0.032950
     41 H19         2.5010   -7.7600   -4.0750 ha        1 DD2      0.138000
     42 H20         2.1680   -9.7150   -5.5390 ha        1 DD2      0.134000
     43 H21         2.8770   -9.6540   -7.9260 ha        1 DD2      0.153000
     44 H13         4.1070   -3.6300   -3.2320 hc        1 DD2      0.060700
     45 H12         1.1000   -3.2990   -3.9000 hc        1 DD2      0.053700
     46 H12A        2.5100   -2.9470   -4.9820 hc        1 DD2      0.053700
     47 H16         3.2810   -6.0840   -2.8760 h1        1 DD2      0.048700
     48 H16A        1.7840   -5.5920   -3.8210 h1        1 DD2      0.048700
     49 HN29        4.3660   -3.9980   -6.0480 hn        1 DD2      0.443800
     50 HN2A        4.9650   -3.3150   -7.4840 hn        1 DD2      0.443800
     51 HN28        5.4750   -5.7630  -11.3340 hn        1 DD2      0.424800
     52 HN2B        4.9390   -7.3580  -11.4750 hn        1 DD2      0.424800
@<TRIPOS>BOND
     1    1    2 ar  
     2    1    6 ar  
     3    1   19 1   
     4    2    3 ar  
     5    2    7 1   
     6    3    4 ar  
     7    3   30 1   
     8    4    5 ar  
     9    4   31 1   
    10    5    6 ar  
    11    5   32 1   
    12    6   20 1   
    13    7   21 1   
    14    7   33 1   
    15    7   34 1   
    16    8   21 1   
    17    8   23 1   
    18    8   35 1   
    19    8   36 1   
    20    9   10 1   
    21    9   22 1   
    22    9   37 1   
    23    9   38 1   
    24   10   21 1   
    25   10   39 1   
    26   10   40 1   
    27   11   12 1   
    28   11   24 1   
    29   12   13 ar  
    30   12   25 ar  
    31   13   14 ar  
    32   13   41 1   
    33   14   15 ar  
    34   14   42 1   
    35   15   16 ar  
    36   15   43 1   
    37   16   25 ar  
    38   16   29 ar  
    39   17   25 ar  
    40   17   26 1   
    41   17   27 ar  
    42   18   27 ar  
    43   18   28 1   
    44   18   29 ar  
    45   22   23 1   
    46   22   24 1   
    47   22   44 1   
    48   23   45 1   
    49   23   46 1   
    50   24   47 1   
    51   24   48 1   
    52   26   49 1   
    53   26   50 1   
    54   28   51 1   
    55   28   52 1   
@<TRIPOS>SUBSTRUCTURE
     1 DD2         1 TEMP              0 ****  ****    0 ROOT
