@<TRIPOS>MOLECULE
DD2
   52    55     1     0     0
SMALL
bcc


@<TRIPOS>ATOM
      1 C1         -0.0110    0.0040    0.0730 ca        1 DD2      0.039400
      2 C2          1.3840    0.0610   -0.0750 ca        1 DD2     -0.070300
      3 C3          2.1830    0.3180    1.0440 ca        1 DD2     -0.121000
      4 C4          1.6090    0.5210    2.2960 ca        1 DD2     -0.125000
      5 C5          0.2270    0.4650    2.4490 ca        1 DD2     -0.116000
      6 C6         -0.5850    0.2070    1.3400 ca        1 DD2      0.012400
      7 C9          2.0380   -0.1110   -1.4180 c3        1 DD2      0.217100
      8 C11         2.2700   -1.5390   -3.3510 c3        1 DD2      0.171300
      9 C14         2.6350   -3.8520   -1.6460 c3        1 DD2     -0.075400
     10 C15         2.7320   -2.4170   -1.1360 c3        1 DD2      0.171300
     11 O17         3.6170   -5.4420   -4.8280 os        1 DD2     -0.364900
     12 C18         3.3630   -6.5310   -5.6410 ca        1 DD2      0.191100
     13 C19         2.7870   -7.6860   -5.1360 ca        1 DD2     -0.254000
     14 C20         2.6060   -8.8030   -5.9740 ca        1 DD2     -0.062000
     15 C21         3.0040   -8.7730   -7.2840 ca        1 DD2     -0.232300
     16 C22         3.6070   -7.5930   -7.8350 ca        1 DD2      0.510600
     17 C24         4.3680   -5.2700   -7.6620 ca        1 DD2      0.765200
     18 C26         4.5570   -6.4960   -9.6600 ca        1 DD2      0.918900
     19 Cl8        -1.0070   -0.2960   -1.2660 cl        1 DD2     -0.055400
     20 Cl7        -2.2680    0.1460    1.5580 cl        1 DD2     -0.071400
     21 N10         1.9570   -1.4730   -1.9290 n3        1 DD2     -0.725600
     22 C13         3.0160   -3.9250   -3.1150 c3        1 DD2     -0.074700
     23 C12         2.1670   -2.9530   -3.9170 c3        1 DD2     -0.075400
     24 C16         2.8440   -5.3530   -3.6220 c3        1 DD2      0.137400
     25 C23         3.7750   -6.4360   -7.0030 ca        1 DD2     -0.356600
     26 N29         4.4990   -4.0600   -7.0240 nv        1 DD2     -0.960500
     27 N25         4.7840   -5.3150   -8.9520 nb        1 DD2     -0.852000
     28 N28         4.8830   -6.4790  -11.0220 nv        1 DD2     -0.928500
     29 N27         3.9990   -7.6340   -9.1470 nb        1 DD2     -0.806000
     30 H3          3.2780    0.3600    0.9310 ha        1 DD2      0.139000
     31 H4          2.2480    0.7250    3.1680 ha        1 DD2      0.141000
     32 H5         -0.2290    0.6240    3.4390 ha        1 DD2      0.151000
     33 H9          1.5140    0.5680   -2.1530 h1        1 DD2      0.045200
     34 H9A         3.1110    0.2400   -1.3440 h1        1 DD2      0.045200
     35 H11         3.3060   -1.1400   -3.5650 h1        1 DD2      0.032950
     36 H11A        1.5320   -0.8820   -3.8930 h1        1 DD2      0.032950
     37 H14         3.3220   -4.4920   -1.0360 hc        1 DD2      0.053700
     38 H14A        1.5910   -4.2360   -1.5080 hc        1 DD2      0.053700
     39 H15         2.3330   -2.3760   -0.0830 h1        1 DD2      0.032950
     40 H15A        3.8240   -2.1260   -1.0990 h1        1 DD2      0.032950
     41 H19         2.4730   -7.7560   -4.0870 ha        1 DD2      0.138000
     42 H20         2.1410   -9.7090   -5.5540 ha        1 DD2      0.134000
     43 H21         2.8680   -9.6510   -7.9350 ha        1 DD2      0.153000
     44 H13         4.1000   -3.6370   -3.2290 hc        1 DD2      0.060700
     45 H12         1.0970   -3.2880   -3.9070 hc        1 DD2      0.053700
     46 H12A        2.5130   -2.9410   -4.9840 hc        1 DD2      0.053700
     47 H16         1.7680   -5.5850   -3.8320 h1        1 DD2      0.048700
     48 H16A        3.2570   -6.0880   -2.8810 h1        1 DD2      0.048700
     49 HN29        4.9810   -3.3210   -7.4760 hn        1 DD2      0.443800
     50 HN2A        4.3680   -4.0010   -6.0450 hn        1 DD2      0.443800
     51 HN28        4.9700   -7.3640  -11.4670 hn        1 DD2      0.424800
     52 HN2B        5.5120   -5.7710  -11.3210 hn        1 DD2      0.424800
@<TRIPOS>BOND
     1    1    2 ar  
     2    1    6 ar  
     3    1   19 1   
     4    2    3 ar  
     5    2    7 1   
     6    3    4 ar  
     7    3   30 1   
     8    4    5 ar  
     9    4   31 1   
    10    5    6 ar  
    11    5   32 1   
    12    6   20 1   
    13    7   21 1   
    14    7   33 1   
    15    7   34 1   
    16    8   21 1   
    17    8   23 1   
    18    8   35 1   
    19    8   36 1   
    20    9   10 1   
    21    9   22 1   
    22    9   37 1   
    23    9   38 1   
    24   10   21 1   
    25   10   39 1   
    26   10   40 1   
    27   11   12 1   
    28   11   24 1   
    29   12   13 ar  
    30   12   25 ar  
    31   13   14 ar  
    32   13   41 1   
    33   14   15 ar  
    34   14   42 1   
    35   15   16 ar  
    36   15   43 1   
    37   16   25 ar  
    38   16   29 ar  
    39   17   25 ar  
    40   17   26 1   
    41   17   27 ar  
    42   18   27 ar  
    43   18   28 1   
    44   18   29 ar  
    45   22   23 1   
    46   22   24 1   
    47   22   44 1   
    48   23   45 1   
    49   23   46 1   
    50   24   47 1   
    51   24   48 1   
    52   26   49 1   
    53   26   50 1   
    54   28   51 1   
    55   28   52 1   
@<TRIPOS>SUBSTRUCTURE
     1 DD2         1 TEMP              0 ****  ****    0 ROOT
