@<TRIPOS>MOLECULE
DD3
   37    39     1     0     0
SMALL
bcc


@<TRIPOS>ATOM
      1 C14         2.0530    0.0810    0.5770 ca        1 DD3     -0.097300
      2 C13         1.6620    1.8960    2.2390 c3        1 DD3     -0.109100
      3 C12         1.1360    1.1930    0.9990 c3        1 DD3      0.188400
      4 C17         3.8010   -1.9700   -0.1910 ca        1 DD3     -0.118000
      5 C16         3.6500   -0.8310   -0.9890 ca        1 DD3      0.017400
      6 C15         2.7770    0.1940   -0.6140 ca        1 DD3     -0.113000
      7 N3         -3.1350   -1.9520   -0.4540 nb        1 DD3     -0.851000
      8 C10        -1.2420    1.1360    0.6960 ca        1 DD3      0.174100
      9 C8         -2.5830    3.0650    0.1210 ca        1 DD3     -0.072000
     10 C7         -3.5580    2.2600   -0.4060 ca        1 DD3     -0.220300
     11 C5         -2.2170    0.2550    0.1500 ca        1 DD3     -0.350600
     12 C4         -2.1450   -1.2080    0.0990 ca        1 DD3      0.765200
     13 C19         2.1990   -1.0580    1.3760 ca        1 DD3     -0.121000
     14 C9         -1.4160    2.5110    0.6800 ca        1 DD3     -0.231000
     15 CL2         4.5360   -0.6920   -2.4330 cl        1 DD3     -0.087400
     16 C18         3.0700   -2.0770    0.9920 ca        1 DD3     -0.125000
     17 O11        -0.1380    0.5940    1.3360 os        1 DD3     -0.360900
     18 C6         -3.4060    0.8330   -0.4070 ca        1 DD3      0.503600
     19 N1         -4.4170    0.0850   -0.9510 nb        1 DD3     -0.807000
     20 N22        -1.0860   -1.8960    0.6350 nh        1 DD3     -0.960500
     21 C2         -4.2360   -1.2710   -0.9750 ca        1 DD3      0.917900
     22 N21        -5.2000   -2.0510   -1.6280 nh        1 DD3     -0.927500
     23 H13A        0.9750    2.7270    2.5290 hc        1 DD3      0.051033
     24 H13B        1.7280    1.1780    3.0920 hc        1 DD3      0.051033
     25 H12         1.0100    1.9300    0.1570 h1        1 DD3      0.068700
     26 H17         4.4900   -2.7730   -0.4920 ha        1 DD3      0.150000
     27 H15         2.6600    1.0830   -1.2530 ha        1 DD3      0.151000
     28 H8         -2.7040    4.1600    0.1200 ha        1 DD3      0.135000
     29 H7         -4.4730    2.6940   -0.8400 ha        1 DD3      0.153000
     30 H19         1.6240   -1.1390    2.3120 ha        1 DD3      0.147000
     31 H9         -0.6540    3.1740    1.1140 ha        1 DD3      0.138000
     32 H18         3.1840   -2.9700    1.6240 ha        1 DD3      0.141000
     33 HN22       -1.0260   -2.8780    0.5140 hn        1 DD3      0.446800
     34 HN2A       -0.2760   -1.4050    0.9290 hn        1 DD3      0.446800
     35 HN21       -5.2060   -3.0200   -1.4120 hn        1 DD3      0.424800
     36 HN2B       -6.0870   -1.6270   -1.7710 hn        1 DD3      0.424800
     37 H13         2.6760    2.3110    2.0320 hc        1 DD3      0.051033
@<TRIPOS>BOND
     1    1    3 1   
     2    1    6 ar  
     3    1   13 ar  
     4    2    3 1   
     5    2   23 1   
     6    2   24 1   
     7    2   37 1   
     8    3   17 1   
     9    3   25 1   
    10    4    5 ar  
    11    4   16 ar  
    12    4   26 1   
    13    5    6 ar  
    14    5   15 1   
    15    6   27 1   
    16    7   12 ar  
    17    7   21 ar  
    18    8   11 ar  
    19    8   14 ar  
    20    8   17 1   
    21    9   10 ar  
    22    9   14 ar  
    23    9   28 1   
    24   10   18 ar  
    25   10   29 1   
    26   11   12 ar  
    27   11   18 ar  
    28   12   20 1   
    29   13   16 ar  
    30   13   30 1   
    31   14   31 1   
    32   16   32 1   
    33   18   19 ar  
    34   19   21 ar  
    35   20   33 1   
    36   20   34 1   
    37   21   22 1   
    38   22   35 1   
    39   22   36 1   
@<TRIPOS>SUBSTRUCTURE
     1 DD3         1 TEMP              0 ****  ****    0 ROOT
