@<TRIPOS>MOLECULE
DD3
   39    41     1     0     0
SMALL
bcc


@<TRIPOS>ATOM
      1 C14        -0.3980   -0.0550   -0.1780 ca        1 DD3     -0.155300
      2 C13        -0.8000    2.0230   -1.5430 c3        1 DD3     -0.112100
      3 C12        -0.8480    0.5110   -1.4910 c3        1 DD3      0.204400
      4 C17         0.5510   -1.0140    2.2790 ca        1 DD3     -0.097000
      5 C16         1.1300   -1.4510    1.0800 ca        1 DD3      0.024400
      6 C15         0.6570   -0.9710   -0.1490 ca        1 DD3     -0.116000
      7 N3         -4.6890   -3.2120   -0.6890 nb        1 DD3     -0.693000
      8 C10        -2.5610   -0.7680   -2.6280 ca        1 DD3      0.149100
      9 C8         -2.5530   -1.4740   -4.9500 ca        1 DD3     -0.033000
     10 C7         -3.3620   -2.5590   -4.6620 ca        1 DD3     -0.144300
     11 C5         -3.3960   -1.8640   -2.2800 ca        1 DD3     -0.257600
     12 C4         -3.9030   -2.1650   -0.9630 ca        1 DD3      0.604200
     13 C19        -0.9860    0.3700    1.0220 ca        1 DD3     -0.182000
     14 C9         -2.1510   -0.5790   -3.9460 ca        1 DD3     -0.100000
     15 CL2         2.4110   -2.5490    1.1110 cl        1 DD3     -0.016400
     16 C18        -0.5070   -0.1050    2.2420 ca        1 DD3     -0.118000
     17 O11        -2.2620    0.1350   -1.6370 os        1 DD3     -0.406900
     18 C6         -3.8050   -2.7780   -3.3290 ca        1 DD3      0.434600
     19 N1         -4.6190   -3.8580   -3.0560 nb        1 DD3     -0.577000
     20 N22        -3.5580   -1.2770    0.1670 n4        1 DD3     -0.840300
     21 C2         -5.0100   -4.0200   -1.7840 ca        1 DD3      0.709900
     22 N21        -5.8890   -5.1860   -1.4810 n4        1 DD3     -0.810300
     23 H13B       -1.4860    2.4750   -0.7880 hc        1 DD3      0.074700
     24 H12        -0.2530    0.0680   -2.3370 h1        1 DD3      0.079700
     25 H17         0.9430   -1.3700    3.2480 ha        1 DD3      0.182000
     26 H15         1.1430   -1.2940   -1.0850 ha        1 DD3      0.163000
     27 H8         -2.2180   -1.3010   -5.9920 ha        1 DD3      0.201000
     28 H7         -3.6710   -3.2560   -5.4640 ha        1 DD3      0.203000
     29 H19        -1.7710    1.1430    1.0020 ha        1 DD3      0.142000
     30 H9         -1.5180    0.2910   -4.2040 ha        1 DD3      0.196000
     31 H18        -0.9380    0.2650    3.1870 ha        1 DD3      0.165000
     32 HN22       -3.9760   -0.3490   -0.0140 hn        1 DD3      0.497133
     33 HN2A       -2.5200   -1.1450    0.1920 hn        1 DD3      0.497133
     34 HN21       -5.4260   -5.7940   -0.7900 hn        1 DD3      0.495467
     35 HN2B       -6.7840   -4.8490   -1.0960 hn        1 DD3      0.495467
     36 H13         0.2440    2.3620   -1.3290 hc        1 DD3      0.074700
     37 H223       -3.8890   -1.6430    1.0690 hn        1 DD3      0.497133
     38 H213       -6.0710   -5.7250   -2.3440 hn        1 DD3      0.495467
     39 H13A       -1.1000    2.3830   -2.5570 hc        1 DD3      0.074700
@<TRIPOS>BOND
     1    1    3 1   
     2    1    6 ar  
     3    1   13 ar  
     4    2    3 1   
     5    2   23 1   
     6    2   36 1   
     7    2   39 1   
     8    3   17 1   
     9    3   24 1   
    10    4    5 ar  
    11    4   16 ar  
    12    4   25 1   
    13    5    6 ar  
    14    5   15 1   
    15    6   26 1   
    16    7   12 ar  
    17    7   21 ar  
    18    8   11 ar  
    19    8   14 ar  
    20    8   17 1   
    21    9   10 ar  
    22    9   14 ar  
    23    9   27 1   
    24   10   18 ar  
    25   10   28 1   
    26   11   12 ar  
    27   11   18 ar  
    28   12   20 1   
    29   13   16 ar  
    30   13   29 1   
    31   14   30 1   
    32   16   31 1   
    33   18   19 ar  
    34   19   21 ar  
    35   20   32 1   
    36   20   33 1   
    37   20   37 1   
    38   21   22 1   
    39   22   34 1   
    40   22   35 1   
    41   22   38 1   
@<TRIPOS>SUBSTRUCTURE
     1 DD3         1 TEMP              0 ****  ****    0 ROOT
