@<TRIPOS>MOLECULE
DD3
   37    39     1     0     0
SMALL
bcc


@<TRIPOS>ATOM
      1 C14        -0.2440    0.0340   -0.0910 ca        1 DD3     -0.096300
      2 C13        -0.7020    1.7840   -1.8040 c3        1 DD3     -0.110100
      3 C12        -0.7680    0.3020   -1.4740 c3        1 DD3      0.189400
      4 C17         0.7640   -0.4240    2.4820 ca        1 DD3     -0.117000
      5 C16         1.4620   -0.8750    1.3570 ca        1 DD3      0.017400
      6 C15         0.9630   -0.6540    0.0700 ca        1 DD3     -0.112000
      7 N3         -4.7850   -3.4200   -0.7360 nb        1 DD3     -0.851000
      8 C10        -2.5350   -0.9390   -2.5230 ca        1 DD3      0.176100
      9 C8         -2.6240   -1.4460   -4.8850 ca        1 DD3     -0.071000
     10 C7         -3.5120   -2.4640   -4.6590 ca        1 DD3     -0.221300
     11 C5         -3.4180   -2.0140   -2.2280 ca        1 DD3     -0.352600
     12 C4         -3.8520   -2.4490   -0.8980 ca        1 DD3      0.767200
     13 C19        -0.9470    0.4830    1.0320 ca        1 DD3     -0.120000
     14 C9         -2.1370   -0.6630   -3.8220 ca        1 DD3     -0.234000
     15 CL2         2.9320   -1.7040    1.5540 cl        1 DD3     -0.088400
     16 C18        -0.4430    0.2530    2.3110 ca        1 DD3     -0.124000
     17 O11        -2.1590   -0.0970   -1.4880 os        1 DD3     -0.361900
     18 C6         -3.9540   -2.7660   -3.3270 ca        1 DD3      0.505600
     19 N1         -4.8720   -3.7690   -3.1670 nb        1 DD3     -0.807000
     20 N22        -3.2930   -1.9330    0.2420 nh        1 DD3     -0.963500
     21 C2         -5.2890   -4.0240   -1.8890 ca        1 DD3      0.917900
     22 N21        -6.3400   -4.9330   -1.7090 nh        1 DD3     -0.926500
     23 H13A        0.3550    2.1350   -1.7390 hc        1 DD3      0.051700
     24 H13B       -1.0890    1.9660   -2.8350 hc        1 DD3      0.051700
     25 H12        -0.1830   -0.2930   -2.2300 h1        1 DD3      0.068700
     26 H17         1.1620   -0.6030    3.4930 ha        1 DD3      0.150000
     27 H15         1.5160   -1.0180   -0.8090 ha        1 DD3      0.150000
     28 H8         -2.2890   -1.2170   -5.9090 ha        1 DD3      0.135000
     29 H7         -3.9070   -3.0640   -5.4950 ha        1 DD3      0.153000
     30 H19        -1.8980    1.0210    0.8940 ha        1 DD3      0.147000
     31 H9         -1.4580    0.1750   -4.0330 ha        1 DD3      0.138000
     32 H18        -0.9960    0.6110    3.1920 ha        1 DD3      0.141000
     33 HN22       -3.6430   -2.2000    1.1300 hn        1 DD3      0.448300
     34 HN2A       -2.6710   -1.1620    0.1870 hn        1 DD3      0.448300
     35 HN21       -6.5220   -5.5500   -2.4660 hn        1 DD3      0.423800
     36 HN2B       -6.4460   -5.3140   -0.7980 hn        1 DD3      0.423800
     37 H13        -1.3260    2.3680   -1.0850 hc        1 DD3      0.051700
@<TRIPOS>BOND
     1    1    3 1   
     2    1    6 ar  
     3    1   13 ar  
     4    2    3 1   
     5    2   23 1   
     6    2   24 1   
     7    2   37 1   
     8    3   17 1   
     9    3   25 1   
    10    4    5 ar  
    11    4   16 ar  
    12    4   26 1   
    13    5    6 ar  
    14    5   15 1   
    15    6   27 1   
    16    7   12 ar  
    17    7   21 ar  
    18    8   11 ar  
    19    8   14 ar  
    20    8   17 1   
    21    9   10 ar  
    22    9   14 ar  
    23    9   28 1   
    24   10   18 ar  
    25   10   29 1   
    26   11   12 ar  
    27   11   18 ar  
    28   12   20 1   
    29   13   16 ar  
    30   13   30 1   
    31   14   31 1   
    32   16   32 1   
    33   18   19 ar  
    34   19   21 ar  
    35   20   33 1   
    36   20   34 1   
    37   21   22 1   
    38   22   35 1   
    39   22   36 1   
@<TRIPOS>SUBSTRUCTURE
     1 DD3         1 TEMP              0 ****  ****    0 ROOT
