@<TRIPOS>MOLECULE
DD3
   37    39     1     0     0
SMALL
bcc


@<TRIPOS>ATOM
      1 C14        -0.2440    0.0140   -0.1350 ca        1 DD3     -0.097300
      2 C13        -0.7270    1.8490   -1.7500 c3        1 DD3     -0.109100
      3 C12        -0.8100    0.3560   -1.4840 c3        1 DD3      0.188400
      4 C17         0.8410   -0.5850    2.3780 ca        1 DD3     -0.118000
      5 C16         1.4820   -1.0090    1.2100 ca        1 DD3      0.017400
      6 C15         0.9450   -0.7170   -0.0480 ca        1 DD3     -0.113000
      7 N3         -4.6710   -3.4790   -0.6920 nb        1 DD3     -0.851000
      8 C10        -2.6210   -0.8420   -2.5030 ca        1 DD3      0.174100
      9 C8         -2.7830   -1.2970   -4.8720 ca        1 DD3     -0.072000
     10 C7         -3.6020   -2.3690   -4.6350 ca        1 DD3     -0.220300
     11 C5         -3.4560   -1.9520   -2.1990 ca        1 DD3     -0.350600
     12 C4         -3.8720   -2.3970   -0.8660 ca        1 DD3      0.765200
     13 C19        -0.8900    0.4370    1.0320 ca        1 DD3     -0.121000
     14 C9         -2.2860   -0.5200   -3.8090 ca        1 DD3     -0.231000
     15 Cl2         2.9310   -1.8920    1.3170 cl        1 DD3     -0.087400
     16 C18        -0.3470    0.1370    2.2800 ca        1 DD3     -0.125000
     17 O11        -2.2090   -0.0140   -1.4680 os        1 DD3     -0.360900
     18 C6         -3.9640   -2.7290   -3.2930 ca        1 DD3      0.503600
     19 N1         -4.7850   -3.8130   -3.1230 nb        1 DD3     -0.807000
     20 N22        -3.4980   -1.7210    0.2690 nv        1 DD3     -0.960500
     21 C2         -5.0880   -4.1600   -1.8360 ca        1 DD3      0.917900
     22 N21        -5.8300   -5.3310   -1.6290 nv        1 DD3     -0.927500
     23 H13A       -1.3200    2.4110   -0.9890 hc        1 DD3      0.051033
     24 H13B       -1.1390    2.0820   -2.7610 hc        1 DD3      0.051033
     25 H12        -0.2640   -0.2140   -2.2870 h1        1 DD3      0.068700
     26 H17         1.2700   -0.8190    3.3640 ha        1 DD3      0.150000
     27 H15         1.4540   -1.0610   -0.9610 ha        1 DD3      0.151000
     28 H8         -2.5070   -1.0240   -5.9030 ha        1 DD3      0.135000
     29 H7         -3.9930   -2.9740   -5.4670 ha        1 DD3      0.153000
     30 H19        -1.8260    1.0110    0.9520 ha        1 DD3      0.147000
     31 H9         -1.6450    0.3470   -4.0220 ha        1 DD3      0.138000
     32 H18        -0.8570    0.4740    3.1960 ha        1 DD3      0.141000
     33 HN22       -2.8110   -1.0080    0.2140 hn        1 DD3      0.446800
     34 HN2A       -3.7280   -2.0910    1.1590 hn        1 DD3      0.446800
     35 HN21       -6.2680   -5.4280   -0.7430 hn        1 DD3      0.424800
     36 HN2B       -6.3390   -5.6730   -2.4100 hn        1 DD3      0.424800
     37 H13         0.3370    2.1800   -1.7010 hc        1 DD3      0.051033
@<TRIPOS>BOND
     1    1    3 1   
     2    1    6 ar  
     3    1   13 ar  
     4    2    3 1   
     5    2   23 1   
     6    2   24 1   
     7    2   37 1   
     8    3   17 1   
     9    3   25 1   
    10    4    5 ar  
    11    4   16 ar  
    12    4   26 1   
    13    5    6 ar  
    14    5   15 1   
    15    6   27 1   
    16    7   12 ar  
    17    7   21 ar  
    18    8   11 ar  
    19    8   14 ar  
    20    8   17 1   
    21    9   10 ar  
    22    9   14 ar  
    23    9   28 1   
    24   10   18 ar  
    25   10   29 1   
    26   11   12 ar  
    27   11   18 ar  
    28   12   20 1   
    29   13   16 ar  
    30   13   30 1   
    31   14   31 1   
    32   16   32 1   
    33   18   19 ar  
    34   19   21 ar  
    35   20   33 1   
    36   20   34 1   
    37   21   22 1   
    38   22   35 1   
    39   22   36 1   
@<TRIPOS>SUBSTRUCTURE
     1 DD3         1 TEMP              0 ****  ****    0 ROOT
