@<TRIPOS>MOLECULE
DD9
   29    28     1     0     0
SMALL
bcc


@<TRIPOS>ATOM
      1 C1          4.9970    0.3700    0.0000 c3        1 DD9     -0.092100
      2 C2          3.7500   -0.4760    0.0000 c3        1 DD9     -0.080400
      3 C3          2.4990    0.3770    0.0000 c3        1 DD9     -0.079400
      4 C4          1.2500   -0.4770   -0.0000 c3        1 DD9     -0.079400
      5 C5         -0.0000    0.3770   -0.0000 c3        1 DD9     -0.078400
      6 C6         -1.2500   -0.4770   -0.0000 c3        1 DD9     -0.079400
      7 C7         -2.4990    0.3770   -0.0000 c3        1 DD9     -0.079400
      8 C8         -3.7500   -0.4760   -0.0000 c3        1 DD9     -0.080400
      9 C9         -4.9970    0.3700   -0.0000 c3        1 DD9     -0.092100
     10 H1          5.0300    1.0240   -0.9050 hc        1 DD9      0.032700
     11 H1A         5.0300    1.0240    0.9050 hc        1 DD9      0.032700
     12 H1B         5.9060   -0.2790   -0.0000 hc        1 DD9      0.032700
     13 H2          3.7470   -1.1430   -0.9020 hc        1 DD9      0.038700
     14 H2A         3.7470   -1.1430    0.9020 hc        1 DD9      0.038700
     15 H3          2.5000    1.0430    0.9020 hc        1 DD9      0.039700
     16 H3A         2.5000    1.0430   -0.9020 hc        1 DD9      0.039700
     17 H4          1.2500   -1.1440   -0.9030 hc        1 DD9      0.039700
     18 H4A         1.2500   -1.1440    0.9030 hc        1 DD9      0.039700
     19 H5          0.0000    1.0430    0.9030 hc        1 DD9      0.039700
     20 H5A         0.0000    1.0430   -0.9030 hc        1 DD9      0.039700
     21 H6         -1.2500   -1.1440   -0.9030 hc        1 DD9      0.039700
     22 H6A        -1.2500   -1.1440    0.9030 hc        1 DD9      0.039700
     23 H7         -2.5000    1.0430    0.9020 hc        1 DD9      0.039700
     24 H7A        -2.5000    1.0430   -0.9020 hc        1 DD9      0.039700
     25 H8         -3.7470   -1.1430   -0.9020 hc        1 DD9      0.038700
     26 H8A        -3.7470   -1.1430    0.9020 hc        1 DD9      0.038700
     27 H9         -5.0300    1.0240    0.9050 hc        1 DD9      0.032700
     28 H9A        -5.0300    1.0240   -0.9050 hc        1 DD9      0.032700
     29 H9B        -5.9060   -0.2790    0.0000 hc        1 DD9      0.032700
@<TRIPOS>BOND
     1    1    2 1   
     2    1   10 1   
     3    1   11 1   
     4    1   12 1   
     5    2    3 1   
     6    2   13 1   
     7    2   14 1   
     8    3    4 1   
     9    3   15 1   
    10    3   16 1   
    11    4    5 1   
    12    4   17 1   
    13    4   18 1   
    14    5    6 1   
    15    5   19 1   
    16    5   20 1   
    17    6    7 1   
    18    6   21 1   
    19    6   22 1   
    20    7    8 1   
    21    7   23 1   
    22    7   24 1   
    23    8    9 1   
    24    8   25 1   
    25    8   26 1   
    26    9   27 1   
    27    9   28 1   
    28    9   29 1   
@<TRIPOS>SUBSTRUCTURE
     1 DD9         1 TEMP              0 ****  ****    0 ROOT
