@<TRIPOS>MOLECULE
DD9
   29    28     1     0     0
SMALL
bcc


@<TRIPOS>ATOM
      1 C1         -4.2430    0.0000   -2.5580 c3        1 DD9     -0.092100
      2 C2         -2.7300    0.0000   -2.5580 c3        1 DD9     -0.080400
      3 C3         -2.2260    0.0000   -1.1310 c3        1 DD9     -0.079400
      4 C4         -0.7130    0.0000   -1.1310 c3        1 DD9     -0.079400
      5 C5         -0.2090    0.0000    0.2950 c3        1 DD9     -0.078400
      6 C6          1.3040   -0.0000    0.2950 c3        1 DD9     -0.079400
      7 C7          1.8080   -0.0000    1.7210 c3        1 DD9     -0.079400
      8 C8          3.3210   -0.0010    1.7210 c3        1 DD9     -0.080400
      9 C9          3.8260   -0.0010    3.1480 c3        1 DD9     -0.092100
     10 H1         -4.5680   -0.7970   -2.0980 hc        1 DD9      0.032700
     11 H1A        -4.5680    0.7970   -2.0970 hc        1 DD9      0.032700
     12 H1B        -4.5680    0.0010   -3.4780 hc        1 DD9      0.032700
     13 H2         -2.4050    0.7970   -3.0180 hc        1 DD9      0.038700
     14 H2A        -2.4050   -0.7970   -3.0180 hc        1 DD9      0.038700
     15 H3         -2.5510   -0.7970   -0.6710 hc        1 DD9      0.039700
     16 H3A        -2.5510    0.7980   -0.6710 hc        1 DD9      0.039700
     17 H4         -0.3870    0.7970   -1.5920 hc        1 DD9      0.039700
     18 H4A        -0.3880   -0.7970   -1.5910 hc        1 DD9      0.039700
     19 H5         -0.5340    0.7970    0.7550 hc        1 DD9      0.039700
     20 H5A        -0.5340   -0.7970    0.7550 hc        1 DD9      0.039700
     21 H6          1.6290   -0.7970   -0.1650 hc        1 DD9      0.039700
     22 H6A         1.6300    0.7970   -0.1650 hc        1 DD9      0.039700
     23 H7          1.4830   -0.7970    2.1820 hc        1 DD9      0.039700
     24 H7A         1.4830    0.7970    2.1810 hc        1 DD9      0.039700
     25 H8          3.6470   -0.7980    1.2610 hc        1 DD9      0.038700
     26 H8A         3.6470    0.7960    1.2610 hc        1 DD9      0.038700
     27 H9          3.5000   -0.7980    3.6080 hc        1 DD9      0.032700
     28 H9A         3.5010    0.7960    3.6080 hc        1 DD9      0.032700
     29 H9B         4.8020   -0.0010    3.1480 hc        1 DD9      0.032700
@<TRIPOS>BOND
     1    1    2 1   
     2    1   10 1   
     3    1   11 1   
     4    1   12 1   
     5    2    3 1   
     6    2   13 1   
     7    2   14 1   
     8    3    4 1   
     9    3   15 1   
    10    3   16 1   
    11    4    5 1   
    12    4   17 1   
    13    4   18 1   
    14    5    6 1   
    15    5   19 1   
    16    5   20 1   
    17    6    7 1   
    18    6   21 1   
    19    6   22 1   
    20    7    8 1   
    21    7   23 1   
    22    7   24 1   
    23    8    9 1   
    24    8   25 1   
    25    8   26 1   
    26    9   27 1   
    27    9   28 1   
    28    9   29 1   
@<TRIPOS>SUBSTRUCTURE
     1 DD9         1 TEMP              0 ****  ****    0 ROOT
