@<TRIPOS>MOLECULE
DDA
   22    22     1     0     0
SMALL
bcc


@<TRIPOS>ATOM
      1 C1         -1.6380   -0.1410    0.5310 c3        1 DDA      0.345900
      2 C2         -0.8920   -1.3470   -0.0400 c3        1 DDA     -0.173400
      3 C3          0.5930   -1.2230    0.2620 c3        1 DDA      0.103100
      4 C4          1.1260    0.1390   -0.2230 c3        1 DDA      0.117100
      5 C5          0.2750    1.2790    0.3660 c3        1 DDA      0.158100
      6 C6          0.6700    2.6180   -0.2240 c3        1 DDA     -0.090100
      7 O5         -1.1020    1.0820    0.0380 os        1 DDA     -0.454600
      8 O1         -2.9700   -0.0820    0.1020 oh        1 DDA     -0.588800
      9 O3          1.3540   -2.2020   -0.4310 oh        1 DDA     -0.605800
     10 O4          2.4530    0.3360    0.2330 oh        1 DDA     -0.596800
     11 H1         -1.6610   -0.1540    1.6570 h2        1 DDA      0.073700
     12 H21        -1.3070   -2.2830    0.4110 hc        1 DDA      0.066700
     13 H22        -1.0490   -1.3990   -1.1480 hc        1 DDA      0.066700
     14 H3          0.7790   -1.3250    1.3680 h1        1 DDA      0.049700
     15 H4          1.0980    0.1710   -1.3470 h1        1 DDA      0.061700
     16 H5          0.3920    1.2870    1.4850 h1        1 DDA      0.053700
     17 H61         0.4600    2.6400   -1.3190 hc        1 DDA      0.053033
     18 H62         0.0910    3.4360    0.2660 hc        1 DDA      0.053033
     19 H63         1.7630    2.7750   -0.0530 hc        1 DDA      0.053033
     20 HO1        -2.9760    0.2450   -0.8090 ho        1 DDA      0.423000
     21 HO3         0.9980   -3.0630   -0.1840 ho        1 DDA      0.410000
     22 HO4         2.9660   -0.4150   -0.0950 ho        1 DDA      0.422000
@<TRIPOS>BOND
     1    1    2 1   
     2    1    7 1   
     3    1    8 1   
     4    1   11 1   
     5    2    3 1   
     6    2   12 1   
     7    2   13 1   
     8    3    4 1   
     9    3    9 1   
    10    3   14 1   
    11    4    5 1   
    12    4   10 1   
    13    4   15 1   
    14    5    6 1   
    15    5    7 1   
    16    5   16 1   
    17    6   17 1   
    18    6   18 1   
    19    6   19 1   
    20    8   20 1   
    21    9   21 1   
    22   10   22 1   
@<TRIPOS>SUBSTRUCTURE
     1 DDA         1 TEMP              0 ****  ****    0 ROOT
