@<TRIPOS>MOLECULE
DDA
   22    22     1     0     0
SMALL
bcc


@<TRIPOS>ATOM
      1 C1         -0.8680   -0.7140   -1.4480 c3        1 DDA      0.345900
      2 C2          0.6410   -0.7140   -1.4480 c3        1 DDA     -0.173400
      3 C3          1.2040   -0.7140   -0.0810 c3        1 DDA      0.103100
      4 C4          0.6260    0.3750    0.7690 c3        1 DDA      0.117100
      5 C5         -0.8900    0.3720    0.7590 c3        1 DDA      0.158100
      6 C6         -1.3850    1.5960    1.4810 c3        1 DDA     -0.090100
      7 O5         -1.4390    0.3680   -0.5930 os        1 DDA     -0.454600
      8 O1         -1.3150   -0.5420   -2.7430 oh        1 DDA     -0.588800
      9 O3          2.6440   -0.5310   -0.1650 oh        1 DDA     -0.605800
     10 O4          1.0800    0.2000    2.1180 oh        1 DDA     -0.596800
     11 H1         -1.1830   -1.5760   -1.1170 h2        1 DDA      0.073700
     12 H21         0.9570   -1.5080   -1.9190 hc        1 DDA      0.066700
     13 H22         0.9570    0.0810   -1.9190 hc        1 DDA      0.066700
     14 H3          1.0170   -1.5750    0.3380 h1        1 DDA      0.049700
     15 H4          0.9430    1.2370    0.4380 h1        1 DDA      0.061700
     16 H5         -1.2070   -0.4220    1.2300 h1        1 DDA      0.053700
     17 H61        -1.1050    1.5580    2.4160 hc        1 DDA      0.053033
     18 H62        -2.3600    1.6300    1.4350 hc        1 DDA      0.053033
     19 H63        -1.0120    2.3950    1.0620 hc        1 DDA      0.053033
     20 HO1        -2.0640   -1.0030   -2.8610 ho        1 DDA      0.423000
     21 HO3         3.0490   -1.3130   -0.0510 ho        1 DDA      0.410000
     22 HO4         1.7090    0.8000    2.2990 ho        1 DDA      0.422000
@<TRIPOS>BOND
     1    1    2 1   
     2    1    7 1   
     3    1    8 1   
     4    1   11 1   
     5    2    3 1   
     6    2   12 1   
     7    2   13 1   
     8    3    4 1   
     9    3    9 1   
    10    3   14 1   
    11    4    5 1   
    12    4   10 1   
    13    4   15 1   
    14    5    6 1   
    15    5    7 1   
    16    5   16 1   
    17    6   17 1   
    18    6   18 1   
    19    6   19 1   
    20    8   20 1   
    21    9   21 1   
    22   10   22 1   
@<TRIPOS>SUBSTRUCTURE
     1 DDA         1 TEMP              0 ****  ****    0 ROOT
