@<TRIPOS>MOLECULE
DDB
   25    25     1     0     0
SMALL
bcc


@<TRIPOS>ATOM
      1 O5         -0.6640    0.7680   -1.6090 os        1 DDB     -0.456600
      2 O1          1.2560    1.8980   -2.2820 oh        1 DDB     -0.589800
      3 C1          0.8070    0.7680   -1.6090 c3        1 DDB      0.345900
      4 C2          1.3860    0.7680   -0.2120 c3        1 DDB     -0.163400
      5 C3          0.8200   -0.3050    0.6310 c3        1 DDB      0.158800
      6 O3          1.2740   -1.5490    0.1540 oh        1 DDB     -0.589800
      7 C3M         1.3230   -0.1100    2.1050 c3        1 DDB     -0.122100
      8 C4         -0.6640   -0.2980    0.6260 c3        1 DDB      0.121100
      9 O4         -1.1370   -1.4700    1.3160 oh        1 DDB     -0.580800
     10 C5         -1.2340   -0.2930   -0.7760 c3        1 DDB      0.121100
     11 C6         -2.7170   -0.1010   -0.6960 c3        1 DDB     -0.102100
     12 HO1         1.3670    1.7060   -3.1420 ho        1 DDB      0.418000
     13 H1          1.1220   -0.0270   -2.0810 h2        1 DDB      0.087700
     14 H21         2.3530    0.6460   -0.2710 hc        1 DDB      0.062700
     15 H22         1.2010    1.6300    0.2070 hc        1 DDB      0.062700
     16 HO3         2.0370   -1.7590    0.5550 ho        1 DDB      0.405000
     17 H3M1        0.9030    0.6830    2.4890 hc        1 DDB      0.051367
     18 H3M2        1.0860   -0.8930    2.6360 hc        1 DDB      0.051367
     19 H3M3        2.2930    0.0030    2.1060 hc        1 DDB      0.051367
     20 H4         -0.9790    0.4960    1.0980 h1        1 DDB      0.044700
     21 HO4        -1.6660   -1.2260    1.9860 ho        1 DDB      0.403000
     22 H5         -1.0490   -1.1550   -1.1950 h1        1 DDB      0.072700
     23 H61        -3.0790    0.0160   -1.5950 hc        1 DDB      0.049033
     24 H62        -2.9140    0.6910   -0.1600 hc        1 DDB      0.049033
     25 H63        -3.1250   -0.8850   -0.2810 hc        1 DDB      0.049033
@<TRIPOS>BOND
     1    1    3 1   
     2    1   10 1   
     3    2    3 1   
     4    2   12 1   
     5    3    4 1   
     6    3   13 1   
     7    4    5 1   
     8    4   14 1   
     9    4   15 1   
    10    5    6 1   
    11    5    7 1   
    12    5    8 1   
    13    6   16 1   
    14    7   17 1   
    15    7   18 1   
    16    7   19 1   
    17    8    9 1   
    18    8   10 1   
    19    8   20 1   
    20    9   21 1   
    21   10   11 1   
    22   10   22 1   
    23   11   23 1   
    24   11   24 1   
    25   11   25 1   
@<TRIPOS>SUBSTRUCTURE
     1 DDB         1 TEMP              0 ****  ****    0 ROOT
