@<TRIPOS>MOLECULE
DDB
   25    25     1     0     0
SMALL
bcc


@<TRIPOS>ATOM
      1 O5          1.0550   -0.0650    1.3080 os        1 DDB     -0.456600
      2 O1         -0.3240   -0.0270    3.0240 oh        1 DDB     -0.589800
      3 C1         -0.2790   -0.4090    1.6770 c3        1 DDB      0.345900
      4 C2         -1.3040    0.3310    0.8170 c3        1 DDB     -0.163400
      5 C3         -1.0540    0.0430   -0.6660 c3        1 DDB      0.158800
      6 O3         -1.1980   -1.3540   -0.9050 oh        1 DDB     -0.589800
      7 C3M        -1.9970    0.8570   -1.5380 c3        1 DDB     -0.122100
      8 C4          0.4180    0.3980   -0.9880 c3        1 DDB      0.121100
      9 O4          0.6400    0.0830   -2.3500 oh        1 DDB     -0.580800
     10 C5          1.3620   -0.3800   -0.0520 c3        1 DDB      0.121100
     11 C6          2.8150    0.0020   -0.2550 c3        1 DDB     -0.102100
     12 HO1         0.0860    0.8460    3.1010 ho        1 DDB      0.418000
     13 H1         -0.4350   -1.5230    1.6430 h2        1 DDB      0.087700
     14 H21        -2.3290   -0.0100    1.1040 hc        1 DDB      0.062700
     15 H22        -1.2330    1.4320    1.0020 hc        1 DDB      0.062700
     16 HO3        -2.1350   -1.5220   -1.0570 ho        1 DDB      0.405000
     17 H3M1       -3.0580    0.6100   -1.2970 hc        1 DDB      0.051367
     18 H3M2       -1.8330    1.9470   -1.3680 hc        1 DDB      0.051367
     19 H3M3       -1.8000    0.6240   -2.6130 hc        1 DDB      0.051367
     20 H4          0.5580    1.5050   -0.8300 h1        1 DDB      0.044700
     21 HO4         1.5880    0.1790   -2.5070 ho        1 DDB      0.403000
     22 H5          1.2100   -1.4840   -0.2200 h1        1 DDB      0.072700
     23 H61         3.4290   -0.3870    0.5930 hc        1 DDB      0.049033
     24 H62         3.1910   -0.4420   -1.2070 hc        1 DDB      0.049033
     25 H63         2.9300    1.1110   -0.2930 hc        1 DDB      0.049033
@<TRIPOS>BOND
     1    1    3 1   
     2    1   10 1   
     3    2    3 1   
     4    2   12 1   
     5    3    4 1   
     6    3   13 1   
     7    4    5 1   
     8    4   14 1   
     9    4   15 1   
    10    5    6 1   
    11    5    7 1   
    12    5    8 1   
    13    6   16 1   
    14    7   17 1   
    15    7   18 1   
    16    7   19 1   
    17    8    9 1   
    18    8   10 1   
    19    8   20 1   
    20    9   21 1   
    21   10   11 1   
    22   10   22 1   
    23   11   23 1   
    24   11   24 1   
    25   11   25 1   
@<TRIPOS>SUBSTRUCTURE
     1 DDB         1 TEMP              0 ****  ****    0 ROOT
