@<TRIPOS>MOLECULE
DDC
   30    32     1     0     0
SMALL
bcc


@<TRIPOS>ATOM
      1 C1          1.2180   -0.2090    3.5590 ca        1 DDC      0.185100
      2 C2         -0.0860   -0.0270    4.0630 ca        1 DDC     -0.204000
      3 C3         -1.1370    0.1170    3.1710 ca        1 DDC     -0.009000
      4 C4         -0.9210    0.0860    1.7840 ca        1 DDC     -0.282600
      5 C5          0.3870   -0.1160    1.3040 ca        1 DDC      0.208100
      6 C6          1.4700   -0.2620    2.1840 ca        1 DDC     -0.264000
      7 C7         -2.0310    0.2910    0.8480 c         1 DDC      0.591700
      8 C8         -1.6250    0.4080   -0.5960 c3        1 DDC     -0.210400
      9 C9         -0.4140   -0.4620   -0.9050 c3        1 DDC      0.198400
     10 O1          0.7000   -0.1490   -0.0360 os        1 DDC     -0.321900
     11 O2          2.2170   -0.3400    4.4900 oh        1 DDC     -0.489100
     12 C10         0.0620   -0.2510   -2.3100 ca        1 DDC     -0.098300
     13 C11         0.9020    0.8190   -2.6330 ca        1 DDC     -0.108000
     14 C12         1.3190    1.0050   -3.9500 ca        1 DDC     -0.131500
     15 C13         0.8970    0.1280   -4.9490 ca        1 DDC     -0.120000
     16 C14         0.0610   -0.9430   -4.6280 ca        1 DDC     -0.131500
     17 C15        -0.3530   -1.1370   -3.3110 ca        1 DDC     -0.108000
     18 O3         -3.2110    0.3990    1.2010 o         1 DDC     -0.534100
     19 H2         -0.2460   -0.0000    5.1490 ha        1 DDC      0.158000
     20 H3         -2.1660    0.2650    3.5400 ha        1 DDC      0.160000
     21 H6          2.4820   -0.4120    1.7870 ha        1 DDC      0.156000
     22 H81        -2.4750    0.1120   -1.2630 hc        1 DDC      0.090200
     23 H82        -1.3840    1.4860   -0.8020 hc        1 DDC      0.090200
     24 H9         -0.6710   -1.5470   -0.7350 h1        1 DDC      0.064700
     25 HO2         3.0570   -0.4580    4.0210 ho        1 DDC      0.426000
     26 H11         1.2390    1.5030   -1.8390 ha        1 DDC      0.139500
     27 H12         1.9820    1.8470   -4.2000 ha        1 DDC      0.135000
     28 H13         1.2250    0.2770   -5.9880 ha        1 DDC      0.134000
     29 H14        -0.2700   -1.6370   -5.4140 ha        1 DDC      0.135000
     30 H15        -1.0060   -1.9860   -3.0610 ha        1 DDC      0.139500
@<TRIPOS>BOND
     1    1    2 ar  
     2    1    6 ar  
     3    1   11 1   
     4    2    3 ar  
     5    2   19 1   
     6    3    4 ar  
     7    3   20 1   
     8    4    5 ar  
     9    4    7 1   
    10    5    6 ar  
    11    5   10 1   
    12    6   21 1   
    13    7    8 1   
    14    7   18 2   
    15    8    9 1   
    16    8   22 1   
    17    8   23 1   
    18    9   10 1   
    19    9   12 1   
    20    9   24 1   
    21   11   25 1   
    22   12   13 ar  
    23   12   17 ar  
    24   13   14 ar  
    25   13   26 1   
    26   14   15 ar  
    27   14   27 1   
    28   15   16 ar  
    29   15   28 1   
    30   16   17 ar  
    31   16   29 1   
    32   17   30 1   
@<TRIPOS>SUBSTRUCTURE
     1 DDC         1 TEMP              0 ****  ****    0 ROOT
