@<TRIPOS>MOLECULE
DDC
   30    32     1     0     0
SMALL
bcc


@<TRIPOS>ATOM
      1 C1          0.0380    0.1630   -0.0190 ca        1 DDC      0.185100
      2 C2          1.4460    0.2330   -0.0250 ca        1 DDC     -0.204000
      3 C3          2.1280    0.1490    1.1790 ca        1 DDC     -0.009000
      4 C4          1.4410    0.0010    2.3940 ca        1 DDC     -0.282600
      5 C5          0.0360   -0.0850    2.3740 ca        1 DDC      0.208100
      6 C6         -0.6800   -0.0020    1.1700 ca        1 DDC     -0.264000
      7 C7          2.1670   -0.0340    3.6670 c         1 DDC      0.591700
      8 C8          1.2940   -0.0190    4.8920 c3        1 DDC     -0.210400
      9 C9         -0.0150   -0.7580    4.6510 c3        1 DDC      0.198400
     10 O1         -0.7270   -0.2190    3.5120 os        1 DDC     -0.321900
     11 O2         -0.5800    0.2570   -1.2400 oh        1 DDC     -0.489100
     12 C10        -0.9320   -0.6380    5.8290 ca        1 DDC     -0.098300
     13 C11        -1.7430    0.4880    5.9990 ca        1 DDC     -0.108000
     14 C12        -2.5770    0.5860    7.1130 ca        1 DDC     -0.131500
     15 C13        -2.6010   -0.4370    8.0600 ca        1 DDC     -0.120000
     16 C14        -1.7950   -1.5630    7.8910 ca        1 DDC     -0.131500
     17 C15        -0.9650   -1.6680    6.7770 ca        1 DDC     -0.108000
     18 O3          3.4010   -0.0380    3.7500 o         1 DDC     -0.534100
     19 H2          1.9770    0.3530   -0.9790 ha        1 DDC      0.158000
     20 H3          3.2300    0.2050    1.2020 ha        1 DDC      0.160000
     21 H6         -1.7760   -0.0650    1.1790 ha        1 DDC      0.156000
     22 H81         1.8320   -0.4870    5.7570 hc        1 DDC      0.090200
     23 H82         1.0850    1.0530    5.1560 hc        1 DDC      0.090200
     24 H9          0.1960   -1.8440    4.4250 h1        1 DDC      0.064700
     25 HO2        -1.5370    0.1960   -1.1010 ho        1 DDC      0.426000
     26 H11        -1.7250    1.2880    5.2430 ha        1 DDC      0.139500
     27 H12        -3.2150    1.4720    7.2420 ha        1 DDC      0.135000
     28 H13        -3.2570   -0.3580    8.9400 ha        1 DDC      0.134000
     29 H14        -1.8160   -2.3720    8.6360 ha        1 DDC      0.135000
     30 H15        -0.3360   -2.5610    6.6430 ha        1 DDC      0.139500
@<TRIPOS>BOND
     1    1    2 ar  
     2    1    6 ar  
     3    1   11 1   
     4    2    3 ar  
     5    2   19 1   
     6    3    4 ar  
     7    3   20 1   
     8    4    5 ar  
     9    4    7 1   
    10    5    6 ar  
    11    5   10 1   
    12    6   21 1   
    13    7    8 1   
    14    7   18 2   
    15    8    9 1   
    16    8   22 1   
    17    8   23 1   
    18    9   10 1   
    19    9   12 1   
    20    9   24 1   
    21   11   25 1   
    22   12   13 ar  
    23   12   17 ar  
    24   13   14 ar  
    25   13   26 1   
    26   14   15 ar  
    27   14   27 1   
    28   15   16 ar  
    29   15   28 1   
    30   16   17 ar  
    31   16   29 1   
    32   17   30 1   
@<TRIPOS>SUBSTRUCTURE
     1 DDC         1 TEMP              0 ****  ****    0 ROOT
