@<TRIPOS>MOLECULE
DDC
   30    27     1     0     0
SMALL
bcc


@<TRIPOS>ATOM
      1 C1         -0.1860   -0.6920   -3.6110 c1        1 DDC      0.139000
      2 C2          1.1440   -0.1760   -3.5070 c1        1 DDC     -0.115250
      3 C3          1.7640   -0.0710   -2.2450 c1        1 DDC     -0.115250
      4 C4          1.0860   -0.4680   -1.1030 c1        1 DDC     -0.255000
      5 C5         -0.2720   -0.9950   -1.2090 c1        1 DDC      0.161000
      6 C6         -0.8800   -1.0970   -2.4540 c1        1 DDC     -0.269000
      7 C7          1.8330   -0.6470    0.2510 c2        1 DDC      0.289000
      8 C8          1.2170   -1.4410    1.2360 c3        1 DDC     -0.236000
      9 C9         -0.2760   -1.3060    1.2390 c3        1 DDC      0.081000
     10 O1         -0.9300   -1.5070    0.0420 os        1 DDC     -0.202000
     11 O2         -0.7800   -0.8570   -4.8820 oh        1 DDC     -0.243000
     12 C10        -0.6310    0.1620    1.7460 c2        1 DDC     -0.111000
     13 C11        -1.1650    0.3490    3.0130 c2        1 DDC     -0.122000
     14 C12        -1.4680    1.6270    3.4560 c1        1 DDC     -0.126000
     15 C13        -1.2370    2.7190    2.6320 c1        1 DDC     -0.115250
     16 C14        -0.7030    2.5320    1.3670 c1        1 DDC     -0.115250
     17 C15        -0.4000    1.2530    0.9240 c1        1 DDC     -0.107000
     18 O3          3.0200   -0.3960    0.3280 o         1 DDC     -0.294000
     19 H2          1.6230    0.1040   -4.3110 ha        1 DDC      0.146750
     20 H3          2.6720    0.2810   -2.1750 ha        1 DDC      0.146750
     21 H6         -1.7880   -1.4490   -2.5260 ha        1 DDC      0.155000
     22 H81         1.4200   -2.3950    1.1540 hc        1 DDC      0.126000
     23 H82         1.6180   -1.2390    2.1080 hc        1 DDC      0.126000
     24 H9         -0.6340   -1.9450    1.8870 h1        1 DDC      0.129000
     25 HO2        -0.8610   -1.7260   -5.0620 ho        1 DDC      0.225000
     26 H11        -1.3270   -0.4190    3.5920 ha        1 DDC      0.130000
     27 H12        -1.8440    1.7590    4.3480 ha        1 DDC      0.134000
     28 H13        -1.4500    3.6200    2.9440 ha        1 DDC      0.146750
     29 H14        -0.5410    3.3010    0.7880 ha        1 DDC      0.146750
     30 H15        -0.0240    1.1220    0.0320 ha        1 DDC      0.142000
@<TRIPOS>BOND
     1    1    6 1   
     2    1   11 1   
     3    2    3 1   
     4    2   19 1   
     5    3   20 1   
     6    4    5 1   
     7    4    7 1   
     8    5   10 1   
     9    6   21 1   
    10    7    8 1   
    11    7   18 1   
    12    8    9 1   
    13    8   22 1   
    14    8   23 1   
    15    9   10 1   
    16    9   12 1   
    17    9   24 1   
    18   11   25 1   
    19   12   13 1   
    20   12   17 1   
    21   13   14 1   
    22   13   26 1   
    23   14   27 1   
    24   15   16 1   
    25   15   28 1   
    26   16   29 1   
    27   17   30 1   
@<TRIPOS>SUBSTRUCTURE
     1 DDC         1 TEMP              0 ****  ****    0 ROOT
