@<TRIPOS>MOLECULE
DDD
   37    38     1     0     0
SMALL
bcc


@<TRIPOS>ATOM
      1 O31        -4.1020    2.1050    2.3170 o         1 DDD     -0.836800
      2 C3         -2.8430    2.1460    2.4080 c         1 DDD      0.914600
      3 O32        -2.2870    1.9330    3.5110 o         1 DDD     -0.836800
      4 CA4        -2.0230    2.4060    1.2050 c3        1 DDD      0.044500
      5 CB2        -2.4390    1.5020    0.0920 c3        1 DDD     -0.079400
      6 CG2        -2.4870    0.0680    0.5950 c3        1 DDD     -0.161400
      7 CD1        -1.1430   -0.5150    0.0700 c         1 DDD      0.683500
      8 OE1        -1.0290   -1.7130   -0.0900 o         1 DDD     -0.638500
      9 N2          0.0300    0.3330   -0.0010 n         1 DDD     -0.467800
     10 CA3        -0.0960    1.7360    0.1870 c3        1 DDD      0.305200
     11 N3         -0.7080    1.9870    1.4170 n3        1 DDD     -0.731600
     12 CD2         0.2560    1.7960    2.4840 c3        1 DDD      0.273900
     13 SD          1.8870    1.4790    1.7750 ss        1 DDD     -0.404200
     14 CB1         1.9470   -0.2070    1.1250 c3        1 DDD     -0.012300
     15 CA2         1.3130   -0.2370   -0.2560 c3        1 DDD      0.023700
     16 C2          1.2680   -1.6420   -0.9040 c         1 DDD      0.671100
     17 O2          0.7600   -2.5750   -0.3040 o         1 DDD     -0.675100
     18 N1          1.9230   -1.8710   -2.1840 n         1 DDD     -0.510900
     19 CA1         2.3590   -3.2030   -2.5450 c3        1 DDD     -0.035000
     20 C1          2.3170   -3.3580   -4.0530 c         1 DDD      0.905600
     21 O11         1.2090   -3.4470   -4.6440 o         1 DDD     -0.848800
     22 O12         3.3870   -3.4890   -4.7000 o         1 DDD     -0.848800
     23 HA4        -2.1700    3.3690    1.0770 h1        1 DDD      0.051700
     24 HB21       -3.3290    1.7660   -0.2280 hc        1 DDD      0.035200
     25 HB22       -1.8000    1.5690   -0.6360 hc        1 DDD      0.035200
     26 HG21       -3.2770   -0.4100    0.2670 hc        1 DDD      0.087700
     27 HG22       -2.5850   -0.0100    1.5680 hc        1 DDD      0.087700
     28 HA31        0.7910    2.1480    0.1750 h2        1 DDD      0.061700
     29 HA32       -0.6400    2.1140   -0.5310 h2        1 DDD      0.061700
     30 HD21       -0.0140    1.0350    3.0350 h2        1 DDD      0.091700
     31 HD22        0.2930    2.6070    3.0420 h2        1 DDD      0.091700
     32 HB11        1.4560   -0.8030    1.7210 h1        1 DDD      0.089700
     33 HB12        2.8890   -0.5040    1.0630 h1        1 DDD      0.089700
     34 HA2         1.8280    0.2760   -0.9160 h1        1 DDD      0.070700
     35 HN1         2.0160   -1.1830   -2.7800 hn        1 DDD      0.335500
     36 HA11        1.7670   -3.8620   -2.1340 h1        1 DDD      0.036200
     37 HA12        3.2780   -3.3450   -2.2270 h1        1 DDD      0.036200
@<TRIPOS>BOND
     1    1    2 1   
     2    2    3 1   
     3    2    4 1   
     4    4    5 1   
     5    4   11 1   
     6    4   23 1   
     7    5    6 1   
     8    5   24 1   
     9    5   25 1   
    10    6    7 1   
    11    6   26 1   
    12    6   27 1   
    13    7    8 2   
    14    7    9 1   
    15    9   10 1   
    16    9   15 1   
    17   10   11 1   
    18   10   28 1   
    19   10   29 1   
    20   11   12 1   
    21   12   13 1   
    22   12   30 1   
    23   12   31 1   
    24   13   14 1   
    25   14   15 1   
    26   14   32 1   
    27   14   33 1   
    28   15   16 1   
    29   15   34 1   
    30   16   17 2   
    31   16   18 1   
    32   18   19 1   
    33   18   35 1   
    34   19   20 1   
    35   19   36 1   
    36   19   37 1   
    37   20   21 1   
    38   20   22 1   
@<TRIPOS>SUBSTRUCTURE
     1 DDD         1 TEMP              0 ****  ****    0 ROOT
