@<TRIPOS>MOLECULE
DDD
   37    38     1     0     0
SMALL
bcc


@<TRIPOS>ATOM
      1 O31         5.5060    0.4360   -0.1320 o         1 DDD     -0.835300
      2 C3          4.4800    0.7160    0.5430 c         1 DDD      0.925600
      3 O32         4.4430    1.5630    1.4780 o         1 DDD     -0.835300
      4 CA4         3.1530   -0.0850    0.2530 c3        1 DDD      0.055500
      5 CB2         3.5440   -1.3870   -0.4480 c3        1 DDD     -0.067400
      6 CG2         2.4800   -2.4600   -0.5460 c3        1 DDD     -0.147400
      7 CD1         1.1490   -2.1360    0.1070 c         1 DDD      0.693500
      8 OE1         0.6810   -2.9050    0.9770 o         1 DDD     -0.682500
      9 N2          0.4320   -1.0350   -0.3560 n         1 DDD     -0.450800
     10 CA3         1.1420   -0.0400   -1.1630 c3        1 DDD      0.310200
     11 N3          2.1910    0.7210   -0.5030 n3        1 DDD     -0.732600
     12 CD2         1.7620    1.9160    0.1530 c3        1 DDD      0.289900
     13 SD          0.0420    2.0790    0.7160 ss        1 DDD     -0.439200
     14 CB1        -0.4930    0.5270    1.3640 c3        1 DDD     -0.006300
     15 CA2        -0.7500   -0.6110    0.3700 c3        1 DDD      0.022700
     16 C2         -1.9390   -0.2580   -0.5680 c         1 DDD      0.653100
     17 O2         -1.7850    0.0020   -1.7820 o         1 DDD     -0.647100
     18 N1         -3.1730   -0.2530    0.0200 n         1 DDD     -0.536900
     19 CA1        -4.3930   -0.0360   -0.7080 c3        1 DDD     -0.034000
     20 C1         -5.6750   -0.3690    0.1050 c         1 DDD      0.907600
     21 O11        -6.7710   -0.2310   -0.5070 o         1 DDD     -0.846300
     22 O12        -5.5720   -0.7500    1.3060 o         1 DDD     -0.846300
     23 HA4         2.7200   -0.3500    1.2660 h1        1 DDD      0.018700
     24 HB21        3.9320   -1.1410   -1.4720 hc        1 DDD      0.061200
     25 HB22        4.4190   -1.7960    0.1280 hc        1 DDD      0.061200
     26 HG21        2.2800   -2.7070   -1.6230 hc        1 DDD      0.049700
     27 HG22        2.8530   -3.4000   -0.0570 hc        1 DDD      0.049700
     28 HA31        1.6270   -0.5910   -2.0230 h2        1 DDD      0.085700
     29 HA32        0.3650    0.6730   -1.5800 h2        1 DDD      0.085700
     30 HD21        2.4400    2.1630    1.0200 h2        1 DDD      0.094200
     31 HD22        1.7950    2.7580   -0.5940 h2        1 DDD      0.094200
     32 HB11        0.2430    0.1700    2.1270 h1        1 DDD      0.078200
     33 HB12       -1.4520    0.7700    1.8890 h1        1 DDD      0.078200
     34 HA2        -1.0830   -1.5070    0.9900 h1        1 DDD      0.095700
     35 HN1        -3.2890   -0.5430    0.9670 hn        1 DDD      0.327500
     36 HA11       -4.4480    1.0430   -1.0230 h1        1 DDD      0.034700
     37 HA12       -4.3920   -0.6610   -1.6440 h1        1 DDD      0.034700
@<TRIPOS>BOND
     1    1    2 1   
     2    2    3 1   
     3    2    4 1   
     4    4    5 1   
     5    4   11 1   
     6    4   23 1   
     7    5    6 1   
     8    5   24 1   
     9    5   25 1   
    10    6    7 1   
    11    6   26 1   
    12    6   27 1   
    13    7    8 2   
    14    7    9 1   
    15    9   10 1   
    16    9   15 1   
    17   10   11 1   
    18   10   28 1   
    19   10   29 1   
    20   11   12 1   
    21   12   13 1   
    22   12   30 1   
    23   12   31 1   
    24   13   14 1   
    25   14   15 1   
    26   14   32 1   
    27   14   33 1   
    28   15   16 1   
    29   15   34 1   
    30   16   17 2   
    31   16   18 1   
    32   18   19 1   
    33   18   35 1   
    34   19   20 1   
    35   19   36 1   
    36   19   37 1   
    37   20   21 1   
    38   20   22 1   
@<TRIPOS>SUBSTRUCTURE
     1 DDD         1 TEMP              0 ****  ****    0 ROOT
