@<TRIPOS>MOLECULE
DDE
   44    44     1     0     0
SMALL
bcc


@<TRIPOS>ATOM
      1 N          -0.0190    4.3590   -4.4020 n3        1 DDE     -0.891800
      2 CA         -0.8060    3.1670   -4.1270 c3        1 DDE      0.071500
      3 C          -0.3560    1.9370   -4.9400 c         1 DDE      0.889600
      4 O          -0.0940    2.0390   -6.1790 o         1 DDE     -0.877300
      5 CB         -2.3100    3.4370   -4.3520 c3        1 DDE     -0.086700
      6 CG         -3.0910    2.1860   -4.2260 cc        1 DDE      0.332600
      7 ND1        -3.3030    1.3140   -5.2960 nc        1 DDE     -0.672000
      8 CD2        -3.6170    1.6150   -3.0460 cd        1 DDE     -0.239600
      9 CE1        -3.8850    0.2020   -4.7750 cd        1 DDE      0.361800
     10 NE2        -4.1150    0.3640   -3.3990 na        1 DDE     -0.307900
     11 CBI        -2.1120   -0.6680   -7.6660 c         1 DDE      0.643100
     12 OAG        -2.5710   -1.5160   -8.4700 o         1 DDE     -0.667100
     13 CBW        -1.7020   -1.1170   -6.2400 c3        1 DDE      0.036500
     14 NCB        -0.3800   -1.8640   -6.2810 n4        1 DDE     -0.572800
     15 CAB         0.0710   -2.1700   -4.8910 c3        1 DDE      0.072100
     16 CAC        -0.4820   -3.1320   -7.0510 c3        1 DDE      0.072100
     17 CAA         0.6370   -0.9640   -6.9140 c3        1 DDE      0.072100
     18 CAU        -2.8650   -1.9070   -5.6350 c3        1 DDE     -0.080400
     19 CAT        -4.1260   -1.0590   -5.5320 c3        1 DDE     -0.094700
     20 OXT        -0.2220    0.8150   -4.3550 o         1 DDE     -0.877300
     21 H          -0.0910    4.5830   -5.3780 hn        1 DDE      0.344800
     22 H2          0.9450    4.1590   -4.2070 hn        1 DDE      0.344800
     23 HA         -0.6630    2.9130   -3.0350 h1        1 DDE      0.060700
     24 HB2        -2.6680    4.1770   -3.5890 hc        1 DDE      0.057200
     25 HB3        -2.4660    3.8860   -5.3690 hc        1 DDE      0.057200
     26 HD2        -3.6560    1.9960   -2.0270 h4        1 DDE      0.179000
     27 HE2        -4.5480   -0.2840   -2.7990 hn        1 DDE      0.294700
     28 HAD1       -1.5770    1.2940   -7.3290 hn        1 DDE      0.351000
     29 HAD2       -2.2990    0.9640   -8.8540 hn        1 DDE      0.351000
     30 HBW        -1.4740   -0.2110   -5.5730 hx        1 DDE      0.201700
     31 HAB1        1.0790   -2.6580   -4.9390 hx        1 DDE      0.102367
     32 HAB2        0.1420   -1.2060   -4.3040 hx        1 DDE      0.102367
     33 HAB3       -0.6560   -2.8670   -4.4030 hx        1 DDE      0.102367
     34 HAC1        0.5410   -3.5770   -7.1600 hx        1 DDE      0.102367
     35 HAC2       -1.1480   -3.8480   -6.5030 hx        1 DDE      0.102367
     36 HAC3       -0.9210   -2.9270   -8.0660 hx        1 DDE      0.102367
     37 HAA1        0.5890    0.0620   -6.4130 hx        1 DDE      0.102367
     38 HAA2        1.6540   -1.4110   -6.7790 hx        1 DDE      0.102367
     39 HAA3        0.4090   -0.8610   -8.0060 hx        1 DDE      0.102367
     40 HAU3       -3.0970   -2.7950   -6.2820 hc        1 DDE      0.057700
     41 HAU2       -2.5870   -2.2680   -4.6110 hc        1 DDE      0.057700
     42 HAT2       -4.9250   -1.6700   -5.0350 hc        1 DDE      0.072700
     43 HAT3       -4.4860   -0.8020   -6.5670 hc        1 DDE      0.072700
     44 NAD        -1.9370    0.6310   -7.9940 n         1 DDE     -0.609000
@<TRIPOS>BOND
     1    1    2 1   
     2    1   21 1   
     3    1   22 1   
     4    2    3 1   
     5    2    5 1   
     6    2   23 1   
     7    3    4 1   
     8    3   20 1   
     9    5    6 1   
    10    5   24 1   
    11    5   25 1   
    12    6    7 1   
    13    6    8 2   
    14    7    9 2   
    15    8   10 1   
    16    8   26 1   
    17    9   10 1   
    18    9   19 1   
    19   10   27 1   
    20   11   12 2   
    21   11   13 1   
    22   11   44 1   
    23   13   14 1   
    24   13   18 1   
    25   13   30 1   
    26   14   15 1   
    27   14   16 1   
    28   14   17 1   
    29   15   31 1   
    30   15   32 1   
    31   15   33 1   
    32   16   34 1   
    33   16   35 1   
    34   16   36 1   
    35   17   37 1   
    36   17   38 1   
    37   17   39 1   
    38   18   19 1   
    39   18   40 1   
    40   18   41 1   
    41   19   42 1   
    42   19   43 1   
    43   28   44 1   
    44   29   44 1   
@<TRIPOS>SUBSTRUCTURE
     1 DDE         1 TEMP              0 ****  ****    0 ROOT
