@<TRIPOS>MOLECULE
DDF
   56    55     1     0     0
SMALL
bcc


@<TRIPOS>ATOM
      1 N1          0.9630   -0.8930   -0.1430 n7        1 DDF     -0.314000
      2 C2          2.2230   -0.2590   -0.0460 c2        1 DDF      0.274000
      3 NA2         3.1270   -0.4970   -1.1040 n8        1 DDF     -0.341000
      4 N3          2.6310    0.4670    0.9960 n2        1 DDF     -0.343000
      5 C4          1.8030    0.5980    2.1230 c2        1 DDF      0.285000
      6 O4          2.1300    1.3490    3.0530 o         1 DDF     -0.289000
      7 C4A         0.5230   -0.2300    2.2150 c3        1 DDF     -0.161000
      8 C5         -0.5510    0.4940    3.0090 c3        1 DDF     -0.146000
      9 C6         -1.8500   -0.2940    2.9780 c3        1 DDF     -0.135000
     10 C7         -2.2940   -0.5240    1.5260 c3        1 DDF     -0.083000
     11 N8         -1.2760   -0.7640    0.5470 n2        1 DDF     -0.230000
     12 C8A        -0.0180   -0.6210    0.8460 c2        1 DDF      0.092000
     13 C9         -2.9260    0.4320    3.7680 c3        1 DDF     -0.154000
     14 C10        -4.1920   -0.3940    3.8890 c3        1 DDF     -0.067000
     15 C11        -7.5810    0.7780    7.3220 c2        1 DDF     -0.002000
     16 C12        -7.6270    1.6160    6.2700 c2        1 DDF     -0.168000
     17 C13        -6.4280    0.6090    4.4090 c1        1 DDF      0.138000
     18 C14        -5.1980    0.2880    4.7330 c2        1 DDF     -0.489000
     19 C15        -9.4680   -0.8520    8.0650 c1        1 DDF     -0.092000
     20 C16        -8.6220   -0.0940    7.6820 c1        1 DDF     -0.236000
     21 O          -5.2660    1.2200    7.7690 o         1 DDF     -0.463000
     22 N          -6.4480    0.2200    9.4420 nt        1 DDF     -0.382000
     23 CA         -8.9290   -2.6040   15.0400 c2        1 DDF     -0.316000
     24 CB         -8.4250   -2.5260   13.8000 c2        1 DDF     -0.016000
     25 CG         -9.0290   -3.1640   12.6180 c3        1 DDF     -0.230000
     26 CD         -8.8850   -2.2780   11.3630 c2        1 DDF      0.347000
     27 OE1        -9.7780   -2.3740   10.4780 o         1 DDF     -0.585000
     28 OE2        -7.8740   -1.5190   11.2770 o         1 DDF     -0.585000
     29 CT         -8.3350   -1.9670   16.2130 c2        1 DDF      0.344000
     30 O1         -7.5330   -0.8620   16.0800 oh        1 DDF     -0.313000
     31 O2         -8.4790   -2.3040   17.3940 o         1 DDF     -0.349000
     32 HN1         0.6590   -1.2660   -1.0150 hn        1 DDF      0.244000
     33 HN21        2.7350   -0.5370   -2.0170 hn        1 DDF      0.217000
     34 HN22        3.9860    0.0050   -1.0410 hn        1 DDF      0.217000
     35 H51         0.7960   -1.1860    2.7520 hc        1 DDF      0.140000
     36 H52        -0.7130    1.5190    2.5850 hc        1 DDF      0.108000
     37 H6         -0.1960    0.6250    4.0650 hc        1 DDF      0.108000
     38 H71        -1.6700   -1.2980    3.4580 hc        1 DDF      0.095000
     39 H72        -2.9870   -1.4150    1.4930 h1        1 DDF      0.109500
     40 HN8        -2.8790    0.3730    1.1680 h1        1 DDF      0.109500
     41 H91        -4.6100   -0.5930    2.8660 hc        1 DDF      0.079500
     42 H92        -3.1600    1.4130    3.2770 hc        1 DDF      0.094000
     43 H101       -2.5330    0.6610    4.7940 hc        1 DDF      0.094000
     44 H102       -3.9490   -1.3900    4.3500 hc        1 DDF      0.079500
     45 H12        -8.4960    1.6710    5.6030 ha        1 DDF      0.131500
     46 H13        -6.8020    2.3140    6.0650 ha        1 DDF      0.131500
     47 H15        -4.8570    0.5310    5.7720 ha        1 DDF      0.230000
     48 H16       -10.1620   -1.5390    8.5010 ha        1 DDF      0.267000
     49 HN         -7.2700   -0.2600    9.7630 hn        1 DDF      0.256000
     50 HA         -7.4840   -0.6010   15.1500 ho        1 DDF      0.232000
     51 HB1        -9.8370   -3.1880   15.2620 ha        1 DDF      0.148000
     52 HB2        -7.5020   -1.9550   13.5710 ha        1 DDF      0.146000
     53 HG1        -8.4860   -4.1220   12.4010 hc        1 DDF      0.097000
     54 HG2       -10.1090   -3.4070   12.7780 hc        1 DDF      0.097000
     55 H2         -5.6310    0.1420    9.9950 hn        1 DDF      0.256000
     56 C          -6.3550    0.7430    8.1930 c2        1 DDF      0.323000
@<TRIPOS>BOND
     1    1    2 1   
     2    1   12 1   
     3    1   32 1   
     4    2    3 1   
     5    2    4 1   
     6    3   33 1   
     7    3   34 1   
     8    4    5 1   
     9    5    6 1   
    10    5    7 1   
    11    7    8 1   
    12    7   12 1   
    13    7   35 1   
    14    8    9 1   
    15    8   36 1   
    16    8   37 1   
    17    9   10 1   
    18    9   13 1   
    19    9   38 1   
    20   10   11 1   
    21   10   39 1   
    22   10   40 1   
    23   11   12 1   
    24   13   14 1   
    25   13   42 1   
    26   13   43 1   
    27   14   18 1   
    28   14   41 1   
    29   14   44 1   
    30   15   16 1   
    31   15   20 1   
    32   15   56 1   
    33   16   45 1   
    34   16   46 1   
    35   17   18 1   
    36   18   47 1   
    37   19   20 1   
    38   19   48 1   
    39   21   56 1   
    40   22   49 1   
    41   22   55 1   
    42   22   56 1   
    43   23   24 1   
    44   23   29 1   
    45   23   51 1   
    46   24   25 1   
    47   24   52 1   
    48   25   26 1   
    49   25   53 1   
    50   25   54 1   
    51   26   27 1   
    52   26   28 1   
    53   29   30 1   
    54   29   31 1   
    55   30   50 1   
@<TRIPOS>SUBSTRUCTURE
     1 DDF         1 TEMP              0 ****  ****    0 ROOT
