@<TRIPOS>MOLECULE
DDF
   55    57     1     0     0
SMALL
bcc


@<TRIPOS>ATOM
      1 N1         -0.8010   -0.6790    8.1120 na        1 DDF     -0.728000
      2 C2         -0.0370    0.0950    9.0250 cc        1 DDF      0.805100
      3 NA2        -0.1780   -0.2580   10.4030 nh        1 DDF     -0.881800
      4 N3          0.7760    1.0810    8.6700 nd        1 DDF     -0.730100
      5 C4          1.0020    1.3330    7.2930 c         1 DDF      0.712700
      6 O4          1.7620    2.2610    6.9640 o         1 DDF     -0.551100
      7 C4A         0.3040    0.4890    6.3060 cc        1 DDF     -0.288400
      8 C5          0.5510    0.7520    4.8670 c3        1 DDF     -0.016200
      9 C6         -0.4920    0.0920    3.9780 c3        1 DDF     -0.094700
     10 C7         -0.7150   -1.3460    4.4660 c3        1 DDF      0.167800
     11 N8         -1.1330   -1.4640    5.8510 nh        1 DDF     -0.715000
     12 C8A        -0.5310   -0.5230    6.7340 cd        1 DDF      0.300000
     13 C9         -0.0580    0.0960    2.5210 c3        1 DDF     -0.073400
     14 C10        -1.2430   -0.0750    1.5880 c3        1 DDF     -0.025100
     15 C11        -0.1500   -0.8910   -2.4810 ca        1 DDF     -0.103600
     16 C12         0.1660   -1.8040   -1.4680 ca        1 DDF     -0.093500
     17 C13        -0.1710   -1.5290   -0.1460 ca        1 DDF     -0.145000
     18 C14        -0.8310   -0.3390    0.1830 ca        1 DDF     -0.104300
     19 C15        -1.1400    0.5740   -0.8300 ca        1 DDF     -0.145000
     20 C16        -0.8030    0.3010   -2.1560 ca        1 DDF     -0.093500
     21 O          -0.0130   -2.4340   -4.2830 o         1 DDF     -0.663100
     22 N           0.6330   -0.2430   -4.6960 n         1 DDF     -0.484900
     23 CA          1.0580   -0.3870   -6.0790 c3        1 DDF     -0.038300
     24 CB          0.2080    0.4700   -7.0310 c3        1 DDF     -0.057400
     25 CG         -1.2020   -0.0450   -7.2040 c3        1 DDF     -0.182400
     26 CD         -2.1330    0.9810   -7.8610 c         1 DDF      0.904600
     27 OE1        -2.3730    2.0720   -7.2610 o         1 DDF     -0.874800
     28 OE2        -2.6750    0.6850   -8.9700 o         1 DDF     -0.874800
     29 CT          2.5630    0.0230   -6.2380 c         1 DDF      0.906600
     30 O1          3.2190   -0.5430   -7.1550 o         1 DDF     -0.851300
     31 O2          3.0530    0.8780   -5.4420 o         1 DDF     -0.851300
     32 HN1        -1.2030   -1.5360    8.4220 hn        1 DDF      0.447800
     33 HN21        0.3500    0.3440   11.0050 hn        1 DDF      0.401300
     34 HN22       -1.1310   -0.3290   10.6920 hn        1 DDF      0.401300
     35 H51         0.5580    1.8630    4.6930 hc        1 DDF      0.071200
     36 H52         1.5760    0.3750    4.5980 hc        1 DDF      0.071200
     37 H6         -1.4570    0.6640    4.0680 hc        1 DDF      0.050700
     38 H71         0.2520   -1.9160    4.3660 h1        1 DDF      0.067200
     39 H72        -1.4880   -1.8530    3.8240 h1        1 DDF      0.067200
     40 HN8        -2.1320   -1.4760    5.9470 hn        1 DDF      0.384800
     41 H91         0.4550    1.0670    2.2910 hc        1 DDF      0.057200
     42 H92         0.6890   -0.7220    2.3430 hc        1 DDF      0.057200
     43 H101       -1.8780   -0.9330    1.9410 hc        1 DDF      0.034200
     44 H102       -1.8830    0.8470    1.6360 hc        1 DDF      0.034200
     45 H12         0.6670   -2.7460   -1.7400 ha        1 DDF      0.158000
     46 H13         0.0750   -2.2530    0.6430 ha        1 DDF      0.115000
     47 H15        -1.6590    1.5120   -0.5860 ha        1 DDF      0.115000
     48 H16        -1.0680    1.0220   -2.9490 ha        1 DDF      0.158000
     49 HN          0.9380    0.6060   -4.2700 hn        1 DDF      0.320500
     50 HA          0.9550   -1.4710   -6.3720 h1        1 DDF      0.069700
     51 HB1         0.1730    1.5310   -6.6690 hc        1 DDF      0.050200
     52 HB2         0.7360    0.4690   -8.0210 hc        1 DDF      0.050200
     53 HG1        -1.1900   -0.9790   -7.8220 hc        1 DDF      0.019700
     54 HG2        -1.6430   -0.3050   -6.2070 hc        1 DDF      0.019700
     55 C           0.1800   -1.2510   -3.9060 c         1 DDF      0.651700
@<TRIPOS>BOND
     1    1    2 1   
     2    1   12 1   
     3    1   32 1   
     4    2    3 1   
     5    2    4 2   
     6    3   33 1   
     7    3   34 1   
     8    4    5 1   
     9    5    6 2   
    10    5    7 1   
    11    7    8 1   
    12    7   12 2   
    13    8    9 1   
    14    8   35 1   
    15    8   36 1   
    16    9   10 1   
    17    9   13 1   
    18    9   37 1   
    19   10   11 1   
    20   10   38 1   
    21   10   39 1   
    22   11   12 1   
    23   11   40 1   
    24   13   14 1   
    25   13   41 1   
    26   13   42 1   
    27   14   18 1   
    28   14   43 1   
    29   14   44 1   
    30   15   16 ar  
    31   15   20 ar  
    32   15   55 1   
    33   16   17 ar  
    34   16   45 1   
    35   17   18 ar  
    36   17   46 1   
    37   18   19 ar  
    38   19   20 ar  
    39   19   47 1   
    40   20   48 1   
    41   21   55 2   
    42   22   23 1   
    43   22   49 1   
    44   22   55 1   
    45   23   24 1   
    46   23   29 1   
    47   23   50 1   
    48   24   25 1   
    49   24   51 1   
    50   24   52 1   
    51   25   26 1   
    52   25   53 1   
    53   25   54 1   
    54   26   27 1   
    55   26   28 1   
    56   29   30 1   
    57   29   31 1   
@<TRIPOS>SUBSTRUCTURE
     1 DDF         1 TEMP              0 ****  ****    0 ROOT
