@<TRIPOS>MOLECULE
DDG
   34    33     1     0     0
SMALL
bcc


@<TRIPOS>ATOM
      1 OP3        -4.3500    4.3050   -0.8610 o         1 DDG     -0.925500
      2 P          -3.0010    4.8730   -1.3280 p5        1 DDG      1.576500
      3 OP1        -2.4110    5.7290   -0.2380 o         1 DDG     -0.925500
      4 OP2        -3.2090    5.7080   -2.5570 o         1 DDG     -0.925500
      5 O5'        -2.0030    3.6710   -1.6610 os        1 DDG     -0.728000
      6 C5'        -1.7120    2.7580   -0.6540 c3        1 DDG      0.069000
      7 C4'        -0.9180    1.6070   -1.2280 c3        1 DDG     -0.010000
      8 O4'        -0.0070    1.2420   -0.3960 os        1 DDG     -0.309000
      9 C3'        -1.8790    0.3220   -1.4430 c3        1 DDG     -0.203000
     10 C2'        -1.1130   -0.6960   -1.4410 c3        1 DDG     -0.189000
     11 C1'         0.1150   -0.2730   -0.5820 c3        1 DDG      0.159000
     12 N9          0.0830   -0.8590    0.5570 n3        1 DDG     -0.142000
     13 C8         -0.8230   -0.9170    1.5830 c1        1 DDG     -0.023000
     14 N7         -0.2780   -1.6790    2.5870 n2        1 DDG     -0.136000
     15 C5          0.9570   -2.0890    2.1830 c1        1 DDG     -0.207000
     16 C6          2.0020   -2.9430    2.8490 c1        1 DDG      0.387000
     17 O6          1.7320   -3.5380    3.9210 o         1 DDG     -0.384000
     18 N1          3.2200   -3.2080    2.1810 n3        1 DDG     -0.334000
     19 C2          3.4540   -2.6610    0.8670 c2        1 DDG      0.117000
     20 N2          4.7230   -2.8960    0.1910 n3        1 DDG     -0.301000
     21 N3          2.4490   -1.8450    0.2390 n1        1 DDG     -0.183000
     22 C4          1.1820   -1.5800    0.9220 c1        1 DDG     -0.024000
     23 H5'        -1.1890    3.1970    0.0430 h1        1 DDG      0.036000
     24 H5''       -2.5310    2.4250   -0.2780 h1        1 DDG      0.036000
     25 H4'        -0.5170    1.8670   -2.0690 h1        1 DDG      0.069000
     26 H3'1       -2.3510    0.3910   -2.3080 hc        1 DDG      0.129000
     27 H3'2       -2.5180    0.2580   -0.7190 hc        1 DDG      0.129000
     28 H2'        -1.5720   -1.4730   -1.0290 hc        1 DDG      0.115500
     29 H2''       -0.8330   -0.9100   -2.3480 hc        1 DDG      0.115500
     30 H1'         0.9530   -0.4920   -1.0550 h2        1 DDG      0.090000
     31 H8         -1.7260   -0.5700    1.5620 DU        1 DDG      0.354000
     32 H1          3.8270   -3.7750    2.5510 hn        1 DDG      0.231000
     33 H21         4.9100   -2.4610   -0.5890 hn        1 DDG      0.167500
     34 H22         5.3320   -3.4860    0.5460 hn        1 DDG      0.167500
@<TRIPOS>BOND
     1    1    2 1   
     2    2    3 1   
     3    2    4 1   
     4    2    5 1   
     5    5    6 1   
     6    6    7 1   
     7    6   23 1   
     8    6   24 1   
     9    7    8 1   
    10    7    9 1   
    11    7   25 1   
    12    8   11 1   
    13    9   10 1   
    14    9   26 1   
    15    9   27 1   
    16   10   11 1   
    17   10   28 1   
    18   10   29 1   
    19   11   12 1   
    20   11   30 1   
    21   12   13 1   
    22   12   22 1   
    23   13   14 1   
    24   14   15 1   
    25   15   22 1   
    26   16   17 1   
    27   16   18 1   
    28   18   19 1   
    29   18   32 1   
    30   19   20 1   
    31   19   21 1   
    32   20   33 1   
    33   20   34 1   
@<TRIPOS>SUBSTRUCTURE
     1 DDG         1 TEMP              0 ****  ****    0 ROOT
