@<TRIPOS>MOLECULE
DDG
   34    36     1     0     0
SMALL
bcc


@<TRIPOS>ATOM
      1 OP3        -1.7600    1.2830    4.4340 o         1 DDG     -0.925500
      2 P          -0.5030    1.3190    3.6270 p5        1 DDG      1.342900
      3 OP1        -0.6400    1.7460    2.1750 o         1 DDG     -0.925500
      4 OP2         0.7650    1.8270    4.2520 o         1 DDG     -0.925500
      5 O5'        -0.0700   -0.3590    3.4660 os        1 DDG     -0.566200
      6 C5'        -0.0410   -0.8920    2.2110 c3        1 DDG      0.219400
      7 C4'         1.3970   -1.0160    1.6480 c3        1 DDG      0.101100
      8 O4'         1.3320   -1.1960    0.2070 os        1 DDG     -0.452600
      9 C3'         2.2630    0.2200    1.8810 c3        1 DDG     -0.124400
     10 C2'         2.0910    1.0510    0.6210 c3        1 DDG     -0.110400
     11 C1'         1.6010    0.0440   -0.4490 c3        1 DDG      0.250800
     12 N9          0.4450    0.4980   -1.2130 na        1 DDG     -0.186900
     13 C8         -0.7150    1.1670   -0.7580 cc        1 DDG      0.465400
     14 N7         -1.6070    1.3930   -1.7520 nd        1 DDG     -0.662000
     15 C5         -1.0360    0.8410   -2.8970 cd        1 DDG      0.210800
     16 C6         -1.5180    0.7800   -4.2580 c         1 DDG      0.640000
     17 O6         -2.5780    1.2240   -4.7410 o         1 DDG     -0.659500
     18 N1         -0.6460    0.1120   -5.1560 n         1 DDG     -0.494400
     19 C2          0.5990   -0.4120   -4.7500 cd        1 DDG      0.563800
     20 N2          1.3970   -1.0070   -5.8000 nh        1 DDG     -0.862800
     21 N3          1.0720   -0.3710   -3.4980 nc        1 DDG     -0.610100
     22 C4          0.2500    0.2630   -2.5790 cc        1 DDG      0.025800
     23 H5'        -0.6490   -0.2820    1.4840 h1        1 DDG     -0.003300
     24 H5''       -0.4610   -1.9420    2.2390 h1        1 DDG     -0.003300
     25 H4'         1.8910   -1.9510    2.0180 h1        1 DDG      0.029700
     26 H3'1        3.3310   -0.0630    2.0380 hc        1 DDG      0.089700
     27 H3'2        1.8810    0.7870    2.7940 hc        1 DDG      0.089700
     28 H2'         3.0440    1.5210    0.2840 hc        1 DDG      0.076200
     29 H2''        1.3270    1.8550    0.8210 hc        1 DDG      0.076200
     30 H1'         2.4120   -0.1850   -1.2040 h2        1 DDG      0.050700
     31 H8         -0.8380    1.4660    0.3390 h5        1 DDG      0.217100
     32 H1         -0.9030    0.0770   -6.1150 hn        1 DDG      0.317500
     33 H21         2.3510   -1.0980   -5.5050 hn        1 DDG      0.372300
     34 H22         1.0290   -1.9130   -6.0240 hn        1 DDG      0.372300
@<TRIPOS>BOND
     1    1    2 1   
     2    2    3 1   
     3    2    4 1   
     4    2    5 1   
     5    5    6 1   
     6    6    7 1   
     7    6   23 1   
     8    6   24 1   
     9    7    8 1   
    10    7    9 1   
    11    7   25 1   
    12    8   11 1   
    13    9   10 1   
    14    9   26 1   
    15    9   27 1   
    16   10   11 1   
    17   10   28 1   
    18   10   29 1   
    19   11   12 1   
    20   11   30 1   
    21   12   13 1   
    22   12   22 1   
    23   13   14 2   
    24   13   31 1   
    25   14   15 1   
    26   15   16 1   
    27   15   22 2   
    28   16   17 2   
    29   16   18 1   
    30   18   19 1   
    31   18   32 1   
    32   19   20 1   
    33   19   21 2   
    34   20   33 1   
    35   20   34 1   
    36   21   22 1   
@<TRIPOS>SUBSTRUCTURE
     1 DDG         1 TEMP              0 ****  ****    0 ROOT
