@<TRIPOS>MOLECULE
DDJ
   36    36     1     0     0
SMALL
bcc


@<TRIPOS>ATOM
      1 NAA         0.3730    0.9770    0.4570 n3        1 DDJ     -0.365000
      2 OAC         0.8120   -1.0730    2.3040 os        1 DDJ     -0.021000
      3 CAD         5.8380    0.1050   -3.3340 c2        1 DDJ     -0.138000
      4 CAE         3.0990   -1.0900    1.6850 c2        1 DDJ     -0.112000
      5 CAF         1.8600   -0.7120    1.3750 c2        1 DDJ     -0.095000
      6 CAG         1.2850   -0.1050    0.1060 c3        1 DDJ      0.060000
      7 CAH         4.6580    0.3300   -1.1570 c2        1 DDJ     -0.165000
      8 CAI         3.4170   -0.0710   -1.5510 c2        1 DDJ     -0.084000
      9 CAJ         2.2380    0.1810   -0.9210 c1        1 DDJ     -0.119000
     10 CAK         7.0770    0.0410   -4.0760 c2        1 DDJ      0.168000
     11 CAL         5.8440    0.2570   -1.9740 c2        1 DDJ     -0.040000
     12 CAM         8.2920    0.1420   -3.4280 c2        1 DDJ     -0.283000
     13 CAN         8.3480    0.3180   -1.9480 c3        1 DDJ     -0.186000
     14 CAO         7.0860    0.3780   -1.2420 c1        1 DDJ     -0.000000
     15 CAP         5.8810   -0.1540   -6.1570 c3        1 DDJ     -0.076000
     16 CAQ         0.2360   -0.1670    3.0160 c2        1 DDJ      0.269000
     17 NAR         9.5540    0.0850   -4.1520 n4        1 DDJ      0.013000
     18 HNAA        0.8510    1.8590    0.4820 hn        1 DDJ      0.193500
     19 HNAB       -0.3790    1.0340   -0.2060 hn        1 DDJ      0.193500
     20 HAD         4.8970    0.0420   -3.9070 ha        1 DDJ      0.164000
     21 HAE         3.9320   -0.9370    0.9760 ha        1 DDJ      0.182000
     22 HAI         4.8140    0.8080   -0.1730 ha        1 DDJ      0.164000
     23 HAJ         3.2720   -0.5470   -2.5510 ha        1 DDJ      0.194000
     24 HAN         8.9370   -0.5220   -1.4600 hc        1 DDJ      0.188000
     25 HAO         8.8930    1.2770   -1.6740 hc        1 DDJ      0.188000
     26 HAP         5.3200    0.8000   -6.0110 h1        1 DDJ      0.115667
     27 HAPA        6.2260   -0.2570   -7.2210 h1        1 DDJ      0.115667
     28 HAPB        5.2790   -1.0410   -5.8480 h1        1 DDJ      0.115667
     29 HAQ         3.3640   -1.5780    2.6380 ha        1 DDJ      0.182000
     30 HAQA        0.5520    0.8950    3.0470 h4        1 DDJ      0.215000
     31 HAQB       -0.6190   -0.5560    3.6240 h4        1 DDJ      0.215000
     32 HNAR       10.0280   -0.8020   -3.9480 hn        1 DDJ      0.261333
     33 HNAC       10.1530    0.8640   -3.8570 hn        1 DDJ      0.261333
     34 HAA3        0.6640   -0.9480   -0.3880 h1        1 DDJ      0.196000
     35 HAR3        9.3870    0.1500   -5.1660 hn        1 DDJ      0.261333
     36 OAB         7.1190   -0.1200   -5.4350 os        1 DDJ     -0.234000
@<TRIPOS>BOND
     1    1    6 1   
     2    1   18 1   
     3    1   19 1   
     4    2    5 1   
     5    2   16 1   
     6    3   10 1   
     7    3   11 1   
     8    3   20 1   
     9    4    5 1   
    10    4   21 1   
    11    4   29 1   
    12    5    6 1   
    13    6    9 1   
    14    6   34 1   
    15    7    8 1   
    16    7   11 1   
    17    7   22 1   
    18    8    9 1   
    19    8   23 1   
    20   10   12 1   
    21   10   36 1   
    22   11   14 1   
    23   12   13 1   
    24   12   17 1   
    25   13   14 1   
    26   13   24 1   
    27   13   25 1   
    28   15   26 1   
    29   15   27 1   
    30   15   28 1   
    31   15   36 1   
    32   16   30 1   
    33   16   31 1   
    34   17   32 1   
    35   17   33 1   
    36   17   35 1   
@<TRIPOS>SUBSTRUCTURE
     1 DDJ         1 TEMP              0 ****  ****    0 ROOT
