@<TRIPOS>MOLECULE
DDJ
   34    31     1     0     0
SMALL
bcc


@<TRIPOS>ATOM
      1 NAA        -4.8330    0.2210    1.4230 n3        1 DDJ     -0.319000
      2 OAB         3.2660   -2.2820   -1.3620 os        1 DDJ     -0.235000
      3 OAC        -2.6550    0.1880    3.2350 os        1 DDJ     -0.235000
      4 CAD         1.2720   -0.9930   -0.7210 c1        1 DDJ     -0.097000
      5 CAE        -1.0580    0.2700    1.3990 c1        1 DDJ     -0.093500
      6 CAF        -2.3840    0.2660    1.8540 c1        1 DDJ     -0.022000
      7 CAG        -3.4200    0.2420    0.9470 c2        1 DDJ      0.050000
      8 CAH        -0.7860    0.2500    0.0340 c1        1 DDJ     -0.063000
      9 CAI        -1.8210    0.2270   -0.8750 c1        1 DDJ     -0.090000
     10 CAJ        -3.1430    0.2230   -0.4300 c2        1 DDJ     -0.183000
     11 CAK         2.5800   -1.0140   -1.1820 c2        1 DDJ     -0.022000
     12 CAL         0.6470    0.2260   -0.4500 c1        1 DDJ     -0.063000
     13 CAM         3.2720    0.1900   -1.3740 c2        1 DDJ      0.050000
     14 CAN         2.6440    1.4020   -1.1020 c1        1 DDJ     -0.183000
     15 CAO         1.3350    1.4210   -0.6420 c1        1 DDJ     -0.093500
     16 CAP         3.0220   -2.8860   -2.5920 c3        1 DDJ     -0.076000
     17 CAQ        -2.5510    1.4510    3.9190 c3        1 DDJ     -0.076000
     18 NAR         4.6400    0.1740   -1.8060 n3        1 DDJ     -0.319000
     19 HNAA       -5.5410    0.2980    0.7990 hn        1 DDJ      0.189500
     20 HNAB       -5.0180    0.2050    2.3350 hn        1 DDJ      0.189500
     21 HAD         0.7980   -1.8030   -0.6040 ha        1 DDJ      0.146000
     22 HAE        -0.3360    0.2850    2.0290 ha        1 DDJ      0.140500
     23 HAI        -1.6240    0.2120   -1.8580 ha        1 DDJ      0.135000
     24 HAJ        -3.8640    0.2050   -1.0660 ha        1 DDJ      0.135000
     25 HAN         3.1330    2.2570   -1.2390 ha        1 DDJ      0.135000
     26 HAO         0.8940    2.2790   -0.4500 ha        1 DDJ      0.140500
     27 HAP         2.1880   -3.3790   -2.5510 h1        1 DDJ      0.079667
     28 HAPA        2.9630   -2.2180   -3.2690 h1        1 DDJ      0.079667
     29 HAPB        3.7740   -3.5170   -2.8070 h1        1 DDJ      0.079667
     30 HAQ        -1.6120    1.6040    4.1940 h1        1 DDJ      0.079667
     31 HAQA       -2.8390    2.1780    3.3130 h1        1 DDJ      0.079667
     32 HAQB       -3.1320    1.4400    4.7250 h1        1 DDJ      0.079667
     33 HNAR        5.1150    0.9950   -1.9130 hn        1 DDJ      0.189500
     34 HNAC        5.0730   -0.6180   -1.9100 hn        1 DDJ      0.189500
@<TRIPOS>BOND
     1    1    7 1   
     2    1   19 1   
     3    1   20 1   
     4    2   11 1   
     5    2   16 1   
     6    3    6 1   
     7    3   17 1   
     8    4   11 1   
     9    4   21 1   
    10    5    8 1   
    11    5   22 1   
    12    6    7 1   
    13    7   10 1   
    14    8   12 1   
    15    9   10 1   
    16    9   23 1   
    17   10   24 1   
    18   11   13 1   
    19   12   15 1   
    20   13   14 1   
    21   13   18 1   
    22   14   25 1   
    23   15   26 1   
    24   16   27 1   
    25   16   28 1   
    26   16   29 1   
    27   17   30 1   
    28   17   31 1   
    29   17   32 1   
    30   18   33 1   
    31   18   34 1   
@<TRIPOS>SUBSTRUCTURE
     1 DDJ         1 TEMP              0 ****  ****    0 ROOT
