@<TRIPOS>MOLECULE
DDJ
   34    35     1     0     0
SMALL
bcc


@<TRIPOS>ATOM
      1 NAA         4.8410   -1.1070   -0.0890 nh        1 DDJ     -0.810200
      2 OAC         3.9320    1.3690    0.9400 os        1 DDJ     -0.349900
      3 CAD        -1.6610   -0.7800    0.4220 ca        1 DDJ     -0.096000
      4 CAE         1.6610    0.7810    0.4190 ca        1 DDJ     -0.096000
      5 CAF         3.0170    0.4570    0.4210 ca        1 DDJ      0.023100
      6 CAG         3.4770   -0.8220    0.0050 ca        1 DDJ      0.131600
      7 CAH         0.7110   -0.1650    0.0180 cp        1 DDJ     -0.062000
      8 CAI         1.1500   -1.4360   -0.3810 ca        1 DDJ     -0.089000
      9 CAJ         2.4980   -1.7650   -0.3870 ca        1 DDJ     -0.183000
     10 CAK        -3.0170   -0.4550    0.4230 ca        1 DDJ      0.023100
     11 CAL        -0.7110    0.1650    0.0170 cp        1 DDJ     -0.062000
     12 CAM        -3.4770    0.8220    0.0010 ca        1 DDJ      0.131600
     13 CAN        -2.4980    1.7640   -0.3930 ca        1 DDJ     -0.183000
     14 CAO        -1.1500    1.4350   -0.3870 ca        1 DDJ     -0.089000
     15 CAP        -4.3940   -2.3110   -0.0210 c3        1 DDJ      0.113700
     16 CAQ         4.3940    2.3110   -0.0290 c3        1 DDJ      0.113700
     17 NAR        -4.8410    1.1070   -0.0930 nh        1 DDJ     -0.810200
     18 HNAA        5.4120   -0.5060    0.4680 hn        1 DDJ      0.394300
     19 HNAB        5.0630   -2.0720    0.0200 hn        1 DDJ      0.394300
     20 HAD        -1.3490   -1.7790    0.7610 ha        1 DDJ      0.145000
     21 HAE         1.3490    1.7820    0.7540 ha        1 DDJ      0.145000
     22 HAI         0.4110   -2.1870   -0.7030 ha        1 DDJ      0.134000
     23 HAJ         2.8070   -2.7710   -0.7090 ha        1 DDJ      0.135000
     24 HAN        -2.8070    2.7680   -0.7200 ha        1 DDJ      0.135000
     25 HAO        -0.4110    2.1850   -0.7110 ha        1 DDJ      0.134000
     26 HAP        -3.5370   -2.8970   -0.4320 h1        1 DDJ      0.040033
     27 HAPA       -5.0850   -2.9720    0.5590 h1        1 DDJ      0.040033
     28 HAPB       -4.9390   -1.7900   -0.8450 h1        1 DDJ      0.040033
     29 HAQ         4.9390    1.7870   -0.8510 h1        1 DDJ      0.040033
     30 HAQA        3.5370    2.8960   -0.4420 h1        1 DDJ      0.040033
     31 HAQB        5.0850    2.9740    0.5490 h1        1 DDJ      0.040033
     32 HNAR       -5.4120    0.5070    0.4650 hn        1 DDJ      0.394300
     33 HNAC       -5.0630    2.0720    0.0120 hn        1 DDJ      0.394300
     34 OAB        -3.9320   -1.3660    0.9440 os        1 DDJ     -0.349900
@<TRIPOS>BOND
     1    1    6 1   
     2    1   18 1   
     3    1   19 1   
     4    2    5 1   
     5    2   16 1   
     6    3   10 ar  
     7    3   11 ar  
     8    3   20 1   
     9    4    5 ar  
    10    4    7 ar  
    11    4   21 1   
    12    5    6 ar  
    13    6    9 ar  
    14    7    8 ar  
    15    7   11 1   
    16    8    9 ar  
    17    8   22 1   
    18    9   23 1   
    19   10   12 ar  
    20   10   34 1   
    21   11   14 ar  
    22   12   13 ar  
    23   12   17 1   
    24   13   14 ar  
    25   13   24 1   
    26   14   25 1   
    27   15   26 1   
    28   15   27 1   
    29   15   28 1   
    30   15   34 1   
    31   16   29 1   
    32   16   30 1   
    33   16   31 1   
    34   17   32 1   
    35   17   33 1   
@<TRIPOS>SUBSTRUCTURE
     1 DDJ         1 TEMP              0 ****  ****    0 ROOT
