@<TRIPOS>MOLECULE
DDJ
   34    35     1     0     0
SMALL
bcc


@<TRIPOS>ATOM
      1 NAA        -0.1350   -0.4110    0.0350 n3        1 DDJ     -0.334000
      2 OAC         1.9620    0.4340    1.7940 os        1 DDJ     -0.224000
      3 CAD         5.4040   -0.5930   -3.2110 c2        1 DDJ      0.043000
      4 CAE         3.4770   -0.3380    0.0320 c2        1 DDJ     -0.169000
      5 CAF         2.2690    0.0480    0.5050 c2        1 DDJ     -0.009000
      6 CAG         1.0960   -0.0550   -0.4180 c2        1 DDJ      0.179000
      7 CAH         3.6840   -0.7180   -1.4160 c3        1 DDJ      0.001000
      8 CAI         2.6780    0.0360   -2.2580 c2        1 DDJ     -0.089000
      9 CAJ         1.4850    0.1760   -1.7060 c1        1 DDJ     -0.356000
     10 CAK         6.7180   -0.3610   -3.6870 c2        1 DDJ     -0.164000
     11 CAL         5.0880   -0.4640   -1.8690 c2        1 DDJ     -0.202000
     12 CAM         7.7600    0.0050   -2.8300 c2        1 DDJ      0.113000
     13 CAN         7.4460    0.1140   -1.3600 c3        1 DDJ     -0.178000
     14 CAO         6.0780   -0.1420   -0.9330 c1        1 DDJ     -0.149000
     15 CAP         6.5720    0.4470   -5.8930 c3        1 DDJ     -0.081000
     16 CAQ         3.0740    0.5630    2.6730 c3        1 DDJ     -0.074000
     17 NAR         9.0140    0.2840   -3.2760 n3        1 DDJ     -0.348000
     18 HNAA       -0.8770   -0.4710   -0.6180 hn        1 DDJ      0.227500
     19 HNAB       -0.3520   -0.2440    0.9870 hn        1 DDJ      0.227500
     20 HAD         4.6440   -0.8890   -3.9550 ha        1 DDJ      0.144000
     21 HAE         4.3770   -0.3950    0.6650 ha        1 DDJ      0.178000
     22 HAI         3.4970   -1.8320   -1.4920 hc        1 DDJ      0.107000
     23 HAJ         2.9960    0.4910   -3.2000 ha        1 DDJ      0.132000
     24 HAN         7.7050    1.1540   -1.0000 hc        1 DDJ      0.154500
     25 HAO         8.1030   -0.6050   -0.7870 hc        1 DDJ      0.154500
     26 HAP         5.4770    0.6350   -5.7770 h1        1 DDJ      0.076667
     27 HAPA        7.1470    1.3790   -5.6750 h1        1 DDJ      0.076667
     28 HAPB        6.8030    0.0680   -6.9190 h1        1 DDJ      0.076667
     29 HAQ         3.5480   -0.4340    2.8480 h1        1 DDJ      0.083000
     30 HAQA        2.6230    0.9590    3.6170 h1        1 DDJ      0.083000
     31 HAQB        3.8240    1.2800    2.2580 h1        1 DDJ      0.083000
     32 HNAR        9.7510    0.4060   -2.6280 hn        1 DDJ      0.232500
     33 HNAC        9.2360    0.1220   -4.2290 hn        1 DDJ      0.232500
     34 OAB         6.9940   -0.6090   -5.0310 os        1 DDJ     -0.226000
@<TRIPOS>BOND
     1    1    6 1   
     2    1   18 1   
     3    1   19 1   
     4    2    5 1   
     5    2   16 1   
     6    3   10 1   
     7    3   11 1   
     8    3   20 1   
     9    4    5 1   
    10    4    7 1   
    11    4   21 1   
    12    5    6 1   
    13    6    9 1   
    14    7    8 1   
    15    7   11 1   
    16    7   22 1   
    17    8    9 1   
    18    8   23 1   
    19   10   12 1   
    20   10   34 1   
    21   11   14 1   
    22   12   13 1   
    23   12   17 1   
    24   13   14 1   
    25   13   24 1   
    26   13   25 1   
    27   15   26 1   
    28   15   27 1   
    29   15   28 1   
    30   15   34 1   
    31   16   29 1   
    32   16   30 1   
    33   16   31 1   
    34   17   32 1   
    35   17   33 1   
@<TRIPOS>SUBSTRUCTURE
     1 DDJ         1 TEMP              0 ****  ****    0 ROOT
