@<TRIPOS>MOLECULE
DDJ
   34    35     1     0     0
SMALL
bcc


@<TRIPOS>ATOM
      1 NAA        -0.1860    0.0580    0.0700 n8        1 DDJ     -0.332000
      2 OAC         2.0020   -0.0420    1.9200 os        1 DDJ     -0.224000
      3 CAD         5.2770   -0.1700   -3.2980 c2        1 DDJ      0.043000
      4 CAE         3.4140    0.3320   -0.0460 c2        1 DDJ     -0.171000
      5 CAF         2.2570   -0.0160    0.5630 c2        1 DDJ     -0.007000
      6 CAG         1.0720   -0.2990   -0.3060 c2        1 DDJ      0.174000
      7 CAH         3.5680    0.2950   -1.5490 c3        1 DDJ      0.002000
      8 CAI         2.6430   -0.7690   -2.0980 c2        1 DDJ     -0.088000
      9 CAJ         1.4740   -0.8540   -1.4850 c1        1 DDJ     -0.352000
     10 CAK         6.6050   -0.3800   -3.7410 c2        1 DDJ     -0.165000
     11 CAL         4.9880    0.0670   -1.9650 c2        1 DDJ     -0.202000
     12 CAM         7.6890   -0.3660   -2.8580 c2        1 DDJ      0.113000
     13 CAN         7.3970   -0.1030   -1.4030 c3        1 DDJ     -0.178000
     14 CAO         6.0140    0.1290   -1.0150 c1        1 DDJ     -0.149000
     15 CAP         6.7940    0.3990   -5.9540 c3        1 DDJ     -0.080000
     16 CAQ         3.1290    0.1980    2.7560 c3        1 DDJ     -0.074000
     17 NAR         8.9720   -0.5570   -3.2660 n8        1 DDJ     -0.348000
     18 HNAA       -0.9350   -0.1630   -0.5390 hn        1 DDJ      0.224500
     19 HNAB       -0.3770    0.1320    1.0400 hn        1 DDJ      0.224500
     20 HAD         4.4800   -0.2020   -4.0630 ha        1 DDJ      0.144000
     21 HAE         3.2590    1.3140   -1.9330 hc        1 DDJ      0.105000
     22 HAI         4.3090    0.6570    0.5090 ha        1 DDJ      0.177000
     23 HAJ         3.0020   -1.4500   -2.8740 ha        1 DDJ      0.136000
     24 HAN         7.9850    0.8020   -1.0660 hc        1 DDJ      0.154500
     25 HAO         7.7590   -0.9790   -0.7860 hc        1 DDJ      0.154500
     26 HAP         7.6400    1.0900   -5.7230 h1        1 DDJ      0.076000
     27 HAPA        6.9130   -0.0500   -6.9710 h1        1 DDJ      0.076000
     28 HAPB        5.8220    0.9420   -5.8730 h1        1 DDJ      0.076000
     29 HAQ         3.4970    1.2440    2.6200 h1        1 DDJ      0.082667
     30 HAQA        3.9460   -0.5310    2.5360 h1        1 DDJ      0.082667
     31 HAQB        2.7280    0.0500    3.7900 h1        1 DDJ      0.082667
     32 HNAR        9.6910   -0.6660   -2.5960 hn        1 DDJ      0.232500
     33 HNAC        9.1460   -0.8340   -4.2030 hn        1 DDJ      0.232500
     34 OAB         6.8160   -0.7250   -5.0750 os        1 DDJ     -0.225000
@<TRIPOS>BOND
     1    1    6 1   
     2    1   18 1   
     3    1   19 1   
     4    2    5 1   
     5    2   16 1   
     6    3   10 1   
     7    3   11 1   
     8    3   20 1   
     9    4    5 1   
    10    4    7 1   
    11    4   22 1   
    12    5    6 1   
    13    6    9 1   
    14    7    8 1   
    15    7   11 1   
    16    7   21 1   
    17    8    9 1   
    18    8   23 1   
    19   10   12 1   
    20   10   34 1   
    21   11   14 1   
    22   12   13 1   
    23   12   17 1   
    24   13   14 1   
    25   13   24 1   
    26   13   25 1   
    27   15   26 1   
    28   15   27 1   
    29   15   28 1   
    30   15   34 1   
    31   16   29 1   
    32   16   30 1   
    33   16   31 1   
    34   17   32 1   
    35   17   33 1   
@<TRIPOS>SUBSTRUCTURE
     1 DDJ         1 TEMP              0 ****  ****    0 ROOT
