@<TRIPOS>MOLECULE
DDK
   29    28     1     0     0
SMALL
bcc


@<TRIPOS>ATOM
      1 OAB         0.0030   -1.1410   -0.3760 o         1 DDK     -0.823300
      2 CAK         0.9730   -0.3900   -0.0830 c         1 DDK      0.923600
      3 OAC         1.2830   -0.0170    1.0780 o         1 DDK     -0.823300
      4 CAL         1.8860    0.0810   -1.2700 c3        1 DDK     -0.200700
      5 CAF         2.6760    1.2910   -0.8590 c3        1 DDK      0.082700
      6 SED         4.0380    1.5660   -2.0040 sh        1 DDK     -0.520900
      7 CAJ         1.0390    0.3120   -2.5040 c3        1 DDK     -0.067400
      8 CAI         1.8080    0.0200   -3.7760 c3        1 DDK     -0.086400
      9 CAH         0.9040    0.1510   -4.9840 c3        1 DDK     -0.076400
     10 CAG         1.6300   -0.3220   -6.2300 c3        1 DDK     -0.113400
     11 CAE         0.6700   -0.2780   -7.4090 c3        1 DDK      0.098800
     12 NAA         1.2900   -0.8140   -8.6610 nz        1 DDK     -0.841600
     13 H2          2.5890   -0.7780   -1.4510 hc        1 DDK      0.052700
     14 H3          3.0790    1.1310    0.1720 h1        1 DDK      0.076200
     15 H4          2.0390    2.2050   -0.8510 h1        1 DDK      0.076200
     16 H5          4.8190    2.3040   -1.2350 hs        1 DDK      0.202800
     17 H6          0.1420   -0.3670   -2.4440 hc        1 DDK      0.055700
     18 H7          0.6620    1.3680   -2.5260 hc        1 DDK      0.055700
     19 H8          2.2210   -1.0230   -3.7280 hc        1 DDK      0.051700
     20 H9          2.6790    0.7240   -3.8670 hc        1 DDK      0.051700
     21 H10         0.5880    1.2200   -5.1080 hc        1 DDK      0.052700
     22 H11        -0.0220   -0.4630   -4.8250 hc        1 DDK      0.052700
     23 H12         2.0010   -1.3690   -6.0630 hc        1 DDK      0.067700
     24 H13         2.5190    0.3360   -6.4160 hc        1 DDK      0.067700
     25 H14         0.3500    0.7850   -7.6120 hx        1 DDK      0.110200
     26 H15        -0.2460   -0.8990   -7.1880 hx        1 DDK      0.110200
     27 H16         0.6250   -0.7720   -9.4360 hn        1 DDK      0.454800
     28 H17         1.5760   -1.7870   -8.5140 hn        1 DDK      0.454800
     29 HAA3        2.1220   -0.2650   -8.8990 hn        1 DDK      0.454800
@<TRIPOS>BOND
     1    1    2 1   
     2    2    3 1   
     3    2    4 1   
     4    4    5 1   
     5    4    7 1   
     6    4   13 1   
     7    5    6 1   
     8    5   14 1   
     9    5   15 1   
    10    6   16 1   
    11    7    8 1   
    12    7   17 1   
    13    7   18 1   
    14    8    9 1   
    15    8   19 1   
    16    8   20 1   
    17    9   10 1   
    18    9   21 1   
    19    9   22 1   
    20   10   11 1   
    21   10   23 1   
    22   10   24 1   
    23   11   12 1   
    24   11   25 1   
    25   11   26 1   
    26   12   27 1   
    27   12   28 1   
    28   12   29 1   
@<TRIPOS>SUBSTRUCTURE
     1 DDK         1 TEMP              0 ****  ****    0 ROOT
