@<TRIPOS>MOLECULE
DDK
   28    26     1     0     0
SMALL
bcc


@<TRIPOS>ATOM
      1 OAB        -2.6020    2.1750    2.2600 o         1 DDK     -0.571000
      2 CAK        -1.3430    2.1750    2.2600 c1        1 DDK      0.340000
      3 OAC        -0.7140    2.1750    3.3500 o         1 DDK     -0.571000
      4 CAL        -0.5870    2.1750    0.9500 c2        1 DDK     -0.194000
      5 CAF        -1.0090    3.3700    0.1240 c3        1 DDK     -0.182000
      6 SED        -0.9420    4.9480    1.2040 sh        1 DDK     -0.154000
      7 CAJ        -0.8930    0.9040    0.1900 c3        1 DDK     -0.136000
      8 CAI         0.3130   -0.0080    0.2250 c3        1 DDK     -0.168000
      9 CAH         0.0270   -1.2560   -0.5810 c3        1 DDK     -0.149000
     10 CAG         1.2150   -2.1890   -0.5070 c3        1 DDK     -0.197000
     11 CAE         0.9480   -3.4140   -1.3520 c3        1 DDK     -0.094000
     12 NAA         2.0470   -4.3170   -1.2420 n3        1 DDK     -0.339000
     13 H2          0.3720    2.2250    1.1270 ha        1 DDK      0.077000
     14 H3         -1.9210    3.2370   -0.2000 h1        1 DDK      0.115000
     15 H4         -0.4050    3.4710   -0.6370 h1        1 DDK      0.115000
     16 H5         -0.9490    6.0170    0.4250 hs        1 DDK      0.038000
     17 H6         -1.6540    0.4530    0.6040 hc        1 DDK      0.070000
     18 H7         -1.1090    1.1220   -0.7370 hc        1 DDK      0.070000
     19 H8          0.5080   -0.2560    1.1490 hc        1 DDK      0.097500
     20 H9          1.0830    0.4560   -0.1560 hc        1 DDK      0.097500
     21 H10        -0.1370   -1.0110   -1.5120 hc        1 DDK      0.071000
     22 H11        -0.7620   -1.7030   -0.2190 hc        1 DDK      0.071000
     23 H12         1.3600   -2.4580    0.4200 hc        1 DDK      0.078500
     24 H13         2.0100   -1.7310   -0.8400 hc        1 DDK      0.078500
     25 H14         0.8380   -3.1490   -2.2850 h1        1 DDK      0.086000
     26 H15         0.1340   -3.8540   -1.0410 h1        1 DDK      0.086000
     27 H16         1.7530   -5.1150   -0.9150 hn        1 DDK      0.131500
     28 H17         2.4190   -4.4440   -2.0650 hn        1 DDK      0.131500
@<TRIPOS>BOND
     1    1    2 1   
     2    2    3 1   
     3    4    5 1   
     4    4    7 1   
     5    4   13 1   
     6    5    6 1   
     7    5   14 1   
     8    5   15 1   
     9    6   16 1   
    10    7    8 1   
    11    7   17 1   
    12    7   18 1   
    13    8    9 1   
    14    8   19 1   
    15    8   20 1   
    16    9   10 1   
    17    9   21 1   
    18    9   22 1   
    19   10   11 1   
    20   10   23 1   
    21   10   24 1   
    22   11   12 1   
    23   11   25 1   
    24   11   26 1   
    25   12   27 1   
    26   12   28 1   
@<TRIPOS>SUBSTRUCTURE
     1 DDK         1 TEMP              0 ****  ****    0 ROOT
