@<TRIPOS>MOLECULE
DDK
   29    28     1     0     0
SMALL
bcc


@<TRIPOS>ATOM
      1 OAB        -0.0610   -1.0230   -0.3660 o         1 DDK     -0.823300
      2 CAK         0.9460   -0.3190   -0.0790 c         1 DDK      0.923600
      3 OAC         1.2730    0.0480    1.0790 o         1 DDK     -0.823300
      4 CAL         1.8820    0.0920   -1.2690 c3        1 DDK     -0.200700
      5 CAF         2.7320    1.2650   -0.8700 c3        1 DDK      0.082700
      6 SED         4.1080    1.4590   -2.0150 sh        1 DDK     -0.520900
      7 CAJ         1.0490    0.3540   -2.5070 c3        1 DDK     -0.067400
      8 CAI         1.8040    0.0110   -3.7750 c3        1 DDK     -0.086400
      9 CAH         0.9090    0.1760   -4.9860 c3        1 DDK     -0.076400
     10 CAG         1.6100   -0.3460   -6.2260 c3        1 DDK     -0.113400
     11 CAE         0.6550   -0.2640   -7.4070 c3        1 DDK      0.098800
     12 NAA         1.2480   -0.8430   -8.6530 n4        1 DDK     -0.841600
     13 H2          2.5410   -0.8030   -1.4410 hc        1 DDK      0.052700
     14 H3          2.1420    2.2100   -0.8720 h1        1 DDK      0.076200
     15 H4          3.1250    1.0940    0.1640 h1        1 DDK      0.076200
     16 H5          4.9240    2.1630   -1.2520 hs        1 DDK      0.202800
     17 H6          0.7270    1.4270   -2.5400 hc        1 DDK      0.055700
     18 H7          0.1190   -0.2780   -2.4420 hc        1 DDK      0.055700
     19 H8          2.1630   -1.0500   -3.7160 hc        1 DDK      0.051700
     20 H9          2.7100    0.6700   -3.8720 hc        1 DDK      0.051700
     21 H10        -0.0470   -0.3890   -4.8220 hc        1 DDK      0.052700
     22 H11         0.6470    1.2580   -5.1200 hc        1 DDK      0.052700
     23 H12         2.5320    0.2650   -6.4170 hc        1 DDK      0.067700
     24 H13         1.9280   -1.4080   -6.0480 hc        1 DDK      0.067700
     25 H14        -0.2910   -0.8360   -7.1810 hx        1 DDK      0.110200
     26 H15         0.3900    0.8120   -7.6200 hx        1 DDK      0.110200
     27 H16         0.5870   -0.7750   -9.4290 hn        1 DDK      0.454800
     28 H17         2.1070   -0.3390   -8.8940 hn        1 DDK      0.454800
     29 HAA3        1.4850   -1.8280   -8.4950 hn        1 DDK      0.454800
@<TRIPOS>BOND
     1    1    2 1   
     2    2    3 1   
     3    2    4 1   
     4    4    5 1   
     5    4    7 1   
     6    4   13 1   
     7    5    6 1   
     8    5   14 1   
     9    5   15 1   
    10    6   16 1   
    11    7    8 1   
    12    7   17 1   
    13    7   18 1   
    14    8    9 1   
    15    8   19 1   
    16    8   20 1   
    17    9   10 1   
    18    9   21 1   
    19    9   22 1   
    20   10   11 1   
    21   10   23 1   
    22   10   24 1   
    23   11   12 1   
    24   11   25 1   
    25   11   26 1   
    26   12   27 1   
    27   12   28 1   
    28   12   29 1   
@<TRIPOS>SUBSTRUCTURE
     1 DDK         1 TEMP              0 ****  ****    0 ROOT
