@<TRIPOS>MOLECULE
DDK
   28    27     1     0     0
SMALL
bcc


@<TRIPOS>ATOM
      1 OAB         2.8030   -1.4760   -0.0460 o         1 DDK     -0.843800
      2 CAK         1.6050   -1.5550   -0.4460 c         1 DDK      0.912600
      3 OAC         1.1610   -2.5130   -1.1370 o         1 DDK     -0.843800
      4 CAL         0.6330   -0.3910   -0.1030 c3        1 DDK     -0.197700
      5 CAF         1.1120    0.4130    1.0830 c3        1 DDK      0.083700
      6 SED         2.4190    1.5620    0.6900 sh        1 DDK     -0.543900
      7 CAJ        -0.7630   -0.9340    0.1470 c3        1 DDK     -0.067400
      8 CAI        -1.8430    0.0990   -0.1030 c3        1 DDK     -0.078400
      9 CAH        -3.2210   -0.4850    0.1250 c3        1 DDK     -0.078400
     10 CAG        -4.3050    0.5280   -0.1710 c3        1 DDK     -0.084400
     11 CAE        -5.6850   -0.0990    0.0210 c3        1 DDK      0.151800
     12 NAA        -6.7830    0.8030   -0.2440 n3        1 DDK     -0.915800
     13 H2          0.6110    0.2680   -1.0140 hc        1 DDK      0.050700
     14 H3          0.2940    1.0510    1.4970 h1        1 DDK      0.050200
     15 H4          1.4780   -0.2800    1.8770 h1        1 DDK      0.050200
     16 H5          3.2830    0.6770    0.1570 hs        1 DDK      0.302800
     17 H6         -0.9220   -1.8150   -0.5350 hc        1 DDK      0.051200
     18 H7         -0.8400   -1.3090    1.2010 hc        1 DDK      0.051200
     19 H8         -1.6950    0.9830    0.5720 hc        1 DDK      0.031700
     20 H9         -1.7640    0.4730   -1.1580 hc        1 DDK      0.031700
     21 H10        -3.3560   -1.3860   -0.5310 hc        1 DDK      0.037700
     22 H11        -3.3110   -0.8340    1.1870 hc        1 DDK      0.037700
     23 H12        -4.1910    1.4140    0.5070 hc        1 DDK      0.041700
     24 H13        -4.1950    0.8980   -1.2240 hc        1 DDK      0.041700
     25 H14        -5.7350   -1.0290   -0.6210 h1        1 DDK      0.024700
     26 H15        -5.7860   -0.4350    1.0920 h1        1 DDK      0.024700
     27 H16        -6.5910    1.3770   -1.0410 hn        1 DDK      0.339800
     28 H17        -7.6210    0.2840   -0.4150 hn        1 DDK      0.339800
@<TRIPOS>BOND
     1    1    2 1   
     2    2    3 1   
     3    2    4 1   
     4    4    5 1   
     5    4    7 1   
     6    4   13 1   
     7    5    6 1   
     8    5   14 1   
     9    5   15 1   
    10    6   16 1   
    11    7    8 1   
    12    7   17 1   
    13    7   18 1   
    14    8    9 1   
    15    8   19 1   
    16    8   20 1   
    17    9   10 1   
    18    9   21 1   
    19    9   22 1   
    20   10   11 1   
    21   10   23 1   
    22   10   24 1   
    23   11   12 1   
    24   11   25 1   
    25   11   26 1   
    26   12   27 1   
    27   12   28 1   
@<TRIPOS>SUBSTRUCTURE
     1 DDK         1 TEMP              0 ****  ****    0 ROOT
