@<TRIPOS>MOLECULE
DDK
   29    28     1     0     0
SMALL
bcc


@<TRIPOS>ATOM
      1 OAB         1.6070    0.5070    1.1440 o         1 DDK     -0.821300
      2 CAK         1.1810   -0.0520    0.1000 c         1 DDK      0.921600
      3 OAC         0.2390   -0.8880    0.0530 o         1 DDK     -0.821300
      4 CAL         1.9140    0.2840   -1.2460 c3        1 DDK     -0.208700
      5 CAF         2.4250    1.6970   -1.2160 c3        1 DDK      0.073700
      6 SED         3.8400    2.0160   -2.2810 sh        1 DDK     -0.531900
      7 CAJ         0.9930    0.0130   -2.4180 c3        1 DDK     -0.063400
      8 CAI         1.7690   -0.2390   -3.6940 c3        1 DDK     -0.100400
      9 CAH         0.8410   -0.2680   -4.8900 c3        1 DDK     -0.073400
     10 CAG         1.6470   -0.4330   -6.1650 c3        1 DDK     -0.114400
     11 CAE         0.7060   -0.3820   -7.3580 c3        1 DDK      0.098800
     12 NAA         1.4380   -0.4820   -8.6590 n4        1 DDK     -0.841600
     13 H2          2.7830   -0.4280   -1.2850 hc        1 DDK      0.041700
     14 H3          2.7030    1.9640   -0.1630 h1        1 DDK      0.086700
     15 H4          1.6570    2.4220   -1.5780 h1        1 DDK      0.086700
     16 H5          4.7650    1.3370   -1.6230 hs        1 DDK      0.223800
     17 H6          0.3590   -0.8830   -2.1700 hc        1 DDK      0.055700
     18 H7          0.2970    0.8800   -2.5600 hc        1 DDK      0.055700
     19 H8          2.3130   -1.2160   -3.6160 hc        1 DDK      0.053700
     20 H9          2.5430    0.5690   -3.8200 hc        1 DDK      0.053700
     21 H10         0.2540    0.6870   -4.9330 hc        1 DDK      0.051200
     22 H11         0.1110   -1.1120   -4.7840 hc        1 DDK      0.051200
     23 H12         2.1940   -1.4130   -6.1350 hc        1 DDK      0.068200
     24 H13         2.4090    0.3890   -6.2250 hc        1 DDK      0.068200
     25 H14         0.1350    0.5920   -7.3610 hx        1 DDK      0.110200
     26 H15        -0.0300   -1.2360   -7.3110 hx        1 DDK      0.110200
     27 H16         0.7830   -0.4410   -9.4430 hn        1 DDK      0.454800
     28 H17         1.9580   -1.3640   -8.6970 hn        1 DDK      0.454800
     29 HAA3        2.1080    0.2910   -8.7370 hn        1 DDK      0.454800
@<TRIPOS>BOND
     1    1    2 1   
     2    2    3 1   
     3    2    4 1   
     4    4    5 1   
     5    4    7 1   
     6    4   13 1   
     7    5    6 1   
     8    5   14 1   
     9    5   15 1   
    10    6   16 1   
    11    7    8 1   
    12    7   17 1   
    13    7   18 1   
    14    8    9 1   
    15    8   19 1   
    16    8   20 1   
    17    9   10 1   
    18    9   21 1   
    19    9   22 1   
    20   10   11 1   
    21   10   23 1   
    22   10   24 1   
    23   11   12 1   
    24   11   25 1   
    25   11   26 1   
    26   12   27 1   
    27   12   28 1   
    28   12   29 1   
@<TRIPOS>SUBSTRUCTURE
     1 DDK         1 TEMP              0 ****  ****    0 ROOT
