@<TRIPOS>MOLECULE
DDL
   22    22     1     0     0
SMALL
bcc


@<TRIPOS>ATOM
      1 C1         -0.6280   -0.4760    1.4840 c3        1 DDL      0.348900
      2 C2         -1.4870   -0.0050    0.3110 c3        1 DDL     -0.174400
      3 C3         -0.9550   -0.5970   -0.9850 c3        1 DDL      0.105100
      4 C4          0.5380   -0.2580   -1.1550 c3        1 DDL      0.119100
      5 C5          1.3120   -0.6880    0.1030 c3        1 DDL      0.161100
      6 C6          2.7510   -0.2110    0.0640 c3        1 DDL     -0.088100
      7 O1         -0.9350    0.1990    2.6740 oh        1 DDL     -0.590800
      8 O5          0.7450   -0.1510    1.2980 os        1 DDL     -0.443600
      9 O3         -1.6090   -0.0510   -2.1220 oh        1 DDL     -0.607800
     10 O4          0.7320    1.1310   -1.3510 oh        1 DDL     -0.588800
     11 H1         -0.7610   -1.5740    1.6910 h2        1 DDL      0.068700
     12 H21        -2.5480   -0.3130    0.4840 hc        1 DDL      0.069700
     13 H22        -1.4490    1.1140    0.2460 hc        1 DDL      0.069700
     14 H3         -1.0880   -1.7150   -0.9870 h1        1 DDL      0.044700
     15 H4          0.9430   -0.8160   -2.0460 h1        1 DDL      0.051700
     16 H5          1.2660   -1.8140    0.1630 h1        1 DDL      0.036700
     17 H61         3.2750   -0.5040    1.0040 hc        1 DDL      0.053700
     18 H62         3.2670   -0.6720   -0.8110 hc        1 DDL      0.053700
     19 H63         2.7810    0.9010   -0.0360 hc        1 DDL      0.053700
     20 HO1        -0.5300    1.0770    2.6310 ho        1 DDL      0.426000
     21 HO3        -2.5570   -0.0700   -1.9420 ho        1 DDL      0.412000
     22 HO4         0.1270    1.3960   -2.0580 ho        1 DDL      0.420000
@<TRIPOS>BOND
     1    1    2 1   
     2    1    7 1   
     3    1    8 1   
     4    1   11 1   
     5    2    3 1   
     6    2   12 1   
     7    2   13 1   
     8    3    4 1   
     9    3    9 1   
    10    3   14 1   
    11    4    5 1   
    12    4   10 1   
    13    4   15 1   
    14    5    6 1   
    15    5    8 1   
    16    5   16 1   
    17    6   17 1   
    18    6   18 1   
    19    6   19 1   
    20    7   20 1   
    21    9   21 1   
    22   10   22 1   
@<TRIPOS>SUBSTRUCTURE
     1 DDL         1 TEMP              0 ****  ****    0 ROOT
