@<TRIPOS>MOLECULE
DDL
   22    22     1     0     0
SMALL
bcc


@<TRIPOS>ATOM
      1 C1         -0.8650   -0.7940   -1.3600 c3        1 DDL      0.348900
      2 C2          0.6410   -0.7940   -1.3600 c3        1 DDL     -0.174400
      3 C3          1.2020   -0.7940    0.0060 c3        1 DDL      0.105100
      4 C4          0.6260    0.2940    0.8550 c3        1 DDL      0.119100
      5 C5         -0.8880    0.2910    0.8440 c3        1 DDL      0.161100
      6 C6         -1.3820    1.5140    1.5660 c3        1 DDL     -0.088100
      7 O1         -1.3130   -0.6230   -2.6570 oh        1 DDL     -0.590800
      8 O5         -1.4360    0.2860   -0.5060 os        1 DDL     -0.443600
      9 O3          2.6420   -0.6110   -0.0790 oh        1 DDL     -0.607800
     10 O4          1.0900    1.5590    0.3660 oh        1 DDL     -0.588800
     11 H1         -1.1800   -1.6560   -1.0290 h2        1 DDL      0.068700
     12 H21         0.9570    0.0000   -1.8310 hc        1 DDL      0.069700
     13 H22         0.9570   -1.5880   -1.8310 hc        1 DDL      0.069700
     14 H3          1.0160   -1.6560    0.4250 h1        1 DDL      0.044700
     15 H4          0.9360    0.1760    1.7730 h1        1 DDL      0.051700
     16 H5         -1.2050   -0.5030    1.3160 h1        1 DDL      0.036700
     17 H61        -0.9190    1.5960    2.4210 hc        1 DDL      0.053700
     18 H62        -2.3420    1.4350    1.7210 hc        1 DDL      0.053700
     19 H63        -1.2040    2.3060    1.0230 hc        1 DDL      0.053700
     20 HO1        -2.1420   -0.9320   -2.7270 ho        1 DDL      0.426000
     21 HO3         3.0510   -1.3520    0.1880 ho        1 DDL      0.412000
     22 HO4         1.7580    1.8460    0.8750 ho        1 DDL      0.420000
@<TRIPOS>BOND
     1    1    2 1   
     2    1    7 1   
     3    1    8 1   
     4    1   11 1   
     5    2    3 1   
     6    2   12 1   
     7    2   13 1   
     8    3    4 1   
     9    3    9 1   
    10    3   14 1   
    11    4    5 1   
    12    4   10 1   
    13    4   15 1   
    14    5    6 1   
    15    5    8 1   
    16    5   16 1   
    17    6   17 1   
    18    6   18 1   
    19    6   19 1   
    20    7   20 1   
    21    9   21 1   
    22   10   22 1   
@<TRIPOS>SUBSTRUCTURE
     1 DDL         1 TEMP              0 ****  ****    0 ROOT
