@<TRIPOS>MOLECULE
DDM
   24    24     1     0     0
SMALL
bcc


@<TRIPOS>ATOM
      1 C2         -1.1480    0.4470   -1.4570 c3        1 DDM      0.116100
      2 C3          0.3370    0.4470   -1.4570 c3        1 DDM      0.072100
      3 C1         -1.7270   -0.6600   -0.5830 c3        1 DDM      0.131800
      4 C4          0.9000    0.4470   -0.0780 c3        1 DDM      0.115100
      5 C5          0.3120   -0.6580    0.7880 c3        1 DDM      0.173500
      6 C6          0.7880   -0.4760    2.1940 c3        1 DDM      0.131400
      7 O2         -1.6120    1.7140   -0.9680 oh        1 DDM     -0.602800
      8 O3          0.8060    1.6310   -2.1560 oh        1 DDM     -0.601800
      9 O4          2.3200    0.2680   -0.1580 oh        1 DDM     -0.602800
     10 N5         -1.1610   -0.6590    0.7800 n3        1 DDM     -0.833200
     11 O6          0.7430   -1.7130    2.8700 oh        1 DDM     -0.612800
     12 HC2        -1.4650    0.3260   -2.3720 h1        1 DDM      0.088700
     13 HC3         0.6540   -0.3460   -1.9280 h1        1 DDM      0.088700
     14 HC11       -1.5410   -1.5220   -1.0020 h1        1 DDM      0.047700
     15 HC12       -2.6940   -0.5400   -0.5230 h1        1 DDM      0.047700
     16 HC4         0.7140    1.3090    0.3400 h1        1 DDM      0.045700
     17 HC5         0.6290   -1.5200    0.4570 h1        1 DDM      0.049700
     18 HC61        0.2130    0.1660    2.6520 h1        1 DDM      0.044200
     19 HC62        1.7060   -0.1430    2.1870 h1        1 DDM      0.044200
     20 HO2        -2.2390    2.0290   -1.5120 ho        1 DDM      0.418000
     21 HO3         1.1640    1.3930   -2.9330 ho        1 DDM      0.420000
     22 HO4         2.7230    1.0550   -0.0790 ho        1 DDM      0.422000
     23 HN5        -1.4670   -1.3860    1.2370 hn        1 DDM      0.392800
     24 HO6         1.0450   -1.6090    3.6990 ho        1 DDM      0.406000
@<TRIPOS>BOND
     1    1    2 1   
     2    1    3 1   
     3    1    7 1   
     4    1   12 1   
     5    2    4 1   
     6    2    8 1   
     7    2   13 1   
     8    3   10 1   
     9    3   14 1   
    10    3   15 1   
    11    4    5 1   
    12    4    9 1   
    13    4   16 1   
    14    5    6 1   
    15    5   10 1   
    16    5   17 1   
    17    6   11 1   
    18    6   18 1   
    19    6   19 1   
    20    7   20 1   
    21    8   21 1   
    22    9   22 1   
    23   10   23 1   
    24   11   24 1   
@<TRIPOS>SUBSTRUCTURE
     1 DDM         1 TEMP              0 ****  ****    0 ROOT
