@<TRIPOS>MOLECULE
DDM
   24    24     1     0     0
SMALL
bcc


@<TRIPOS>ATOM
      1 C2         -1.0300   -0.5080   -1.6650 c3        1 DDM      0.116100
      2 C3          0.4780   -0.6150   -1.3970 c3        1 DDM      0.072100
      3 C1         -1.8300   -0.8500   -0.3980 c3        1 DDM      0.131800
      4 C4          0.8840    0.1780   -0.1420 c3        1 DDM      0.115100
      5 C5          0.0140   -0.2540    1.0610 c3        1 DDM      0.173500
      6 C6          0.4300    0.5650    2.2960 c3        1 DDM      0.131400
      7 O2         -1.3450    0.7730   -2.1790 oh        1 DDM     -0.602800
      8 O3          1.2390   -0.1620   -2.5010 oh        1 DDM     -0.601800
      9 O4          2.2330   -0.0920    0.2030 oh        1 DDM     -0.602800
     10 N5         -1.4010   -0.0780    0.7480 n3        1 DDM     -0.833200
     11 O6         -0.2480    0.0030    3.4090 oh        1 DDM     -0.612800
     12 HC2        -1.3160   -1.2130   -2.4960 h1        1 DDM      0.088700
     13 HC3         0.7720   -1.6950   -1.2690 h1        1 DDM      0.088700
     14 HC11       -1.7440   -1.9640   -0.2340 h1        1 DDM      0.047700
     15 HC12       -2.9140   -0.6050   -0.5840 h1        1 DDM      0.047700
     16 HC4         0.7710    1.2820   -0.3370 h1        1 DDM      0.045700
     17 HC5         0.2580   -1.3390    1.2830 h1        1 DDM      0.049700
     18 HC61        0.1510    1.6450    2.1810 h1        1 DDM      0.044200
     19 HC62        1.5420    0.4730    2.4270 h1        1 DDM      0.044200
     20 HO2        -1.3350    1.3990   -1.4430 ho        1 DDM      0.418000
     21 HO3         0.8010    0.6270   -2.8520 ho        1 DDM      0.420000
     22 HO4         2.7370   -0.0660   -0.6230 ho        1 DDM      0.422000
     23 HN5        -1.9530   -0.2900    1.5590 hn        1 DDM      0.392800
     24 HO6         0.0600    0.4800    4.1880 ho        1 DDM      0.406000
@<TRIPOS>BOND
     1    1    2 1   
     2    1    3 1   
     3    1    7 1   
     4    1   12 1   
     5    2    4 1   
     6    2    8 1   
     7    2   13 1   
     8    3   10 1   
     9    3   14 1   
    10    3   15 1   
    11    4    5 1   
    12    4    9 1   
    13    4   16 1   
    14    5    6 1   
    15    5   10 1   
    16    5   17 1   
    17    6   11 1   
    18    6   18 1   
    19    6   19 1   
    20    7   20 1   
    21    8   21 1   
    22    9   22 1   
    23   10   23 1   
    24   11   24 1   
@<TRIPOS>SUBSTRUCTURE
     1 DDM         1 TEMP              0 ****  ****    0 ROOT
