@<TRIPOS>MOLECULE
DDM
   24    24     1     0     0
SMALL
bcc


@<TRIPOS>ATOM
      1 C2          0.1710   -0.1130   -0.2290 c3        1 DDM      0.116100
      2 C3          1.6900   -0.0540   -0.0150 c3        1 DDM      0.072100
      3 C1         -0.4520   -1.2360    0.6150 c3        1 DDM      0.131800
      4 C4          2.0460   -0.0110    1.4820 c3        1 DDM      0.115100
      5 C5          1.3650   -1.1870    2.2220 c3        1 DDM      0.173500
      6 C6          1.7240   -1.1100    3.7160 c3        1 DDM      0.131400
      7 O2         -0.4080    1.1520    0.0340 oh        1 DDM     -0.602800
      8 O3          2.2680    1.0630   -0.6630 oh        1 DDM     -0.601800
      9 O4          3.4440   -0.1590    1.6660 oh        1 DDM     -0.602800
     10 N5         -0.0790   -1.1470    2.0100 n3        1 DDM     -0.833200
     11 O6          1.2480   -2.3050    4.3160 oh        1 DDM     -0.612800
     12 HC2        -0.0490   -0.2920   -1.3200 h1        1 DDM      0.088700
     13 HC3         2.1820   -0.9490   -0.4910 h1        1 DDM      0.088700
     14 HC11       -1.5730   -1.1440    0.5590 h1        1 DDM      0.047700
     15 HC12       -0.1550   -2.2180    0.1440 h1        1 DDM      0.047700
     16 HC4         1.7220    0.9740    1.9220 h1        1 DDM      0.045700
     17 HC5         1.8170   -2.1460    1.8200 h1        1 DDM      0.049700
     18 HC61        2.8410   -1.0410    3.8120 h1        1 DDM      0.044200
     19 HC62        1.2480   -0.2190    4.2040 h1        1 DDM      0.044200
     20 HO2        -0.4530    1.2650    0.9930 ho        1 DDM      0.418000
     21 HO3         1.6690    1.8140   -0.5380 ho        1 DDM      0.420000
     22 HO4         3.8680    0.4100    1.0080 ho        1 DDM      0.422000
     23 HN5        -0.5180   -1.8670    2.5530 hn        1 DDM      0.392800
     24 HO6         1.5270   -2.2800    5.2380 ho        1 DDM      0.406000
@<TRIPOS>BOND
     1    1    2 1   
     2    1    3 1   
     3    1    7 1   
     4    1   12 1   
     5    2    4 1   
     6    2    8 1   
     7    2   13 1   
     8    3   10 1   
     9    3   14 1   
    10    3   15 1   
    11    4    5 1   
    12    4    9 1   
    13    4   16 1   
    14    5    6 1   
    15    5   10 1   
    16    5   17 1   
    17    6   11 1   
    18    6   18 1   
    19    6   19 1   
    20    7   20 1   
    21    8   21 1   
    22    9   22 1   
    23   10   23 1   
    24   11   24 1   
@<TRIPOS>SUBSTRUCTURE
     1 DDM         1 TEMP              0 ****  ****    0 ROOT
