@<TRIPOS>MOLECULE
DDM
   24    24     1     0     0
SMALL
bcc


@<TRIPOS>ATOM
      1 C2          0.1170   -0.1170   -0.1990 c3        1 DDM      0.116100
      2 C3          1.6440   -0.0730   -0.0380 c3        1 DDM      0.072100
      3 C1         -0.4870   -1.2270    0.6770 c3        1 DDM      0.131800
      4 C4          2.0510   -0.0210    1.4460 c3        1 DDM      0.115100
      5 C5          1.3850   -1.1830    2.2190 c3        1 DDM      0.173500
      6 C6          1.7960   -1.0960    3.6990 c3        1 DDM      0.131400
      7 O2         -0.4390    1.1550    0.0730 oh        1 DDM     -0.602800
      8 O3          2.2100    1.0330   -0.7160 oh        1 DDM     -0.601800
      9 O4          3.4540   -0.1810    1.5830 oh        1 DDM     -0.602800
     10 N5         -0.0650   -1.1290    2.0570 n3        1 DDM     -0.833200
     11 O6          1.3290   -2.2810    4.3260 oh        1 DDM     -0.612800
     12 HC2        -0.1410   -0.3030   -1.2800 h1        1 DDM      0.088700
     13 HC3         2.1100   -0.9770   -0.5220 h1        1 DDM      0.088700
     14 HC11       -0.2160   -2.2160    0.2040 h1        1 DDM      0.047700
     15 HC12       -1.6090   -1.1240    0.6580 h1        1 DDM      0.047700
     16 HC4         1.7520    0.9720    1.8870 h1        1 DDM      0.045700
     17 HC5         1.8120   -2.1500    1.8100 h1        1 DDM      0.049700
     18 HC61        1.3460   -0.1960    4.1950 h1        1 DDM      0.044200
     19 HC62        2.9160   -1.0380    3.7560 h1        1 DDM      0.044200
     20 HO2        -0.4490    1.2770    1.0310 ho        1 DDM      0.418000
     21 HO3         1.6240    1.7910   -0.5760 ho        1 DDM      0.420000
     22 HO4         3.8610    0.3770    0.9050 ho        1 DDM      0.422000
     23 HN5        -0.4920   -1.8400    2.6210 hn        1 DDM      0.392800
     24 HO6         1.6390   -2.2510    5.2370 ho        1 DDM      0.406000
@<TRIPOS>BOND
     1    1    2 1   
     2    1    3 1   
     3    1    7 1   
     4    1   12 1   
     5    2    4 1   
     6    2    8 1   
     7    2   13 1   
     8    3   10 1   
     9    3   14 1   
    10    3   15 1   
    11    4    5 1   
    12    4    9 1   
    13    4   16 1   
    14    5    6 1   
    15    5   10 1   
    16    5   17 1   
    17    6   11 1   
    18    6   18 1   
    19    6   19 1   
    20    7   20 1   
    21    8   21 1   
    22    9   22 1   
    23   10   23 1   
    24   11   24 1   
@<TRIPOS>SUBSTRUCTURE
     1 DDM         1 TEMP              0 ****  ****    0 ROOT
