@<TRIPOS>MOLECULE
DDM
   24    24     1     0     0
SMALL
bcc


@<TRIPOS>ATOM
      1 C2         -0.1520   -0.1080   -0.0510 c3        1 DDM      0.152100
      2 C3          1.3820   -0.0410   -0.0800 c3        1 DDM      0.112100
      3 C1         -0.6280   -1.2240    0.8960 c3        1 DDM      0.169800
      4 C4          1.9540    0.0350    1.3460 c3        1 DDM      0.106100
      5 C5          1.4550   -1.1800    2.1630 c3        1 DDM      0.150500
      6 C6          2.0330   -1.1170    3.5910 c3        1 DDM      0.128400
      7 O2         -0.7320    1.1080    0.3830 oh        1 DDM     -0.588800
      8 O3          1.7260    1.1200   -0.8190 oh        1 DDM     -0.612800
      9 O4          3.3650    0.0040    1.1850 oh        1 DDM     -0.609800
     10 N5         -0.0020   -1.2020    2.1970 n7        1 DDM     -0.815200
     11 O6          1.7000   -2.3400    4.2260 oh        1 DDM     -0.603800
     12 HC2        -0.5200   -0.3340   -1.0930 h1        1 DDM      0.046700
     13 HC3         1.7950   -0.9510   -0.5970 h1        1 DDM      0.055700
     14 HC11       -1.7350   -1.0880    1.0630 h1        1 DDM      0.044700
     15 HC12       -0.4650   -2.2010    0.3520 h1        1 DDM      0.044700
     16 HC4         1.6350    0.9980    1.8320 h1        1 DDM      0.070700
     17 HC5         1.8800   -2.1120    1.6750 h1        1 DDM      0.043700
     18 HC61        1.6140   -0.2440    4.1570 h1        1 DDM      0.031200
     19 HC62        3.1520   -1.0260    3.5360 h1        1 DDM      0.031200
     20 HO2        -0.3000    1.8160   -0.1150 ho        1 DDM      0.418000
     21 HO3         2.6840    1.2210   -0.7440 ho        1 DDM      0.426000
     22 HO4         3.7550    0.2570    2.0290 ho        1 DDM      0.408000
     23 HN5        -0.3110   -1.9760    2.7560 hn        1 DDM      0.384800
     24 HO6         1.8560   -2.2150    5.1690 ho        1 DDM      0.406000
@<TRIPOS>BOND
     1    1    2 1   
     2    1    3 1   
     3    1    7 1   
     4    1   12 1   
     5    2    4 1   
     6    2    8 1   
     7    2   13 1   
     8    3   10 1   
     9    3   14 1   
    10    3   15 1   
    11    4    5 1   
    12    4    9 1   
    13    4   16 1   
    14    5    6 1   
    15    5   10 1   
    16    5   17 1   
    17    6   11 1   
    18    6   18 1   
    19    6   19 1   
    20    7   20 1   
    21    8   21 1   
    22    9   22 1   
    23   10   23 1   
    24   11   24 1   
@<TRIPOS>SUBSTRUCTURE
     1 DDM         1 TEMP              0 ****  ****    0 ROOT
