@<TRIPOS>MOLECULE
DDN
   33    34     1     0     0
SMALL
bcc


@<TRIPOS>ATOM
      1 OP3        -2.7590   -1.8720    0.6320 o         1 DDN     -0.931167
      2 P          -3.4120   -0.5310    0.8170 p5        1 DDN      1.330900
      3 OP1        -4.7110   -0.4730    1.5590 o         1 DDN     -0.931167
      4 OP2        -3.2530    0.3960   -0.3710 o         1 DDN     -0.931167
      5 O5'        -2.2870    0.2590    1.8920 os        1 DDN     -0.557200
      6 C5'        -0.9890    0.2050    1.4660 c3        1 DDN      0.226400
      7 C4'        -0.5420    1.5690    0.8890 c3        1 DDN      0.053100
      8 O4'         0.8710    1.7740    1.1530 os        1 DDN     -0.441600
      9 C3'        -0.7600    1.7110   -0.6320 c3        1 DDN      0.152100
     10 O3'        -1.7660    2.6530   -0.9210 oh        1 DDN     -0.670800
     11 C2'         0.5770    2.2310   -1.1810 c3        1 DDN     -0.128400
     12 C1'         1.5960    1.9850   -0.0510 c3        1 DDN      0.302500
     13 N1          2.4900    0.8410   -0.3190 n         1 DDN     -0.382000
     14 C2          3.8830    1.0220   -0.2620 c         1 DDN      0.798500
     15 O2          4.4180    2.1600   -0.3100 o         1 DDN     -0.704500
     16 N3          4.7320   -0.1010   -0.1360 n         1 DDN     -0.570900
     17 C4          4.2420   -1.4540   -0.3460 c3        1 DDN      0.342700
     18 O4          4.7880   -2.0320   -1.5440 oh        1 DDN     -0.618800
     19 C5          2.7520   -1.5510   -0.4410 c2        1 DDN     -0.321200
     20 C6          1.9710   -0.4510   -0.3690 c2        1 DDN      0.051600
     21 H5'        -0.8540   -0.6050    0.6920 h1        1 DDN     -0.002300
     22 H5''       -0.3090   -0.0140    2.3420 h1        1 DDN     -0.002300
     23 H4'        -1.0690    2.3950    1.4370 h1        1 DDN      0.073700
     24 H3'        -1.0330    0.7190   -1.0890 h1        1 DDN      0.099700
     25 H1         -2.6150    2.1720   -0.7770 ho        1 DDN      0.499000
     26 H2'         0.8480    1.7170   -2.1320 hc        1 DDN      0.051200
     27 H2''        0.5140    3.3290   -1.3800 hc        1 DDN      0.051200
     28 H1'         2.2610    2.8800    0.1290 h2        1 DDN      0.081700
     29 HN3         5.6700    0.0740   -0.4180 hn        1 DDN      0.292500
     30 H4          4.6120   -2.0660    0.5380 h2        1 DDN      0.034700
     31 HO4         5.7040   -2.2680   -1.3600 ho        1 DDN      0.376000
     32 H5          2.3350   -2.5550   -0.5620 ha        1 DDN      0.162000
     33 H6          0.8570   -0.5010   -0.3490 h4        1 DDN      0.215000
@<TRIPOS>BOND
     1    1    2 1   
     2    2    3 1   
     3    2    4 1   
     4    2    5 1   
     5    5    6 1   
     6    6    7 1   
     7    6   21 1   
     8    6   22 1   
     9    7    8 1   
    10    7    9 1   
    11    7   23 1   
    12    8   12 1   
    13    9   10 1   
    14    9   11 1   
    15    9   24 1   
    16   10   25 1   
    17   11   12 1   
    18   11   26 1   
    19   11   27 1   
    20   12   13 1   
    21   12   28 1   
    22   13   14 1   
    23   13   20 1   
    24   14   15 2   
    25   14   16 1   
    26   16   17 1   
    27   16   29 1   
    28   17   18 1   
    29   17   19 1   
    30   17   30 1   
    31   18   31 1   
    32   19   20 2   
    33   19   32 1   
    34   20   33 1   
@<TRIPOS>SUBSTRUCTURE
     1 DDN         1 TEMP              0 ****  ****    0 ROOT
