@<TRIPOS>MOLECULE
DDN
   33    33     1     0     0
SMALL
bcc


@<TRIPOS>ATOM
      1 OP3        -5.8710   -2.1570    0.2700 o         1 DDN     -0.927500
      2 P          -4.3880   -2.1250    0.5690 p4        1 DDN      1.693200
      3 OP1        -4.1750   -2.1470    2.0610 os        1 DDN     -1.240000
      4 OP2        -3.7240   -3.3290   -0.0520 o         1 DDN     -0.976300
      5 O5'        -3.7530   -0.7950   -0.0390 os        1 DDN     -0.576200
      6 C5'        -2.3400   -0.6000    0.0720 c3        1 DDN      0.208400
      7 C4'        -2.0170    0.8970   -0.0740 c3        1 DDN      0.064100
      8 O4'        -0.7520    1.2720    0.7920 os        1 DDN     -0.442600
      9 C3'        -1.6900    1.1650   -1.2810 c3        1 DDN      0.122100
     10 O3'        -2.0890    2.5290   -1.6170 oh        1 DDN     -0.664800
     11 C2'        -0.0650    1.0240   -1.3530 c3        1 DDN     -0.117400
     12 C1'         0.3910    1.4890   -0.2210 c3        1 DDN      0.309500
     13 N1          1.5630    0.7560    0.1830 n         1 DDN     -0.387000
     14 C2          2.7890    0.7950   -0.6540 c         1 DDN      0.787500
     15 O2          2.7000    0.9460   -1.8560 o         1 DDN     -0.718500
     16 N3          3.9770    0.3150   -0.0960 n         1 DDN     -0.566900
     17 C4          3.8690   -0.7490    0.9130 c3        1 DDN      0.343700
     18 O4          3.5020   -2.0420    0.2650 oh        1 DDN     -0.654800
     19 C5          2.9680   -0.4180    1.9770 c2        1 DDN     -0.388200
     20 C6          1.6850    0.2490    1.5890 c2        1 DDN      0.057600
     21 H5'        -2.0350   -0.9160    0.9460 h1        1 DDN      0.012200
     22 H5''       -1.8840   -1.1040   -0.6360 h1        1 DDN      0.012200
     23 H4'        -2.7840    1.4380    0.1970 h1        1 DDN      0.035700
     24 H3'        -2.1100    0.5310   -1.8920 h1        1 DDN      0.149700
     25 H1         -2.5500    2.5240   -2.3770 ho        1 DDN      0.483000
     26 H2'         0.1870    0.0840   -1.4580 hc        1 DDN      0.048200
     27 H2''        0.2850    1.5520   -2.0990 hc        1 DDN      0.048200
     28 H1'         0.5960    2.4400   -0.3030 h2        1 DDN      0.075700
     29 HN3         4.7380    0.3480   -0.6040 hn        1 DDN      0.299500
     30 H4          4.7520   -0.9700    1.2800 h2        1 DDN      0.063700
     31 HO4         4.1540   -2.6340    0.3920 ho        1 DDN      0.410000
     32 H5          3.0410   -0.8710    2.8360 ha        1 DDN      0.167000
     33 H6          1.0320    0.5010    2.2670 h4        1 DDN      0.270000
@<TRIPOS>BOND
     1    1    2 1   
     2    2    4 2   
     3    2    5 1   
     4    5    6 1   
     5    6    7 1   
     6    6   21 1   
     7    6   22 1   
     8    7    8 1   
     9    7    9 1   
    10    7   23 1   
    11    8   12 1   
    12    9   10 1   
    13    9   11 1   
    14    9   24 1   
    15   10   25 1   
    16   11   12 1   
    17   11   26 1   
    18   11   27 1   
    19   12   13 1   
    20   12   28 1   
    21   13   14 1   
    22   13   20 1   
    23   14   15 2   
    24   14   16 1   
    25   16   17 1   
    26   16   29 1   
    27   17   18 1   
    28   17   19 1   
    29   17   30 1   
    30   18   31 1   
    31   19   20 2   
    32   19   32 1   
    33   20   33 1   
@<TRIPOS>SUBSTRUCTURE
     1 DDN         1 TEMP              0 ****  ****    0 ROOT
