@<TRIPOS>MOLECULE
DDO
   22    21     1     0     0
SMALL
bcc


@<TRIPOS>ATOM
      1 N           1.8590    0.1570   -1.4950 n3        1 DDO     -0.892800
      2 CA          0.4320    0.4310   -1.3780 c3        1 DDO      0.017500
      3 CB         -0.2130   -0.2220   -0.1550 c3        1 DDO     -0.062400
      4 CG          0.3120    0.3500    1.1440 c3        1 DDO     -0.076400
      5 CD         -0.3900   -0.2620    2.3380 c3        1 DDO     -0.082400
      6 CE          0.1410    0.3390    3.6270 c3        1 DDO      0.129400
      7 OZ         -0.5280   -0.2960    4.7100 oh        1 DDO     -0.607800
      8 C          -0.4060    0.0370   -2.6410 c         1 DDO      0.887600
      9 O           0.2050   -0.4630   -3.6290 o         1 DDO     -0.844800
     10 OXT        -1.6470    0.2620   -2.6100 o         1 DDO     -0.844800
     11 HN1         1.9990   -0.8360   -1.4200 hn        1 DDO      0.329800
     12 HN2         2.1330    0.4060   -2.4320 hn        1 DDO      0.329800
     13 HA1         0.3320    1.5510   -1.2720 h1        1 DDO      0.039700
     14 HB1        -1.3200   -0.0480   -0.2330 hc        1 DDO      0.047200
     15 HB2        -0.0450   -1.3300   -0.1740 hc        1 DDO      0.047200
     16 HG1         1.4150    0.1660    1.2240 hc        1 DDO      0.035200
     17 HG2         0.1610    1.4620    1.1500 hc        1 DDO      0.035200
     18 HD1        -1.4950   -0.0850    2.2720 hc        1 DDO      0.049700
     19 HD2        -0.2330   -1.3720    2.3540 hc        1 DDO      0.049700
     20 HE1         1.2480    0.1680    3.7170 h1        1 DDO      0.014700
     21 HE2        -0.0560    1.4440    3.6580 h1        1 DDO      0.014700
     22 HOZ        -0.1890    0.1110    5.5130 ho        1 DDO      0.384000
@<TRIPOS>BOND
     1    1    2 1   
     2    1   11 1   
     3    1   12 1   
     4    2    3 1   
     5    2    8 1   
     6    2   13 1   
     7    3    4 1   
     8    3   14 1   
     9    3   15 1   
    10    4    5 1   
    11    4   16 1   
    12    4   17 1   
    13    5    6 1   
    14    5   18 1   
    15    5   19 1   
    16    6    7 1   
    17    6   20 1   
    18    6   21 1   
    19    7   22 1   
    20    8    9 1   
    21    8   10 1   
@<TRIPOS>SUBSTRUCTURE
     1 DDO         1 TEMP              0 ****  ****    0 ROOT
