@<TRIPOS>MOLECULE
DDO
   22    21     1     0     0
SMALL
bcc


@<TRIPOS>ATOM
      1 N          -2.3540    0.8320   -1.5890 n3        1 DDO     -0.892800
      2 CA         -0.9320    0.8320   -1.5890 c3        1 DDO      0.017500
      3 CB         -0.4280    0.8320   -0.1640 c3        1 DDO     -0.062400
      4 CG          0.2520   -0.4870    0.1300 c3        1 DDO     -0.076400
      5 CD          0.7260   -0.5000    1.5670 c3        1 DDO     -0.082400
      6 CE          1.4220   -1.8120    1.8560 c3        1 DDO      0.129400
      7 OZ          1.8630   -1.8240    3.1950 oh        1 DDO     -0.607800
      8 C          -0.4280    2.0660   -2.3020 c         1 DDO      0.887600
      9 O          -0.7920    3.2080   -1.9170 o         1 DDO     -0.844800
     10 OXT         0.3560    1.9520   -3.2810 o         1 DDO     -0.844800
     11 HN1        -2.6580    1.3930   -2.2410 hn        1 DDO      0.329800
     12 HN2        -2.6580   -0.0130   -1.7490 hn        1 DDO      0.329800
     13 HA1        -0.6060    0.0350   -2.0500 h1        1 DDO      0.039700
     14 HB1         0.2110    1.5610   -0.0450 hc        1 DDO      0.047200
     15 HB2        -1.1790    0.9550    0.4460 hc        1 DDO      0.047200
     16 HG1        -0.3810   -1.2170   -0.0100 hc        1 DDO      0.035200
     17 HG2         1.0160   -0.5990   -0.4660 hc        1 DDO      0.035200
     18 HD1        -0.0400   -0.4000    2.1630 hc        1 DDO      0.049700
     19 HD2         1.3490    0.2380    1.7100 hc        1 DDO      0.049700
     20 HE1         2.1890   -1.9120    1.2600 h1        1 DDO      0.014700
     21 HE2         0.8000   -2.5490    1.7110 h1        1 DDO      0.014700
     22 HOZ         2.2720   -2.5940    3.3650 ho        1 DDO      0.384000
@<TRIPOS>BOND
     1    1    2 1   
     2    1   11 1   
     3    1   12 1   
     4    2    3 1   
     5    2    8 1   
     6    2   13 1   
     7    3    4 1   
     8    3   14 1   
     9    3   15 1   
    10    4    5 1   
    11    4   16 1   
    12    4   17 1   
    13    5    6 1   
    14    5   18 1   
    15    5   19 1   
    16    6    7 1   
    17    6   20 1   
    18    6   21 1   
    19    7   22 1   
    20    8    9 1   
    21    8   10 1   
@<TRIPOS>SUBSTRUCTURE
     1 DDO         1 TEMP              0 ****  ****    0 ROOT
