@<TRIPOS>MOLECULE
DDO
   23    22     1     0     0
SMALL
bcc


@<TRIPOS>ATOM
      1 N          -0.1400    0.2490   -0.0200 n4        1 DDO     -0.837600
      2 CA          1.3340   -0.0050    0.0410 c3        1 DDO     -0.073500
      3 CB          1.8730   -0.0520    1.4560 c3        1 DDO     -0.096400
      4 CG          1.4370   -1.2890    2.2100 c3        1 DDO     -0.086400
      5 CD          1.9940   -1.2870    3.6160 c3        1 DDO     -0.085400
      6 CE          1.6270   -2.5710    4.3400 c3        1 DDO      0.133400
      7 OZ          2.0430   -2.4190    5.6880 oh        1 DDO     -0.597800
      8 C           2.0950    1.1410   -0.7930 c         1 DDO      0.936600
      9 O           3.3330    1.0740   -0.7730 o         1 DDO     -0.754800
     10 OXT         1.3320    1.9530   -1.3820 o         1 DDO     -0.754800
     11 HN1        -0.4940    0.5330    0.8900 hn        1 DDO      0.443133
     12 HN2        -0.2640    1.0400   -0.7010 hn        1 DDO      0.443133
     13 HA1         1.5370   -0.9760   -0.4890 hx        1 DDO      0.088700
     14 HB1         2.9970   -0.0340    1.3600 hc        1 DDO      0.088200
     15 HB2         1.5840    0.8710    2.0250 hc        1 DDO      0.088200
     16 HG1         0.3160   -1.3450    2.2560 hc        1 DDO      0.028200
     17 HG2         1.7900   -2.2050    1.6660 hc        1 DDO      0.028200
     18 HD1         3.1100   -1.1830    3.5900 hc        1 DDO      0.064200
     19 HD2         1.5950   -0.4110    4.1920 hc        1 DDO      0.064200
     20 HE1         0.5170   -2.7450    4.3050 h1        1 DDO      0.019200
     21 HE2         2.1440   -3.4510    3.8700 h1        1 DDO      0.019200
     22 HOZ         1.9000   -3.2690    6.1190 ho        1 DDO      0.402000
     23 HN3        -0.6450   -0.5680   -0.3450 hn        1 DDO      0.443133
@<TRIPOS>BOND
     1    1    2 1   
     2    1   11 1   
     3    1   12 1   
     4    1   23 1   
     5    2    3 1   
     6    2    8 1   
     7    2   13 1   
     8    3    4 1   
     9    3   14 1   
    10    3   15 1   
    11    4    5 1   
    12    4   16 1   
    13    4   17 1   
    14    5    6 1   
    15    5   18 1   
    16    5   19 1   
    17    6    7 1   
    18    6   20 1   
    19    6   21 1   
    20    7   22 1   
    21    8    9 1   
    22    8   10 1   
@<TRIPOS>SUBSTRUCTURE
     1 DDO         1 TEMP              0 ****  ****    0 ROOT
