@<TRIPOS>MOLECULE
DDO
   23    22     1     0     0
SMALL
bcc


@<TRIPOS>ATOM
      1 N          -0.1280    0.2340   -0.0370 nz        1 DDO     -0.837600
      2 CA          1.3450   -0.0150    0.0360 c3        1 DDO     -0.073500
      3 CB          1.8740   -0.0530    1.4560 c3        1 DDO     -0.096400
      4 CG          1.4360   -1.2880    2.2130 c3        1 DDO     -0.086400
      5 CD          1.9820   -1.2760    3.6240 c3        1 DDO     -0.085400
      6 CE          1.6150   -2.5580    4.3510 c3        1 DDO      0.133400
      7 OZ          2.0180   -2.3970    5.7010 oh        1 DDO     -0.597800
      8 C           2.1100    1.1290   -0.7980 c         1 DDO      0.936600
      9 O           3.3480    1.0650   -0.7680 o         1 DDO     -0.754800
     10 OXT         1.3490    1.9360   -1.3960 o         1 DDO     -0.754800
     11 HN1        -0.2500    1.0220   -0.7220 hn        1 DDO      0.443133
     12 HN2        -0.4900    0.5220    0.8690 hn        1 DDO      0.443133
     13 HA1         1.5550   -0.9880   -0.4870 hx        1 DDO      0.088700
     14 HB1         1.5780    0.8720    2.0180 hc        1 DDO      0.088200
     15 HB2         2.9980   -0.0320    1.3690 hc        1 DDO      0.088200
     16 HG1         0.3160   -1.3470    2.2500 hc        1 DDO      0.028200
     17 HG2         1.7980   -2.2050    1.6770 hc        1 DDO      0.028200
     18 HD1         1.5750   -0.3990    4.1920 hc        1 DDO      0.064200
     19 HD2         3.0980   -1.1670    3.6050 hc        1 DDO      0.064200
     20 HE1         2.1390   -3.4380    3.8900 h1        1 DDO      0.019200
     21 HE2         0.5060   -2.7360    4.3070 h1        1 DDO      0.019200
     22 HOZ         1.8750   -3.2460    6.1360 ho        1 DDO      0.402000
     23 HN3        -0.6290   -0.5860   -0.3620 hn        1 DDO      0.443133
@<TRIPOS>BOND
     1    1    2 1   
     2    1   11 1   
     3    1   12 1   
     4    1   23 1   
     5    2    3 1   
     6    2    8 1   
     7    2   13 1   
     8    3    4 1   
     9    3   14 1   
    10    3   15 1   
    11    4    5 1   
    12    4   16 1   
    13    4   17 1   
    14    5    6 1   
    15    5   18 1   
    16    5   19 1   
    17    6    7 1   
    18    6   20 1   
    19    6   21 1   
    20    7   22 1   
    21    8    9 1   
    22    8   10 1   
@<TRIPOS>SUBSTRUCTURE
     1 DDO         1 TEMP              0 ****  ****    0 ROOT
