@<TRIPOS>MOLECULE
DDO
   23    22     1     0     0
SMALL
bcc


@<TRIPOS>ATOM
      1 N          -0.1180    0.2140   -0.0560 n4        1 DDO     -0.837600
      2 CA          1.3570   -0.0200    0.0340 c3        1 DDO     -0.073500
      3 CB          1.8710   -0.0500    1.4590 c3        1 DDO     -0.096400
      4 CG          1.4390   -1.2870    2.2140 c3        1 DDO     -0.086400
      5 CD          1.9690   -1.2660    3.6310 c3        1 DDO     -0.085400
      6 CE          1.6080   -2.5510    4.3570 c3        1 DDO      0.133400
      7 OZ          1.9940   -2.3820    5.7110 oh        1 DDO     -0.597800
      8 C           2.1180    1.1300   -0.7950 c         1 DDO      0.936600
      9 O           3.3570    1.0790   -0.7530 o         1 DDO     -0.754800
     10 OXT         1.3550    1.9280   -1.4030 o         1 DDO     -0.754800
     11 HN1        -0.2410    1.0000   -0.7430 hn        1 DDO      0.443133
     12 HN2        -0.4930    0.4980    0.8470 hn        1 DDO      0.443133
     13 HA1         1.5820   -0.9920   -0.4850 hx        1 DDO      0.088700
     14 HB1         1.5600    0.8740    2.0150 hc        1 DDO      0.088200
     15 HB2         2.9960   -0.0170    1.3830 hc        1 DDO      0.088200
     16 HG1         0.3190   -1.3580    2.2390 hc        1 DDO      0.028200
     17 HG2         1.8160   -2.2020    1.6840 hc        1 DDO      0.028200
     18 HD1         1.5460   -0.3930    4.1920 hc        1 DDO      0.064200
     19 HD2         3.0840   -1.1450    3.6240 hc        1 DDO      0.064200
     20 HE1         2.1480   -3.4250    3.9040 h1        1 DDO      0.019200
     21 HE2         0.5020   -2.7420    4.3010 h1        1 DDO      0.019200
     22 HOZ         1.8570   -3.2310    6.1460 ho        1 DDO      0.402000
     23 HN3        -0.6070   -0.6120   -0.3840 hn        1 DDO      0.443133
@<TRIPOS>BOND
     1    1    2 1   
     2    1   11 1   
     3    1   12 1   
     4    1   23 1   
     5    2    3 1   
     6    2    8 1   
     7    2   13 1   
     8    3    4 1   
     9    3   14 1   
    10    3   15 1   
    11    4    5 1   
    12    4   16 1   
    13    4   17 1   
    14    5    6 1   
    15    5   18 1   
    16    5   19 1   
    17    6    7 1   
    18    6   20 1   
    19    6   21 1   
    20    7   22 1   
    21    8    9 1   
    22    8   10 1   
@<TRIPOS>SUBSTRUCTURE
     1 DDO         1 TEMP              0 ****  ****    0 ROOT
