@<TRIPOS>MOLECULE
DDP
   16    16     1     0     0
SMALL
bcc


@<TRIPOS>ATOM
      1 C5          0.0000    0.1490   -1.2240 ca        1 DDP     -0.173000
      2 N7          0.0000    0.3100   -2.6150 nh        1 DDP     -0.760200
      3 C4         -1.1950    0.1220   -0.4370 ca        1 DDP      0.657600
      4 N3         -1.2260    0.1200    0.9160 nb        1 DDP     -0.819000
      5 C2          0.0000    0.1560    1.5590 ca        1 DDP      0.894900
      6 N2          0.0000    0.2970    2.9550 nh        1 DDP     -0.917500
      7 N1          1.2260    0.1190    0.9160 nb        1 DDP     -0.819000
      8 C6          1.1950    0.1210   -0.4370 ca        1 DDP      0.657600
      9 O6          2.3830    0.0650   -1.1290 oh        1 DDP     -0.615300
     10 O9         -2.3830    0.0680   -1.1290 oh        1 DDP     -0.615300
     11 H71         0.8290   -0.0650   -3.0320 hn        1 DDP      0.384800
     12 H72        -0.8290   -0.0650   -3.0320 hn        1 DDP      0.384800
     13 H21         0.8420    0.0360    3.4170 hn        1 DDP      0.422800
     14 H22        -0.8420    0.0360    3.4170 hn        1 DDP      0.422800
     15 H61         3.1230    0.0840   -0.4990 ho        1 DDP      0.447000
     16 H91        -3.1230    0.0870   -0.4990 ho        1 DDP      0.447000
@<TRIPOS>BOND
     1    1    2 1   
     2    1    3 ar  
     3    1    8 ar  
     4    2   11 1   
     5    2   12 1   
     6    3    4 ar  
     7    3   10 1   
     8    4    5 ar  
     9    5    6 1   
    10    5    7 ar  
    11    6   13 1   
    12    6   14 1   
    13    7    8 ar  
    14    8    9 1   
    15    9   15 1   
    16   10   16 1   
@<TRIPOS>SUBSTRUCTURE
     1 DDP         1 TEMP              0 ****  ****    0 ROOT
