@<TRIPOS>MOLECULE
DDP
   18    18     1     0     0
SMALL
bcc


@<TRIPOS>ATOM
      1 C5         -0.0100    0.0300   -0.0570 ca        1 DDP     -0.341000
      2 N7         -0.7410    0.0500   -1.3060 n4        1 DDP     -0.669000
      3 C4          1.4230   -0.0300   -0.0160 ca        1 DDP      0.789100
      4 N3          2.1220   -0.0580    1.1600 nb        1 DDP     -0.749000
      5 C2          1.3680   -0.0240    2.2980 ca        1 DDP      0.853900
      6 N2          2.1210   -0.0570    3.5900 n4        1 DDP     -0.827300
      7 N1          0.0060    0.0360    2.3990 nb        1 DDP     -0.749000
      8 C6         -0.6750    0.0630    1.2140 ca        1 DDP      0.789100
      9 O6         -2.0230    0.1280    1.1830 oh        1 DDP     -0.574300
     10 O9          2.0570   -0.0540   -1.2070 oh        1 DDP     -0.574300
     11 H71        -1.6260    0.5700   -1.1840 hn        1 DDP      0.492133
     12 H72        -0.9570   -0.9150   -1.6010 hn        1 DDP      0.492133
     13 H21         3.1390   -0.1040    3.4140 hn        1 DDP      0.507133
     14 H22         1.9070    0.7980    4.1310 hn        1 DDP      0.507133
     15 H61        -2.4210    0.1560    2.0840 ho        1 DDP      0.527000
     16 H91         3.0380   -0.0870   -1.1140 ho        1 DDP      0.527000
     17 H73        -0.1710    0.5050   -2.0380 hn        1 DDP      0.492133
     18 H23         1.8280   -0.8850    4.1350 hn        1 DDP      0.507133
@<TRIPOS>BOND
     1    1    2 1   
     2    1    3 ar  
     3    1    8 ar  
     4    2   11 1   
     5    2   12 1   
     6    2   17 1   
     7    3    4 ar  
     8    3   10 1   
     9    4    5 ar  
    10    5    6 1   
    11    5    7 ar  
    12    6   13 1   
    13    6   14 1   
    14    6   18 1   
    15    7    8 ar  
    16    8    9 1   
    17    9   15 1   
    18   10   16 1   
@<TRIPOS>SUBSTRUCTURE
     1 DDP         1 TEMP              0 ****  ****    0 ROOT
