@<TRIPOS>MOLECULE
DDP
   16    16     1     0     0
SMALL
bcc


@<TRIPOS>ATOM
      1 C5         -0.0440   -0.1250   -0.0720 ca        1 DDP     -0.173000
      2 N7         -0.7650   -0.2970   -1.2620 nh        1 DDP     -0.760200
      3 C4          1.3830   -0.1900   -0.0050 ca        1 DDP      0.657600
      4 N3          2.1010   -0.1800    1.1430 nb        1 DDP     -0.819000
      5 C2          1.3760   -0.1100    2.3210 ca        1 DDP      0.894900
      6 N2          2.0790   -0.2390    3.5280 nh        1 DDP     -0.917500
      7 N1         -0.0020    0.0220    2.3890 nb        1 DDP     -0.819000
      8 C6         -0.6650    0.0070    1.2090 ca        1 DDP      0.657600
      9 O6         -2.0330    0.1540    1.2160 oh        1 DDP     -0.615300
     10 O9          2.0530   -0.2380   -1.2060 oh        1 DDP     -0.615300
     11 H71        -0.2420    0.0050   -2.0590 hn        1 DDP      0.384800
     12 H72        -1.6640    0.1420   -1.2170 hn        1 DDP      0.384800
     13 H21         1.6110    0.0930    4.3400 hn        1 DDP      0.422800
     14 H22         3.0540   -0.0450    3.4850 hn        1 DDP      0.422800
     15 H61        -2.3480    0.2010    2.1340 ho        1 DDP      0.447000
     16 H91         3.0080   -0.3130   -1.0400 ho        1 DDP      0.447000
@<TRIPOS>BOND
     1    1    2 1   
     2    1    3 ar  
     3    1    8 ar  
     4    2   11 1   
     5    2   12 1   
     6    3    4 ar  
     7    3   10 1   
     8    4    5 ar  
     9    5    6 1   
    10    5    7 ar  
    11    6   13 1   
    12    6   14 1   
    13    7    8 ar  
    14    8    9 1   
    15    9   15 1   
    16   10   16 1   
@<TRIPOS>SUBSTRUCTURE
     1 DDP         1 TEMP              0 ****  ****    0 ROOT
