@<TRIPOS>MOLECULE
DDP
   16    13     1     0     0
SMALL
bcc


@<TRIPOS>ATOM
      1 C5         -0.5400   -0.0100   -0.9310 c1        1 DDP     -0.125000
      2 N7         -1.2490    0.0550   -2.1580 n2        1 DDP     -0.269000
      3 C4          0.8250   -0.0100   -0.9310 c2        1 DDP      0.158000
      4 N3          1.4950   -0.0100    0.2310 n1        1 DDP     -0.293000
      5 C2          0.8140   -0.0100    1.4110 c1        1 DDP      0.175000
      6 N2          1.5240    0.0010    2.6390 n3        1 DDP     -0.313000
      7 N1         -0.5490   -0.0100    1.4120 n1        1 DDP     -0.293000
      8 C6         -1.2210   -0.0100    0.2510 c1        1 DDP      0.158000
      9 O6         -2.6270   -0.0520    0.2530 oh        1 DDP     -0.243000
     10 O9          1.5280    0.0260   -2.1490 oh        1 DDP     -0.243000
     11 H71        -1.4750    0.8640   -2.5120 hn        1 DDP      0.180000
     12 H72        -1.4800   -0.7130   -2.5930 hn        1 DDP      0.180000
     13 H21         1.0680    0.0060    3.4290 hn        1 DDP      0.217000
     14 H22         2.4360    0.0010    2.6380 hn        1 DDP      0.217000
     15 H61        -2.9120   -0.4140    1.0120 ho        1 DDP      0.246000
     16 H91         2.3640    0.2840   -2.0010 ho        1 DDP      0.246000
@<TRIPOS>BOND
     1    1    3 1   
     2    1    8 1   
     3    2   11 1   
     4    2   12 1   
     5    3    4 1   
     6    3   10 1   
     7    5    6 1   
     8    5    7 1   
     9    6   13 1   
    10    6   14 1   
    11    8    9 1   
    12    9   15 1   
    13   10   16 1   
@<TRIPOS>SUBSTRUCTURE
     1 DDP         1 TEMP              0 ****  ****    0 ROOT
