@<TRIPOS>MOLECULE
DDP
   16    16     1     0     0
SMALL
bcc


@<TRIPOS>ATOM
      1 C5         -0.0360   -0.0210   -0.0790 ca        1 DDP     -0.174000
      2 N7         -0.7240   -0.1650   -1.2920 nv        1 DDP     -0.760200
      3 C4          1.3750    0.1970    0.0010 ca        1 DDP      0.656600
      4 N3          2.0910    0.1960    1.1490 nb        1 DDP     -0.819000
      5 C2          1.3770   -0.0060    2.3190 ca        1 DDP      0.893900
      6 N2          2.0750    0.0920    3.5340 nv        1 DDP     -0.915500
      7 N1          0.0110   -0.2270    2.3790 nb        1 DDP     -0.819000
      8 C6         -0.6520   -0.2140    1.1980 ca        1 DDP      0.656600
      9 O6         -2.0160   -0.3880    1.2020 oh        1 DDP     -0.614300
     10 O9          2.0270    0.4330   -1.1870 oh        1 DDP     -0.614300
     11 H71        -1.6930    0.0680   -1.1970 hn        1 DDP      0.384800
     12 H72        -0.2870    0.3530   -2.0280 hn        1 DDP      0.384800
     13 H21         1.6330   -0.3300    4.3190 hn        1 DDP      0.421800
     14 H22         3.0590   -0.0400    3.4760 hn        1 DDP      0.421800
     15 H61        -2.3230   -0.5120    2.1160 ho        1 DDP      0.447000
     16 H91         2.9750    0.5640   -1.0140 ho        1 DDP      0.447000
@<TRIPOS>BOND
     1    1    2 1   
     2    1    3 ar  
     3    1    8 ar  
     4    2   11 1   
     5    2   12 1   
     6    3    4 ar  
     7    3   10 1   
     8    4    5 ar  
     9    5    6 1   
    10    5    7 ar  
    11    6   13 1   
    12    6   14 1   
    13    7    8 ar  
    14    8    9 1   
    15    9   15 1   
    16   10   16 1   
@<TRIPOS>SUBSTRUCTURE
     1 DDP         1 TEMP              0 ****  ****    0 ROOT
