@<TRIPOS>MOLECULE
DDQ
   41    40     1     0     0
SMALL
bcc


@<TRIPOS>ATOM
      1 N1          3.9750    3.1130    1.0040 n4        1 DDQ     -0.146600
      2 O1          3.2060    3.2700    2.1180 o         1 DDQ     -0.646000
      3 CM1         4.1990    4.4240    0.3760 c3        1 DDQ      0.071600
      4 CM2         5.2320    2.5380    1.3700 c3        1 DDQ      0.071600
      5 C1          3.3020    2.2440    0.0760 c3        1 DDQ      0.093800
      6 C2          2.0240    1.6900    0.7250 c3        1 DDQ     -0.088400
      7 C3          1.2610    0.8570   -0.2900 c3        1 DDQ     -0.077400
      8 C4          0.0790    0.0810    0.4360 c3        1 DDQ     -0.078400
      9 C5         -0.8520   -0.5250   -0.6160 c3        1 DDQ     -0.079400
     10 C6         -1.8320   -1.4980    0.0600 c3        1 DDQ     -0.079400
     11 C7         -2.9170   -1.8910   -0.9270 c3        1 DDQ     -0.079400
     12 C8         -3.7270   -3.0450   -0.3590 c3        1 DDQ     -0.079400
     13 C9         -4.9340   -3.2870   -1.2280 c3        1 DDQ     -0.080400
     14 C10        -5.6700   -4.4920   -0.7350 c3        1 DDQ     -0.092100
     15 HM11        3.3350    4.8070    0.0970 hx        1 DDQ      0.063867
     16 HM12        4.6340    5.0290    1.0230 hx        1 DDQ      0.063867
     17 HM13        4.7800    4.3150   -0.4130 hx        1 DDQ      0.063867
     18 HM21        5.0810    1.6590    1.7860 hx        1 DDQ      0.063867
     19 HM22        5.7890    2.4300    0.5670 hx        1 DDQ      0.063867
     20 HM23        5.6850    3.1240    2.0050 hx        1 DDQ      0.063867
     21 H11         3.0690    2.7430   -0.7250 hx        1 DDQ      0.059200
     22 H12         3.9010    1.4930   -0.1660 hx        1 DDQ      0.059200
     23 H21         1.4700    2.4230    1.0220 hc        1 DDQ      0.064700
     24 H22         2.2630    1.1310    1.4930 hc        1 DDQ      0.064700
     25 H31         0.8890    1.4450   -0.9800 hc        1 DDQ      0.039700
     26 H32         1.8760    0.2040   -0.7100 hc        1 DDQ      0.039700
     27 H41         0.4530   -0.6370    0.9950 hc        1 DDQ      0.042700
     28 H42        -0.4230    0.7020    0.9970 hc        1 DDQ      0.042700
     29 H51        -0.3210   -1.0080   -1.2830 hc        1 DDQ      0.039200
     30 H52        -1.3540    0.1880   -1.0540 hc        1 DDQ      0.039200
     31 H61        -1.3480   -2.3000    0.3480 hc        1 DDQ      0.040700
     32 H62        -2.2370   -1.0660    0.8370 hc        1 DDQ      0.040700
     33 H71        -2.5070   -2.1650   -1.7670 hc        1 DDQ      0.039200
     34 H72        -3.5050   -1.1270   -1.0850 hc        1 DDQ      0.039200
     35 H81        -3.1720   -3.8540   -0.3380 hc        1 DDQ      0.040200
     36 H82        -4.0220   -2.8220    0.5630 hc        1 DDQ      0.040200
     37 H91        -5.5260   -2.5030   -1.1910 hc        1 DDQ      0.038200
     38 H92        -4.6500   -3.4330   -2.1390 hc        1 DDQ      0.038200
     39 H101       -5.1280   -5.2840   -0.8800 hc        1 DDQ      0.032700
     40 H102       -6.5240   -4.5830   -1.2290 hc        1 DDQ      0.032700
     41 H103       -5.8540   -4.3940    0.2180 hc        1 DDQ      0.032700
@<TRIPOS>BOND
     1    1    2 1   
     2    1    3 1   
     3    1    4 1   
     4    1    5 1   
     5    3   15 1   
     6    3   16 1   
     7    3   17 1   
     8    4   18 1   
     9    4   19 1   
    10    4   20 1   
    11    5    6 1   
    12    5   21 1   
    13    5   22 1   
    14    6    7 1   
    15    6   23 1   
    16    6   24 1   
    17    7    8 1   
    18    7   25 1   
    19    7   26 1   
    20    8    9 1   
    21    8   27 1   
    22    8   28 1   
    23    9   10 1   
    24    9   29 1   
    25    9   30 1   
    26   10   11 1   
    27   10   31 1   
    28   10   32 1   
    29   11   12 1   
    30   11   33 1   
    31   11   34 1   
    32   12   13 1   
    33   12   35 1   
    34   12   36 1   
    35   13   14 1   
    36   13   37 1   
    37   13   38 1   
    38   14   39 1   
    39   14   40 1   
    40   14   41 1   
@<TRIPOS>SUBSTRUCTURE
     1 DDQ         1 TEMP              0 ****  ****    0 ROOT
