@<TRIPOS>MOLECULE
DDQ
   41    40     1     0     0
SMALL
bcc


@<TRIPOS>ATOM
      1 N1         -4.7790   -0.0910   -0.0850 n4        1 DDQ     -0.146600
      2 O1         -4.7780   -0.7460   -1.1790 o         1 DDQ     -0.646000
      3 CM1        -5.0050   -0.9930    1.1060 c3        1 DDQ      0.071600
      4 CM2        -5.8750    0.9530   -0.0640 c3        1 DDQ      0.071600
      5 C1         -3.4660    0.6590    0.1350 c3        1 DDQ      0.093800
      6 C2         -2.2440   -0.2440    0.1120 c3        1 DDQ     -0.088400
      7 C3         -0.9820    0.5920    0.0510 c3        1 DDQ     -0.077400
      8 C4          0.2500   -0.2870    0.0790 c3        1 DDQ     -0.078400
      9 C5          1.5150    0.5420    0.0060 c3        1 DDQ     -0.079400
     10 C6          2.7480   -0.3360    0.0370 c3        1 DDQ     -0.079400
     11 C7          4.0130    0.4920   -0.0360 c3        1 DDQ     -0.079400
     12 C8          5.2460   -0.3850   -0.0050 c3        1 DDQ     -0.079400
     13 C9          6.5130    0.4410   -0.0790 c3        1 DDQ     -0.080400
     14 C10         7.7430   -0.4280   -0.0480 c3        1 DDQ     -0.092100
     15 HM11       -4.9440   -0.4050    2.0540 hx        1 DDQ      0.063867
     16 HM12       -6.0140   -1.4660    1.0030 hx        1 DDQ      0.063867
     17 HM13       -4.2270   -1.7970    1.0900 hx        1 DDQ      0.063867
     18 HM21       -5.7140    1.6510   -0.9230 hx        1 DDQ      0.063867
     19 HM22       -6.8550    0.4310   -0.2000 hx        1 DDQ      0.063867
     20 HM23       -5.8580    1.5100    0.9040 hx        1 DDQ      0.063867
     21 H11        -3.5310    1.2050    1.1130 hx        1 DDQ      0.059200
     22 H12        -3.3870    1.4040   -0.7040 hx        1 DDQ      0.059200
     23 H21        -2.3000   -0.9240   -0.7810 hc        1 DDQ      0.064700
     24 H22        -2.2230   -0.8880    1.0300 hc        1 DDQ      0.064700
     25 H31        -0.9560    1.3050    0.9160 hc        1 DDQ      0.039700
     26 H32        -0.9820    1.2070   -0.8880 hc        1 DDQ      0.039700
     27 H41         0.2190   -1.0040   -0.7830 hc        1 DDQ      0.042700
     28 H42         0.2560   -0.8990    1.0200 hc        1 DDQ      0.042700
     29 H51         1.5440    1.2620    0.8660 hc        1 DDQ      0.039200
     30 H52         1.5110    1.1520   -0.9350 hc        1 DDQ      0.039200
     31 H61         2.7190   -1.0550   -0.8230 hc        1 DDQ      0.040700
     32 H62         2.7520   -0.9460    0.9790 hc        1 DDQ      0.040700
     33 H71         4.0420    1.2120    0.8240 hc        1 DDQ      0.039200
     34 H72         4.0100    1.1020   -0.9780 hc        1 DDQ      0.039200
     35 H81         5.2180   -1.1050   -0.8650 hc        1 DDQ      0.040200
     36 H82         5.2500   -0.9950    0.9370 hc        1 DDQ      0.040200
     37 H91         6.5390    1.1620    0.7810 hc        1 DDQ      0.038200
     38 H92         6.5060    1.0520   -1.0200 hc        1 DDQ      0.038200
     39 H101        7.7800   -1.0260    0.8950 hc        1 DDQ      0.032700
     40 H102        7.7470   -1.1370   -0.9110 hc        1 DDQ      0.032700
     41 H103        8.6640    0.2000   -0.1030 hc        1 DDQ      0.032700
@<TRIPOS>BOND
     1    1    2 1   
     2    1    3 1   
     3    1    4 1   
     4    1    5 1   
     5    3   15 1   
     6    3   16 1   
     7    3   17 1   
     8    4   18 1   
     9    4   19 1   
    10    4   20 1   
    11    5    6 1   
    12    5   21 1   
    13    5   22 1   
    14    6    7 1   
    15    6   23 1   
    16    6   24 1   
    17    7    8 1   
    18    7   25 1   
    19    7   26 1   
    20    8    9 1   
    21    8   27 1   
    22    8   28 1   
    23    9   10 1   
    24    9   29 1   
    25    9   30 1   
    26   10   11 1   
    27   10   31 1   
    28   10   32 1   
    29   11   12 1   
    30   11   33 1   
    31   11   34 1   
    32   12   13 1   
    33   12   35 1   
    34   12   36 1   
    35   13   14 1   
    36   13   37 1   
    37   13   38 1   
    38   14   39 1   
    39   14   40 1   
    40   14   41 1   
@<TRIPOS>SUBSTRUCTURE
     1 DDQ         1 TEMP              0 ****  ****    0 ROOT
