@<TRIPOS>MOLECULE
DDQ
   41    40     1     0     0
SMALL
bcc


@<TRIPOS>ATOM
      1 N1          0.0770   -0.0500   -0.0350 n4        1 DDQ     -0.146600
      2 O1          1.3480   -0.0300   -0.1390 o         1 DDQ     -0.646000
      3 CM1        -0.3630   -0.2480    1.3960 c3        1 DDQ      0.071600
      4 CM2        -0.5270   -1.1770   -0.8450 c3        1 DDQ      0.071600
      5 C1         -0.5590    1.2400   -0.5510 c3        1 DDQ      0.093800
      6 C2         -0.0380    2.4890    0.1390 c3        1 DDQ     -0.088400
      7 C3         -0.4940    3.7240   -0.6080 c3        1 DDQ     -0.077400
      8 C4         -0.0290    4.9830    0.0920 c3        1 DDQ     -0.078400
      9 C5         -0.4720    6.2220   -0.6570 c3        1 DDQ     -0.079400
     10 C6         -0.0090    7.4810    0.0440 c3        1 DDQ     -0.079400
     11 C7         -0.4510    8.7210   -0.7040 c3        1 DDQ     -0.079400
     12 C8          0.0120    9.9800   -0.0040 c3        1 DDQ     -0.079400
     13 C9         -0.4290   11.2200   -0.7510 c3        1 DDQ     -0.080400
     14 C10         0.0300   12.4770   -0.0570 c3        1 DDQ     -0.092100
     15 HM11        0.0130   -1.2420    1.7460 hx        1 DDQ      0.063867
     16 HM12        0.1030    0.5550    2.0200 hx        1 DDQ      0.063867
     17 HM13       -1.4780   -0.2030    1.4670 hx        1 DDQ      0.063867
     18 HM21       -0.2370   -1.0390   -1.9150 hx        1 DDQ      0.063867
     19 HM22       -0.0970   -2.1410   -0.4750 hx        1 DDQ      0.063867
     20 HM23       -1.6390   -1.1770   -0.7360 hx        1 DDQ      0.063867
     21 H11        -1.6720    1.1580   -0.4250 hx        1 DDQ      0.059200
     22 H12        -0.3110    1.2960   -1.6470 hx        1 DDQ      0.059200
     23 H21         1.0850    2.4530    0.1750 hc        1 DDQ      0.064700
     24 H22        -0.4100    2.5300    1.1960 hc        1 DDQ      0.064700
     25 H31        -1.6140    3.7300   -0.6870 hc        1 DDQ      0.039700
     26 H32        -0.0880    3.7050   -1.6540 hc        1 DDQ      0.039700
     27 H41        -0.4380    5.0080    1.1360 hc        1 DDQ      0.042700
     28 H42         1.0900    4.9730    0.1750 hc        1 DDQ      0.042700
     29 H51        -1.5910    6.2300   -0.7430 hc        1 DDQ      0.039200
     30 H52        -0.0600    6.1990   -1.7000 hc        1 DDQ      0.039200
     31 H61         1.1100    7.4730    0.1300 hc        1 DDQ      0.040700
     32 H62        -0.4200    7.5050    1.0870 hc        1 DDQ      0.040700
     33 H71        -1.5700    8.7280   -0.7910 hc        1 DDQ      0.039200
     34 H72        -0.0390    8.6970   -1.7470 hc        1 DDQ      0.039200
     35 H81         1.1310    9.9720    0.0830 hc        1 DDQ      0.040200
     36 H82        -0.4000   10.0030    1.0400 hc        1 DDQ      0.040200
     37 H91        -1.5480   11.2250   -0.8380 hc        1 DDQ      0.038200
     38 H92        -0.0180   11.1940   -1.7940 hc        1 DDQ      0.038200
     39 H101        1.1440   12.5010    0.0180 hc        1 DDQ      0.032700
     40 H102       -0.3910   12.5330    0.9760 hc        1 DDQ      0.032700
     41 H103       -0.3060   13.3780   -0.6240 hc        1 DDQ      0.032700
@<TRIPOS>BOND
     1    1    2 1   
     2    1    3 1   
     3    1    4 1   
     4    1    5 1   
     5    3   15 1   
     6    3   16 1   
     7    3   17 1   
     8    4   18 1   
     9    4   19 1   
    10    4   20 1   
    11    5    6 1   
    12    5   21 1   
    13    5   22 1   
    14    6    7 1   
    15    6   23 1   
    16    6   24 1   
    17    7    8 1   
    18    7   25 1   
    19    7   26 1   
    20    8    9 1   
    21    8   27 1   
    22    8   28 1   
    23    9   10 1   
    24    9   29 1   
    25    9   30 1   
    26   10   11 1   
    27   10   31 1   
    28   10   32 1   
    29   11   12 1   
    30   11   33 1   
    31   11   34 1   
    32   12   13 1   
    33   12   35 1   
    34   12   36 1   
    35   13   14 1   
    36   13   37 1   
    37   13   38 1   
    38   14   39 1   
    39   14   40 1   
    40   14   41 1   
@<TRIPOS>SUBSTRUCTURE
     1 DDQ         1 TEMP              0 ****  ****    0 ROOT
