@<TRIPOS>MOLECULE
DDQ
   41    40     1     0     0
SMALL
bcc


@<TRIPOS>ATOM
      1 N1          0.0700   -0.0510   -0.0320 n4        1 DDQ     -0.146600
      2 O1          1.3410   -0.0320   -0.1340 o         1 DDQ     -0.646000
      3 CM1        -0.3720   -0.2470    1.3990 c3        1 DDQ      0.071600
      4 CM2        -0.5350   -1.1770   -0.8410 c3        1 DDQ      0.071600
      5 C1         -0.5640    1.2400   -0.5490 c3        1 DDQ      0.093800
      6 C2         -0.0410    2.4890    0.1410 c3        1 DDQ     -0.088400
      7 C3         -0.4960    3.7240   -0.6070 c3        1 DDQ     -0.077400
      8 C4         -0.0280    4.9830    0.0920 c3        1 DDQ     -0.078400
      9 C5         -0.4710    6.2220   -0.6570 c3        1 DDQ     -0.079400
     10 C6         -0.0050    7.4810    0.0420 c3        1 DDQ     -0.079400
     11 C7         -0.4470    8.7210   -0.7060 c3        1 DDQ     -0.079400
     12 C8          0.0190    9.9790   -0.0070 c3        1 DDQ     -0.079400
     13 C9         -0.4230   11.2200   -0.7530 c3        1 DDQ     -0.080400
     14 C10         0.0400   12.4760   -0.0620 c3        1 DDQ     -0.092100
     15 HM11        0.0030   -1.2410    1.7500 hx        1 DDQ      0.063867
     16 HM12        0.0950    0.5550    2.0230 hx        1 DDQ      0.063867
     17 HM13       -1.4860   -0.2020    1.4690 hx        1 DDQ      0.063867
     18 HM21       -0.2430   -1.0400   -1.9120 hx        1 DDQ      0.063867
     19 HM22       -0.1060   -2.1420   -0.4700 hx        1 DDQ      0.063867
     20 HM23       -1.6470   -1.1750   -0.7330 hx        1 DDQ      0.063867
     21 H11        -1.6770    1.1600   -0.4230 hx        1 DDQ      0.059200
     22 H12        -0.3160    1.2950   -1.6440 hx        1 DDQ      0.059200
     23 H21         1.0820    2.4510    0.1770 hc        1 DDQ      0.064700
     24 H22        -0.4140    2.5310    1.1980 hc        1 DDQ      0.064700
     25 H31        -1.6160    3.7320   -0.6850 hc        1 DDQ      0.039700
     26 H32        -0.0900    3.7040   -1.6530 hc        1 DDQ      0.039700
     27 H41        -0.4370    5.0090    1.1360 hc        1 DDQ      0.042700
     28 H42         1.0910    4.9720    0.1740 hc        1 DDQ      0.042700
     29 H51        -1.5900    6.2310   -0.7420 hc        1 DDQ      0.039200
     30 H52        -0.0600    6.1980   -1.7010 hc        1 DDQ      0.039200
     31 H61         1.1140    7.4720    0.1260 hc        1 DDQ      0.040700
     32 H62        -0.4140    7.5050    1.0860 hc        1 DDQ      0.040700
     33 H71        -1.5660    8.7300   -0.7900 hc        1 DDQ      0.039200
     34 H72        -0.0370    8.6960   -1.7500 hc        1 DDQ      0.039200
     35 H81         1.1380    9.9710    0.0770 hc        1 DDQ      0.040200
     36 H82        -0.3900   10.0040    1.0370 hc        1 DDQ      0.040200
     37 H91        -1.5420   11.2270   -0.8380 hc        1 DDQ      0.038200
     38 H92        -0.0140   11.1930   -1.7980 hc        1 DDQ      0.038200
     39 H101        1.1550   12.5000    0.0090 hc        1 DDQ      0.032700
     40 H102       -0.3770   12.5330    0.9730 hc        1 DDQ      0.032700
     41 H103       -0.2960   13.3780   -0.6280 hc        1 DDQ      0.032700
@<TRIPOS>BOND
     1    1    2 1   
     2    1    3 1   
     3    1    4 1   
     4    1    5 1   
     5    3   15 1   
     6    3   16 1   
     7    3   17 1   
     8    4   18 1   
     9    4   19 1   
    10    4   20 1   
    11    5    6 1   
    12    5   21 1   
    13    5   22 1   
    14    6    7 1   
    15    6   23 1   
    16    6   24 1   
    17    7    8 1   
    18    7   25 1   
    19    7   26 1   
    20    8    9 1   
    21    8   27 1   
    22    8   28 1   
    23    9   10 1   
    24    9   29 1   
    25    9   30 1   
    26   10   11 1   
    27   10   31 1   
    28   10   32 1   
    29   11   12 1   
    30   11   33 1   
    31   11   34 1   
    32   12   13 1   
    33   12   35 1   
    34   12   36 1   
    35   13   14 1   
    36   13   37 1   
    37   13   38 1   
    38   14   39 1   
    39   14   40 1   
    40   14   41 1   
@<TRIPOS>SUBSTRUCTURE
     1 DDQ         1 TEMP              0 ****  ****    0 ROOT
