@<TRIPOS>MOLECULE
DDQ
   41    40     1     0     0
SMALL
bcc


@<TRIPOS>ATOM
      1 N1          0.0800   -0.0500   -0.0300 n4        1 DDQ     -0.146600
      2 O1          1.3510   -0.0290   -0.1230 o         1 DDQ     -0.646000
      3 CM1        -0.3730   -0.2470    1.3970 c3        1 DDQ      0.071600
      4 CM2        -0.5170   -1.1780   -0.8440 c3        1 DDQ      0.071600
      5 C1         -0.5530    1.2400   -0.5520 c3        1 DDQ      0.093800
      6 C2         -0.0370    2.4900    0.1410 c3        1 DDQ     -0.088400
      7 C3         -0.4900    3.7240   -0.6100 c3        1 DDQ     -0.077400
      8 C4         -0.0280    4.9840    0.0920 c3        1 DDQ     -0.078400
      9 C5         -0.4700    6.2220   -0.6580 c3        1 DDQ     -0.079400
     10 C6         -0.0090    7.4810    0.0430 c3        1 DDQ     -0.079400
     11 C7         -0.4530    8.7200   -0.7050 c3        1 DDQ     -0.079400
     12 C8          0.0100    9.9800   -0.0050 c3        1 DDQ     -0.079400
     13 C9         -0.4350   11.2200   -0.7510 c3        1 DDQ     -0.080400
     14 C10         0.0250   12.4770   -0.0580 c3        1 DDQ     -0.092100
     15 HM11        0.0870    0.5560    2.0250 hx        1 DDQ      0.063867
     16 HM12        0.0010   -1.2410    1.7510 hx        1 DDQ      0.063867
     17 HM13       -1.4880   -0.2050    1.4580 hx        1 DDQ      0.063867
     18 HM21       -0.0900   -2.1410   -0.4700 hx        1 DDQ      0.063867
     19 HM22       -0.2170   -1.0390   -1.9130 hx        1 DDQ      0.063867
     20 HM23       -1.6300   -1.1780   -0.7460 hx        1 DDQ      0.063867
     21 H11        -1.6670    1.1580   -0.4350 hx        1 DDQ      0.059200
     22 H12        -0.2960    1.2950   -1.6460 hx        1 DDQ      0.059200
     23 H21         1.0850    2.4540    0.1850 hc        1 DDQ      0.064700
     24 H22        -0.4170    2.5300    1.1960 hc        1 DDQ      0.064700
     25 H31        -0.0780    3.7040   -1.6530 hc        1 DDQ      0.039700
     26 H32        -1.6090    3.7290   -0.6940 hc        1 DDQ      0.039700
     27 H41        -0.4420    5.0080    1.1350 hc        1 DDQ      0.042700
     28 H42         1.0900    4.9750    0.1800 hc        1 DDQ      0.042700
     29 H51        -0.0550    6.1980   -1.7000 hc        1 DDQ      0.039200
     30 H52        -1.5890    6.2290   -0.7470 hc        1 DDQ      0.039200
     31 H61        -0.4210    7.5040    1.0860 hc        1 DDQ      0.040700
     32 H62         1.1100    7.4750    0.1300 hc        1 DDQ      0.040700
     33 H71        -1.5710    8.7270   -0.7910 hc        1 DDQ      0.039200
     34 H72        -0.0410    8.6970   -1.7480 hc        1 DDQ      0.039200
     35 H81         1.1290    9.9740    0.0800 hc        1 DDQ      0.040200
     36 H82        -0.4000   10.0030    1.0390 hc        1 DDQ      0.040200
     37 H91        -0.0250   11.1950   -1.7950 hc        1 DDQ      0.038200
     38 H92        -1.5540   11.2240   -0.8360 hc        1 DDQ      0.038200
     39 H101        1.1390   12.5030    0.0130 hc        1 DDQ      0.032700
     40 H102       -0.3930   12.5320    0.9770 hc        1 DDQ      0.032700
     41 H103       -0.3140   13.3780   -0.6230 hc        1 DDQ      0.032700
@<TRIPOS>BOND
     1    1    2 1   
     2    1    3 1   
     3    1    4 1   
     4    1    5 1   
     5    3   15 1   
     6    3   16 1   
     7    3   17 1   
     8    4   18 1   
     9    4   19 1   
    10    4   20 1   
    11    5    6 1   
    12    5   21 1   
    13    5   22 1   
    14    6    7 1   
    15    6   23 1   
    16    6   24 1   
    17    7    8 1   
    18    7   25 1   
    19    7   26 1   
    20    8    9 1   
    21    8   27 1   
    22    8   28 1   
    23    9   10 1   
    24    9   29 1   
    25    9   30 1   
    26   10   11 1   
    27   10   31 1   
    28   10   32 1   
    29   11   12 1   
    30   11   33 1   
    31   11   34 1   
    32   12   13 1   
    33   12   35 1   
    34   12   36 1   
    35   13   14 1   
    36   13   37 1   
    37   13   38 1   
    38   14   39 1   
    39   14   40 1   
    40   14   41 1   
@<TRIPOS>SUBSTRUCTURE
     1 DDQ         1 TEMP              0 ****  ****    0 ROOT
