@<TRIPOS>MOLECULE
DDR
   72    71     1     0     0
SMALL
bcc


@<TRIPOS>ATOM
      1 O21        -0.3230    0.8290   -0.4010 o         1 DDR     -0.543000
      2 C21         0.8690    0.5820   -0.2100 c         1 DDR      0.642100
      3 C22         1.6620    0.6550    1.0570 c3        1 DDR     -0.126400
      4 C23         0.8210    0.2510    2.2500 c3        1 DDR     -0.079400
      5 C24         1.5840    0.4630    3.5400 c3        1 DDR     -0.078400
      6 C25         0.7570    0.0430    4.7360 c3        1 DDR     -0.079400
      7 C26         1.5150    0.2580    6.0290 c3        1 DDR     -0.079400
      8 C27         0.6890   -0.1620    7.2250 c3        1 DDR     -0.079400
      9 C28         1.4460    0.0520    8.5180 c3        1 DDR     -0.079400
     10 C29         0.6210   -0.3680    9.7160 c3        1 DDR     -0.080400
     11 C30         1.3710   -0.1560   11.0060 c3        1 DDR     -0.093100
     12 O52         1.6330    0.1820   -1.2770 os        1 DDR     -0.435900
     13 C52         1.0080    0.1560   -2.5700 c3        1 DDR      0.102100
     14 C53         1.0320    1.5580   -3.1830 c3        1 DDR      0.122400
     15 O53         2.1710    2.3020   -2.8110 oh        1 DDR     -0.595800
     16 C51         1.7770   -0.8790   -3.3880 c3        1 DDR      0.136400
     17 O51         3.0310   -0.2940   -3.7630 os        1 DDR     -0.455900
     18 C1          3.9570   -1.1290   -4.3340 c         1 DDR      0.637100
     19 O1          3.6410   -2.3050   -4.5160 o         1 DDR     -0.536000
     20 C2          5.2460   -0.4310   -4.6360 c3        1 DDR     -0.127400
     21 C3          5.7940   -0.8620   -5.9800 c3        1 DDR     -0.079400
     22 C4          7.1620   -0.2600   -6.2190 c3        1 DDR     -0.079400
     23 C5          7.7090   -0.6710   -7.5690 c3        1 DDR     -0.079400
     24 C6          9.0790   -0.0760   -7.8100 c3        1 DDR     -0.079400
     25 C7          9.6260   -0.4860   -9.1600 c3        1 DDR     -0.079400
     26 C8         10.9970    0.1090   -9.4020 c3        1 DDR     -0.079400
     27 C9         11.5450   -0.3000  -10.7520 c3        1 DDR     -0.080400
     28 C10        12.9100    0.2900  -10.9970 c3        1 DDR     -0.093100
     29 H221        2.5690    0.0010    0.9730 hc        1 DDR      0.081200
     30 H222        2.0130    1.7170    1.1660 hc        1 DDR      0.081200
     31 H231       -0.1270    0.8530    2.2600 hc        1 DDR      0.057200
     32 H232        0.5270   -0.8270    2.1560 hc        1 DDR      0.057200
     33 H241        2.5380   -0.1280    3.5160 hc        1 DDR      0.041700
     34 H242        1.8660    1.5440    3.6380 hc        1 DDR      0.041700
     35 H251        0.4770   -1.0390    4.6390 hc        1 DDR      0.042700
     36 H252       -0.1980    0.6320    4.7570 hc        1 DDR      0.042700
     37 H261        2.4710   -0.3290    6.0060 hc        1 DDR      0.040200
     38 H262        1.7940    1.3400    6.1260 hc        1 DDR      0.040200
     39 H271        0.4090   -1.2440    7.1280 hc        1 DDR      0.040200
     40 H272       -0.2670    0.4250    7.2470 hc        1 DDR      0.040200
     41 H281        1.7250    1.1350    8.6160 hc        1 DDR      0.039700
     42 H282        2.4020   -0.5350    8.4960 hc        1 DDR      0.039700
     43 H291        0.3410   -1.4500    9.6160 hc        1 DDR      0.038700
     44 H292       -0.3360    0.2190    9.7350 hc        1 DDR      0.038700
     45 H301        0.7450   -0.4710   11.8750 hc        1 DDR      0.032700
     46 H302        2.3150   -0.7520   11.0160 hc        1 DDR      0.032700
     47 H303        1.6360    0.9210   11.1350 hc        1 DDR      0.032700
     48 H52        -0.0580   -0.1950   -2.4700 h1        1 DDR      0.087700
     49 H531        0.9780    1.4690   -4.3010 h1        1 DDR      0.056700
     50 H532        0.1640    2.1590   -2.7980 h1        1 DDR      0.056700
     51 HO53        2.9430    1.7340   -2.9350 ho        1 DDR      0.416000
     52 H511        1.2100   -1.1310   -4.3220 h1        1 DDR      0.068200
     53 H512        1.9620   -1.8090   -2.7890 h1        1 DDR      0.068200
     54 H21         5.0910    0.6800   -4.6100 hc        1 DDR      0.079700
     55 H22         5.9690   -0.6970   -3.8170 hc        1 DDR      0.079700
     56 H31         5.0920   -0.5390   -6.7930 hc        1 DDR      0.057700
     57 H32         5.8540   -1.9820   -6.0180 hc        1 DDR      0.057700
     58 H41         7.0990    0.8580   -6.1630 hc        1 DDR      0.041700
     59 H42         7.8670   -0.5930   -5.4110 hc        1 DDR      0.041700
     60 H51         7.7690   -1.7900   -7.6260 hc        1 DDR      0.042700
     61 H52A        7.0060   -0.3370   -8.3770 hc        1 DDR      0.042700
     62 H61         9.7820   -0.4110   -7.0020 hc        1 DDR      0.039700
     63 H62         9.0190    1.0430   -7.7520 hc        1 DDR      0.039700
     64 H71         9.6860   -1.6050   -9.2180 hc        1 DDR      0.040200
     65 H72         8.9230   -0.1510   -9.9680 hc        1 DDR      0.040200
     66 H81        11.7000   -0.2260   -8.5940 hc        1 DDR      0.039700
     67 H82        10.9370    1.2280   -9.3440 hc        1 DDR      0.039700
     68 H91        10.8400    0.0350  -11.5580 hc        1 DDR      0.038700
     69 H92        11.6020   -1.4190  -10.8090 hc        1 DDR      0.038700
     70 H101       12.8680    1.4050  -10.9690 hc        1 DDR      0.032700
     71 H102       13.6330   -0.0520  -10.2170 hc        1 DDR      0.032700
     72 H103       13.2950   -0.0240  -11.9970 hc        1 DDR      0.032700
@<TRIPOS>BOND
     1    1    2 2   
     2    2    3 1   
     3    2   12 1   
     4    3    4 1   
     5    3   29 1   
     6    3   30 1   
     7    4    5 1   
     8    4   31 1   
     9    4   32 1   
    10    5    6 1   
    11    5   33 1   
    12    5   34 1   
    13    6    7 1   
    14    6   35 1   
    15    6   36 1   
    16    7    8 1   
    17    7   37 1   
    18    7   38 1   
    19    8    9 1   
    20    8   39 1   
    21    8   40 1   
    22    9   10 1   
    23    9   41 1   
    24    9   42 1   
    25   10   11 1   
    26   10   43 1   
    27   10   44 1   
    28   11   45 1   
    29   11   46 1   
    30   11   47 1   
    31   12   13 1   
    32   13   14 1   
    33   13   16 1   
    34   13   48 1   
    35   14   15 1   
    36   14   49 1   
    37   14   50 1   
    38   15   51 1   
    39   16   17 1   
    40   16   52 1   
    41   16   53 1   
    42   17   18 1   
    43   18   19 2   
    44   18   20 1   
    45   20   21 1   
    46   20   54 1   
    47   20   55 1   
    48   21   22 1   
    49   21   56 1   
    50   21   57 1   
    51   22   23 1   
    52   22   58 1   
    53   22   59 1   
    54   23   24 1   
    55   23   60 1   
    56   23   61 1   
    57   24   25 1   
    58   24   62 1   
    59   24   63 1   
    60   25   26 1   
    61   25   64 1   
    62   25   65 1   
    63   26   27 1   
    64   26   66 1   
    65   26   67 1   
    66   27   28 1   
    67   27   68 1   
    68   27   69 1   
    69   28   70 1   
    70   28   71 1   
    71   28   72 1   
@<TRIPOS>SUBSTRUCTURE
     1 DDR         1 TEMP              0 ****  ****    0 ROOT
