@<TRIPOS>MOLECULE
DDR
   72    71     1     0     0
SMALL
bcc


@<TRIPOS>ATOM
      1 O21        -0.3420    0.7910   -0.4020 o         1 DDR     -0.543000
      2 C21         0.8530    0.5600   -0.2130 c         1 DDR      0.642100
      3 C22         1.6500    0.6510    1.0500 c3        1 DDR     -0.126400
      4 C23         0.8210    0.2380    2.2480 c3        1 DDR     -0.079400
      5 C24         1.5860    0.4680    3.5340 c3        1 DDR     -0.078400
      6 C25         0.7700    0.0380    4.7350 c3        1 DDR     -0.079400
      7 C26         1.5300    0.2700    6.0240 c3        1 DDR     -0.079400
      8 C27         0.7170   -0.1600    7.2250 c3        1 DDR     -0.079400
      9 C28         1.4760    0.0710    8.5140 c3        1 DDR     -0.079400
     10 C29         0.6630   -0.3590    9.7170 c3        1 DDR     -0.080400
     11 C30         1.4150   -0.1300   11.0020 c3        1 DDR     -0.093100
     12 O52         1.6180    0.1640   -1.2810 os        1 DDR     -0.435900
     13 C52         0.9890    0.1230   -2.5710 c3        1 DDR      0.102100
     14 C53         0.9940    1.5210   -3.1930 c3        1 DDR      0.122400
     15 O53         2.1240    2.2810   -2.8300 oh        1 DDR     -0.595800
     16 C51         1.7680   -0.9080   -3.3860 c3        1 DDR      0.136400
     17 O51         3.0150   -0.3100   -3.7670 os        1 DDR     -0.455900
     18 C1          3.9510   -1.1370   -4.3320 c         1 DDR      0.637100
     19 O1          3.6500   -2.3190   -4.5030 o         1 DDR     -0.536000
     20 C2          5.2310   -0.4260   -4.6400 c3        1 DDR     -0.127400
     21 C3          5.7880   -0.8670   -5.9770 c3        1 DDR     -0.079400
     22 C4          7.1490   -0.2500   -6.2200 c3        1 DDR     -0.079400
     23 C5          7.7050   -0.6730   -7.5630 c3        1 DDR     -0.079400
     24 C6          9.0680   -0.0610   -7.8080 c3        1 DDR     -0.079400
     25 C7          9.6250   -0.4830   -9.1500 c3        1 DDR     -0.079400
     26 C8         10.9880    0.1280   -9.3960 c3        1 DDR     -0.079400
     27 C9         11.5460   -0.2940  -10.7390 c3        1 DDR     -0.080400
     28 C10        12.9030    0.3120  -10.9880 c3        1 DDR     -0.093100
     29 H221        1.9840    1.7200    1.1540 hc        1 DDR      0.081200
     30 H222        2.5680    0.0120    0.9650 hc        1 DDR      0.081200
     31 H231       -0.1370    0.8250    2.2600 hc        1 DDR      0.057200
     32 H232        0.5440   -0.8450    2.1590 hc        1 DDR      0.057200
     33 H241        2.5490   -0.1070    3.5080 hc        1 DDR      0.041700
     34 H242        1.8500    1.5540    3.6270 hc        1 DDR      0.041700
     35 H251        0.5080   -1.0480    4.6430 hc        1 DDR      0.042700
     36 H252       -0.1940    0.6110    4.7580 hc        1 DDR      0.042700
     37 H261        1.7920    1.3570    6.1160 hc        1 DDR      0.040200
     38 H262        2.4960   -0.3010    5.9990 hc        1 DDR      0.040200
     39 H271        0.4550   -1.2470    7.1330 hc        1 DDR      0.040200
     40 H272       -0.2490    0.4110    7.2500 hc        1 DDR      0.040200
     41 H281        1.7370    1.1590    8.6070 hc        1 DDR      0.039700
     42 H282        2.4420   -0.4990    8.4900 hc        1 DDR      0.039700
     43 H291        0.4020   -1.4460    9.6210 hc        1 DDR      0.038700
     44 H292       -0.3030    0.2110    9.7380 hc        1 DDR      0.038700
     45 H301        2.3690   -0.7100   11.0100 hc        1 DDR      0.032700
     46 H302        0.7990   -0.4540   11.8760 hc        1 DDR      0.032700
     47 H303        1.6630    0.9520   11.1270 hc        1 DDR      0.032700
     48 H52        -0.0720   -0.2410   -2.4650 h1        1 DDR      0.087700
     49 H531        0.9360    1.4240   -4.3100 h1        1 DDR      0.056700
     50 H532        0.1180    2.1130   -2.8090 h1        1 DDR      0.056700
     51 HO53        2.9030    1.7220   -2.9530 ho        1 DDR      0.416000
     52 H511        1.2020   -1.1710   -4.3170 h1        1 DDR      0.068200
     53 H512        1.9660   -1.8320   -2.7820 h1        1 DDR      0.068200
     54 H21         5.9550   -0.6700   -3.8160 hc        1 DDR      0.079700
     55 H22         5.0590    0.6830   -4.6300 hc        1 DDR      0.079700
     56 H31         5.0840   -0.5660   -6.7960 hc        1 DDR      0.057700
     57 H32         5.8640   -1.9870   -5.9990 hc        1 DDR      0.057700
     58 H41         7.8550   -0.5610   -5.4060 hc        1 DDR      0.041700
     59 H42         7.0690    0.8690   -6.1800 hc        1 DDR      0.041700
     60 H51         7.0000   -0.3590   -8.3780 hc        1 DDR      0.042700
     61 H52A        7.7810   -1.7910   -7.6030 hc        1 DDR      0.042700
     62 H61         9.7730   -0.3750   -6.9930 hc        1 DDR      0.039700
     63 H62         8.9920    1.0570   -7.7670 hc        1 DDR      0.039700
     64 H71         8.9200   -0.1700   -9.9650 hc        1 DDR      0.040200
     65 H72         9.7010   -1.6020   -9.1920 hc        1 DDR      0.040200
     66 H81        10.9120    1.2460   -9.3550 hc        1 DDR      0.039700
     67 H82        11.6930   -0.1850   -8.5820 hc        1 DDR      0.039700
     68 H91        11.6200   -1.4130  -10.7780 hc        1 DDR      0.038700
     69 H92        10.8390    0.0190  -11.5520 hc        1 DDR      0.038700
     70 H101       12.8450    1.4270  -10.9770 hc        1 DDR      0.032700
     71 H102       13.6290   -0.0080  -10.2010 hc        1 DDR      0.032700
     72 H103       13.2960   -0.0110  -11.9820 hc        1 DDR      0.032700
@<TRIPOS>BOND
     1    1    2 2   
     2    2    3 1   
     3    2   12 1   
     4    3    4 1   
     5    3   29 1   
     6    3   30 1   
     7    4    5 1   
     8    4   31 1   
     9    4   32 1   
    10    5    6 1   
    11    5   33 1   
    12    5   34 1   
    13    6    7 1   
    14    6   35 1   
    15    6   36 1   
    16    7    8 1   
    17    7   37 1   
    18    7   38 1   
    19    8    9 1   
    20    8   39 1   
    21    8   40 1   
    22    9   10 1   
    23    9   41 1   
    24    9   42 1   
    25   10   11 1   
    26   10   43 1   
    27   10   44 1   
    28   11   45 1   
    29   11   46 1   
    30   11   47 1   
    31   12   13 1   
    32   13   14 1   
    33   13   16 1   
    34   13   48 1   
    35   14   15 1   
    36   14   49 1   
    37   14   50 1   
    38   15   51 1   
    39   16   17 1   
    40   16   52 1   
    41   16   53 1   
    42   17   18 1   
    43   18   19 2   
    44   18   20 1   
    45   20   21 1   
    46   20   54 1   
    47   20   55 1   
    48   21   22 1   
    49   21   56 1   
    50   21   57 1   
    51   22   23 1   
    52   22   58 1   
    53   22   59 1   
    54   23   24 1   
    55   23   60 1   
    56   23   61 1   
    57   24   25 1   
    58   24   62 1   
    59   24   63 1   
    60   25   26 1   
    61   25   64 1   
    62   25   65 1   
    63   26   27 1   
    64   26   66 1   
    65   26   67 1   
    66   27   28 1   
    67   27   68 1   
    68   27   69 1   
    69   28   70 1   
    70   28   71 1   
    71   28   72 1   
@<TRIPOS>SUBSTRUCTURE
     1 DDR         1 TEMP              0 ****  ****    0 ROOT
