@<TRIPOS>MOLECULE
DDR
   72    69     1     0     0
SMALL
bcc


@<TRIPOS>ATOM
      1 O21        -1.5010    0.1620    3.5660 o         1 DDR     -0.347000
      2 C21        -0.3780    0.5150    3.2560 c1        1 DDR      0.308000
      3 C22         0.5550    1.1360    4.3150 c2        1 DDR     -0.155000
      4 C23         0.3910    0.3820    5.6480 c3        1 DDR     -0.158000
      5 C24         1.1100    1.1530    6.7680 c3        1 DDR     -0.157000
      6 C25         1.4780    0.1870    7.9010 c3        1 DDR     -0.158000
      7 C26         2.3520    0.9230    8.9440 c3        1 DDR     -0.157000
      8 C27         3.0070   -0.1020    9.8740 c3        1 DDR     -0.158000
      9 C28         4.1060    0.5800   10.6970 c3        1 DDR     -0.158000
     10 C29         4.7500   -0.4520   11.6480 c3        1 DDR     -0.159000
     11 C30         6.0500    0.1020   12.1870 c3        1 DDR     -0.210000
     12 O52         0.0440    0.4530    1.8650 os        1 DDR     -0.280000
     13 C52        -0.9950    0.6600    0.9440 c3        1 DDR      0.033000
     14 C53        -1.0500    2.1080    0.5710 c3        1 DDR     -0.022000
     15 O53        -2.2520    2.6880    1.0830 oh        1 DDR     -0.324000
     16 C51        -0.7410   -0.1900   -0.3210 c3        1 DDR     -0.033000
     17 O51        -1.6990    0.1640   -1.3430 os        1 DDR     -0.282000
     18 C1         -1.5500   -0.5780   -2.5590 c1        1 DDR      0.306000
     19 O1         -1.2060   -1.7490   -2.5200 o         1 DDR     -0.348000
     20 C2         -1.9070    0.0750   -3.9080 c2        1 DDR     -0.155000
     21 C3         -1.6260   -0.9050   -5.0370 c3        1 DDR     -0.158000
     22 C4         -1.7760   -0.1830   -6.3980 c3        1 DDR     -0.157000
     23 C5         -1.9520   -1.2490   -7.5400 c3        1 DDR     -0.158000
     24 C6         -1.8010   -0.5530   -8.9320 c3        1 DDR     -0.157000
     25 C7         -2.1850   -1.5450  -10.0490 c3        1 DDR     -0.158000
     26 C8         -2.1350   -0.8220  -11.4280 c3        1 DDR     -0.158000
     27 C9         -2.8920   -1.6840  -12.4950 c3        1 DDR     -0.159000
     28 C10        -2.8810   -0.9650  -13.8300 c3        1 DDR     -0.210000
     29 H221        1.4710    1.0670    4.0170 ha        1 DDR      0.118000
     30 H222        0.3190    2.0900    4.4440 ha        1 DDR      0.118000
     31 H231       -0.5650    0.3050    5.8650 hc        1 DDR      0.098250
     32 H232        0.7750   -0.5040    5.5680 hc        1 DDR      0.098250
     33 H241        1.9290    1.5640    6.4090 hc        1 DDR      0.080500
     34 H242        0.5200    1.8510    7.1140 hc        1 DDR      0.080500
     35 H251        1.9790   -0.5750    7.5320 hc        1 DDR      0.082500
     36 H252        0.6620   -0.1370    8.3300 hc        1 DDR      0.082500
     37 H261        1.7910    1.5310    9.4710 hc        1 DDR      0.079000
     38 H262        3.0440    1.4350    8.4850 hc        1 DDR      0.079000
     39 H271        2.3300   -0.4740   10.4780 hc        1 DDR      0.079750
     40 H272        3.3940   -0.8140    9.3460 hc        1 DDR      0.079750
     41 H281        4.7910    0.9390   10.0940 hc        1 DDR      0.079000
     42 H282        3.7120    1.3180   11.2280 hc        1 DDR      0.079000
     43 H291        4.1370   -0.6360   12.3960 hc        1 DDR      0.078000
     44 H292        4.9240   -1.2730   11.1640 hc        1 DDR      0.078000
     45 H301        6.5320   -0.6030   12.6610 hc        1 DDR      0.072000
     46 H302        6.5930    0.4270   11.4520 hc        1 DDR      0.072000
     47 H303        5.8590    0.8460   12.8100 hc        1 DDR      0.072000
     48 H52        -1.8480    0.3950    1.3500 h1        1 DDR      0.147000
     49 H531       -0.2770    2.5720    0.9490 h1        1 DDR      0.083000
     50 H532       -1.0360    2.1930   -0.3930 h1        1 DDR      0.083000
     51 HO53       -2.2170    3.5590    0.9960 ho        1 DDR      0.202000
     52 H511       -0.8360   -1.1480   -0.0980 h1        1 DDR      0.104500
     53 H512        0.1690   -0.0200   -0.6530 h1        1 DDR      0.104500
     54 H21        -1.3730    0.8710   -4.0330 ha        1 DDR      0.118000
     55 H22        -2.8640    0.3160   -3.9130 ha        1 DDR      0.118000
     56 H31        -2.2620   -1.6490   -4.9900 hc        1 DDR      0.098250
     57 H32        -0.7240   -1.2460   -4.9510 hc        1 DDR      0.098250
     58 H41        -2.5700    0.4080   -6.3720 hc        1 DDR      0.080500
     59 H42        -0.9790    0.3520   -6.5720 hc        1 DDR      0.080500
     60 H51        -1.2680   -1.9440   -7.4460 hc        1 DDR      0.082500
     61 H52A       -2.8450   -1.6580   -7.4730 hc        1 DDR      0.082500
     62 H61        -0.8810   -0.2690   -9.0530 hc        1 DDR      0.079000
     63 H62        -2.3920    0.2260   -8.9710 hc        1 DDR      0.079000
     64 H71        -1.5590   -2.2900  -10.0510 hc        1 DDR      0.079750
     65 H72        -3.0940   -1.8820   -9.8900 hc        1 DDR      0.079750
     66 H81        -1.1990   -0.7070  -11.7040 hc        1 DDR      0.079000
     67 H82        -2.5660    0.0600  -11.3520 hc        1 DDR      0.079000
     68 H91        -3.8170   -1.8200  -12.2070 hc        1 DDR      0.078000
     69 H92        -2.4480   -2.5500  -12.5880 hc        1 DDR      0.078000
     70 H101       -1.9650   -0.9480  -14.1850 hc        1 DDR      0.072000
     71 H102       -3.2000   -0.0520  -13.7110 hc        1 DDR      0.072000
     72 H103       -3.4660   -1.4350  -14.4590 hc        1 DDR      0.072000
@<TRIPOS>BOND
     1    1    2 1   
     2    2   12 1   
     3    3    4 1   
     4    3   29 1   
     5    3   30 1   
     6    4    5 1   
     7    4   31 1   
     8    4   32 1   
     9    5    6 1   
    10    5   33 1   
    11    5   34 1   
    12    6    7 1   
    13    6   35 1   
    14    6   36 1   
    15    7    8 1   
    16    7   37 1   
    17    7   38 1   
    18    8    9 1   
    19    8   39 1   
    20    8   40 1   
    21    9   10 1   
    22    9   41 1   
    23    9   42 1   
    24   10   11 1   
    25   10   43 1   
    26   10   44 1   
    27   11   45 1   
    28   11   46 1   
    29   11   47 1   
    30   12   13 1   
    31   13   14 1   
    32   13   16 1   
    33   13   48 1   
    34   14   15 1   
    35   14   49 1   
    36   14   50 1   
    37   15   51 1   
    38   16   17 1   
    39   16   52 1   
    40   16   53 1   
    41   17   18 1   
    42   18   19 1   
    43   20   21 1   
    44   20   54 1   
    45   20   55 1   
    46   21   22 1   
    47   21   56 1   
    48   21   57 1   
    49   22   23 1   
    50   22   58 1   
    51   22   59 1   
    52   23   24 1   
    53   23   60 1   
    54   23   61 1   
    55   24   25 1   
    56   24   62 1   
    57   24   63 1   
    58   25   26 1   
    59   25   64 1   
    60   25   65 1   
    61   26   27 1   
    62   26   66 1   
    63   26   67 1   
    64   27   28 1   
    65   27   68 1   
    66   27   69 1   
    67   28   70 1   
    68   28   71 1   
    69   28   72 1   
@<TRIPOS>SUBSTRUCTURE
     1 DDR         1 TEMP              0 ****  ****    0 ROOT
