@<TRIPOS>MOLECULE
DDR
   72    71     1     0     0
SMALL
bcc


@<TRIPOS>ATOM
      1 O21        -3.1290   -3.1810   -0.6010 o         1 DDR     -0.543000
      2 C21        -2.7220   -2.0300   -0.4350 c         1 DDR      0.642100
      3 C22        -3.4550   -0.7340   -0.5820 c3        1 DDR     -0.126400
      4 C23        -4.8990   -0.8720   -0.1450 c3        1 DDR     -0.079400
      5 C24        -5.6680    0.4000   -0.4280 c3        1 DDR     -0.078400
      6 C25        -7.1080    0.2770    0.0240 c3        1 DDR     -0.079400
      7 C26        -7.8820    1.5460   -0.2630 c3        1 DDR     -0.079400
      8 C27        -9.3210    1.4230    0.1900 c3        1 DDR     -0.079400
      9 C28       -10.0970    2.6920   -0.0960 c3        1 DDR     -0.079400
     10 C29       -11.5360    2.5710    0.3560 c3        1 DDR     -0.080400
     11 C30       -12.3120    3.8320    0.0740 c3        1 DDR     -0.093100
     12 O52        -1.4140   -1.8470   -0.0670 os        1 DDR     -0.435900
     13 C52        -0.5780   -3.0110    0.0220 c3        1 DDR      0.102100
     14 C53        -0.0500   -3.3750   -1.3680 c3        1 DDR      0.122400
     15 O53         0.1570   -2.2490   -2.1900 oh        1 DDR     -0.595800
     16 C51         0.5250   -2.6620    1.0200 c3        1 DDR      0.136400
     17 O51         1.4460   -1.7820    0.3610 os        1 DDR     -0.455900
     18 C1          2.4040   -1.1900    1.1430 c         1 DDR      0.637100
     19 O1          2.4300   -1.4780    2.3410 o         1 DDR     -0.536000
     20 C2          3.2740   -0.2520    0.3690 c3        1 DDR     -0.127400
     21 C3          4.7240   -0.3880    0.7880 c3        1 DDR     -0.079400
     22 C4          5.5790    0.6570    0.1030 c3        1 DDR     -0.079400
     23 C5          7.0320    0.5160    0.5030 c3        1 DDR     -0.079400
     24 C6          7.8900    1.5630   -0.1760 c3        1 DDR     -0.079400
     25 C7          9.3440    1.4220    0.2230 c3        1 DDR     -0.079400
     26 C8         10.2020    2.4680   -0.4550 c3        1 DDR     -0.079400
     27 C9         11.6560    2.3290   -0.0580 c3        1 DDR     -0.080400
     28 C10        12.5150    3.3690   -0.7300 c3        1 DDR     -0.093100
     29 H221       -2.9360    0.0630    0.0130 hc        1 DDR      0.081200
     30 H222       -3.4000   -0.4440   -1.6660 hc        1 DDR      0.081200
     31 H231       -5.3710   -1.7360   -0.6840 hc        1 DDR      0.057200
     32 H232       -4.9400   -1.1040    0.9520 hc        1 DDR      0.057200
     33 H241       -5.1810    1.2620    0.0990 hc        1 DDR      0.041700
     34 H242       -5.6370    0.6240   -1.5270 hc        1 DDR      0.041700
     35 H251       -7.5940   -0.5870   -0.5020 hc        1 DDR      0.042700
     36 H252       -7.1400    0.0560    1.1230 hc        1 DDR      0.042700
     37 H261       -7.3950    2.4100    0.2620 hc        1 DDR      0.040200
     38 H262       -7.8510    1.7660   -1.3620 hc        1 DDR      0.040200
     39 H271       -9.8080    0.5590   -0.3340 hc        1 DDR      0.040200
     40 H272       -9.3530    1.2030    1.2900 hc        1 DDR      0.040200
     41 H281       -9.6100    3.5560    0.4280 hc        1 DDR      0.039700
     42 H282      -10.0660    2.9120   -1.1960 hc        1 DDR      0.039700
     43 H291      -12.0210    1.7050   -0.1680 hc        1 DDR      0.038700
     44 H292      -11.5650    2.3490    1.4560 hc        1 DDR      0.038700
     45 H301      -11.8590    4.7020    0.6070 hc        1 DDR      0.032700
     46 H302      -12.3160    4.0560   -1.0200 hc        1 DDR      0.032700
     47 H303      -13.3700    3.7210    0.4140 hc        1 DDR      0.032700
     48 H52        -1.1710   -3.8740    0.4400 h1        1 DDR      0.087700
     49 H531        0.9060   -3.9530   -1.2550 h1        1 DDR      0.056700
     50 H532       -0.8140   -3.9910   -1.9170 h1        1 DDR      0.056700
     51 HO53        0.6450   -1.5950   -1.6710 ho        1 DDR      0.416000
     52 H511        0.1030   -2.1530    1.9250 h1        1 DDR      0.068200
     53 H512        1.0770   -3.5900    1.3230 h1        1 DDR      0.068200
     54 H21         3.1610   -0.4490   -0.7300 hc        1 DDR      0.079700
     55 H22         2.9050    0.7900    0.5720 hc        1 DDR      0.079700
     56 H31         4.8020   -0.2790    1.9020 hc        1 DDR      0.057700
     57 H32         5.0970   -1.4130    0.5260 hc        1 DDR      0.057700
     58 H41         5.4820    0.5540   -1.0100 hc        1 DDR      0.041700
     59 H42         5.2120    1.6820    0.3750 hc        1 DDR      0.041700
     60 H51         7.1270    0.6160    1.6160 hc        1 DDR      0.042700
     61 H52A        7.4000   -0.5070    0.2290 hc        1 DDR      0.042700
     62 H61         7.7940    1.4640   -1.2890 hc        1 DDR      0.039700
     63 H62         7.5220    2.5870    0.0980 hc        1 DDR      0.039700
     64 H71         9.4400    1.5210    1.3360 hc        1 DDR      0.040200
     65 H72         9.7110    0.3980   -0.0520 hc        1 DDR      0.040200
     66 H81        10.1070    2.3700   -1.5690 hc        1 DDR      0.039700
     67 H82         9.8350    3.4920   -0.1810 hc        1 DDR      0.039700
     68 H91        11.7500    2.4260    1.0560 hc        1 DDR      0.038700
     69 H92        12.0220    1.3040   -0.3310 hc        1 DDR      0.038700
     70 H101       12.4550    3.2720   -1.8410 hc        1 DDR      0.032700
     71 H102       12.1820    4.3970   -0.4500 hc        1 DDR      0.032700
     72 H103       13.5820    3.2480   -0.4230 hc        1 DDR      0.032700
@<TRIPOS>BOND
     1    1    2 2   
     2    2    3 1   
     3    2   12 1   
     4    3    4 1   
     5    3   29 1   
     6    3   30 1   
     7    4    5 1   
     8    4   31 1   
     9    4   32 1   
    10    5    6 1   
    11    5   33 1   
    12    5   34 1   
    13    6    7 1   
    14    6   35 1   
    15    6   36 1   
    16    7    8 1   
    17    7   37 1   
    18    7   38 1   
    19    8    9 1   
    20    8   39 1   
    21    8   40 1   
    22    9   10 1   
    23    9   41 1   
    24    9   42 1   
    25   10   11 1   
    26   10   43 1   
    27   10   44 1   
    28   11   45 1   
    29   11   46 1   
    30   11   47 1   
    31   12   13 1   
    32   13   14 1   
    33   13   16 1   
    34   13   48 1   
    35   14   15 1   
    36   14   49 1   
    37   14   50 1   
    38   15   51 1   
    39   16   17 1   
    40   16   52 1   
    41   16   53 1   
    42   17   18 1   
    43   18   19 2   
    44   18   20 1   
    45   20   21 1   
    46   20   54 1   
    47   20   55 1   
    48   21   22 1   
    49   21   56 1   
    50   21   57 1   
    51   22   23 1   
    52   22   58 1   
    53   22   59 1   
    54   23   24 1   
    55   23   60 1   
    56   23   61 1   
    57   24   25 1   
    58   24   62 1   
    59   24   63 1   
    60   25   26 1   
    61   25   64 1   
    62   25   65 1   
    63   26   27 1   
    64   26   66 1   
    65   26   67 1   
    66   27   28 1   
    67   27   68 1   
    68   27   69 1   
    69   28   70 1   
    70   28   71 1   
    71   28   72 1   
@<TRIPOS>SUBSTRUCTURE
     1 DDR         1 TEMP              0 ****  ****    0 ROOT
