@<TRIPOS>MOLECULE
DDS
   41    33     1     0     0
SMALL
bcc


@<TRIPOS>ATOM
      1 N1         -1.2430   -2.2360   -3.2970 n1        1 DDS     -0.255000
      2 C2          0.0950   -2.3530   -3.0500 c1        1 DDS     -0.101000
      3 N3          0.7990   -1.2830   -2.6090 n1        1 DDS     -0.180000
      4 C4          0.1710   -0.0830   -2.4110 c1        1 DDS     -0.066000
      5 C5         -1.1550    0.0370   -2.6550 c1        1 DDS     -0.066000
      6 C6         -1.8690   -1.0480   -3.1020 c1        1 DDS      0.018000
      7 N6         -3.2190   -1.4710   -3.1900 n3        1 DDS     -0.290000
      8 N7         -1.5210    1.3270   -2.3760 n1        1 DDS     -0.270000
      9 C8         -0.4100    1.9980   -1.9600 c1        1 DDS     -0.119000
     10 N9          0.6350    1.1320   -1.9800 n1        1 DDS     -0.270000
     11 PA         -0.2010    0.3690    2.3750 p3        1 DDS      2.752000
     12 PB         -1.6200   -1.5590    3.8260 p3        1 DDS      2.788000
     13 PG         -2.4550   -4.1300    4.7020 p3        1 DDS      2.668000
     14 C1'         2.0780    1.2490   -2.0290 c2        1 DDS      0.180000
     15 O1A        -1.3840    0.8320    1.5980 o         1 DDS     -0.895000
     16 O1B        -2.9330   -1.5770    3.0600 o         1 DDS     -1.236000
     17 O1G        -1.8450   -5.5310    4.6080 o         1 DDS     -1.279500
     18 C2'         2.5120    2.7480   -1.7730 c3        1 DDS     -0.182000
     19 O2A        -0.0160    1.2490    3.5800 os        1 DDS     -1.235000
     20 O2B        -1.7220   -0.5540    5.0020 os        1 DDS     -1.235000
     21 O2G        -3.0140   -3.9140    6.1010 os        1 DDS     -1.235000
     22 C3'         3.0830    2.7690   -0.3960 c3        1 DDS     -0.194000
     23 O3A        -0.4290   -1.1100    2.8400 os        1 DDS     -1.253000
     24 O3B        -1.3150   -3.0270    4.4000 os        1 DDS     -1.284000
     25 O3G        -3.5780   -3.9980    3.6800 o         1 DDS     -1.279500
     26 C4'         2.7510    1.6020    0.1280 c3        1 DDS      0.006000
     27 O4'         2.5980    0.5900   -1.0940 os        1 DDS     -0.295000
     28 C5'         1.4580    1.7200    0.8490 c3        1 DDS      0.061000
     29 O5'         1.1200    0.4500    1.4430 os        1 DDS     -0.745000
     30 H2          0.5510   -3.2110   -3.3060 ha        1 DDS      0.138000
     31 HN6        -3.4300   -2.2290   -3.6580 hn        1 DDS      0.149000
     32 HN6A       -3.8800   -1.0030   -2.7460 hn        1 DDS      0.149000
     33 H8         -0.3880    2.9070   -1.6220 DU        1 DDS      0.358000
     34 H1'         2.4170    0.9430   -2.8920 h4        1 DDS      0.067000
     35 H2'         3.1700    3.0140   -2.4070 hc        1 DDS      0.089000
     36 H2'A        1.7280    3.3430   -1.8270 hc        1 DDS      0.089000
     37 H3'         4.0420    2.8580   -0.4330 hc        1 DDS      0.112500
     38 H3'A        2.6880    3.5100    0.1300 hc        1 DDS      0.112500
     39 H4'         3.4480    1.2950    0.7350 h1        1 DDS      0.086000
     40 H5'         1.5350    2.3900    1.5420 h1        1 DDS      0.072000
     41 H5'A        0.7490    1.9840    0.2140 h1        1 DDS      0.072000
@<TRIPOS>BOND
     1    1    6 1   
     2    2    3 1   
     3    2   30 1   
     4    4    5 1   
     5    6    7 1   
     6    7   31 1   
     7    7   32 1   
     8    8    9 1   
     9    9   10 1   
    10   11   15 1   
    11   11   23 1   
    12   11   29 1   
    13   12   16 1   
    14   12   23 1   
    15   12   24 1   
    16   13   17 1   
    17   13   24 1   
    18   13   25 1   
    19   14   18 1   
    20   14   27 1   
    21   14   34 1   
    22   18   22 1   
    23   18   35 1   
    24   18   36 1   
    25   22   26 1   
    26   22   37 1   
    27   22   38 1   
    28   26   27 1   
    29   26   28 1   
    30   26   39 1   
    31   28   29 1   
    32   28   40 1   
    33   28   41 1   
@<TRIPOS>SUBSTRUCTURE
     1 DDS         1 TEMP              0 ****  ****    0 ROOT
