@<TRIPOS>MOLECULE
DDS
   41    43     1     0     0
SMALL
bcc


@<TRIPOS>ATOM
      1 N1          0.0000    0.0000    0.0000 nb        1 DDS     -0.674000
      2 C2          1.3200    0.0000    0.0000 ca        1 DDS      0.505900
      3 N3          2.0270    0.0000    1.1110 nb        1 DDS     -0.771000
      4 C4          1.4260    0.0010    2.2960 ca        1 DDS      0.266800
      5 C5          0.0210    0.0000    2.3490 ca        1 DDS     -0.191200
      6 C6         -0.6880    0.0010    1.1370 ca        1 DDS      0.345200
      7 N6         -2.0730    0.0010    1.1260 nv        1 DDS     -0.594500
      8 N7         -0.3290   -0.0000    3.6580 nc        1 DDS     -0.553100
      9 C8          0.7450    0.0010    4.3930 cd        1 DDS      0.165700
     10 N9          1.8530    0.0010    3.5990 na        1 DDS      0.201000
     11 PA          4.4130   -1.6780    9.5620 p5        1 DDS      0.945800
     12 PB          5.3620   -4.1190   10.9510 p5        1 DDS      1.003800
     13 PG          5.3330   -7.0640   11.2920 p5        1 DDS      0.845900
     14 C1'         3.2460    0.0000    4.0550 c3        1 DDS      0.157800
     15 O1A         5.2750   -0.7940   10.3800 o         1 DDS     -0.699000
     16 O1B         4.4000   -3.9440   12.0620 o         1 DDS     -0.691000
     17 O1G         6.1620   -6.9660   12.5140 o         1 DDS     -0.623167
     18 C2'         3.7830    1.4440    4.0970 c3        1 DDS     -0.081400
     19 O2A         2.8910   -1.5650   10.0740 o         1 DDS     -0.699000
     20 O2B         6.8320   -3.6830   11.4400 o         1 DDS     -0.691000
     21 O2G         3.8110   -7.3950   11.7000 o         1 DDS     -0.623167
     22 C3'         4.2120    1.6440    5.5720 c3        1 DDS     -0.068400
     23 O3A         4.9160   -3.2010    9.7060 os        1 DDS     -0.488800
     24 O3B         5.3830   -5.6630   10.4970 os        1 DDS     -0.488800
     25 O3G         5.9030   -8.2370   10.3490 o         1 DDS     -0.623167
     26 C4'         4.3860    0.1850    6.0620 c3        1 DDS      0.160100
     27 O4'         3.3220   -0.5240    5.3910 os        1 DDS     -0.359600
     28 C5'         4.2150    0.1030    7.5800 c3        1 DDS      0.307400
     29 O5'         4.4950   -1.2280    8.0190 os        1 DDS     -0.493200
     30 H2          1.8380    0.1120   -0.9440 h5        1 DDS     -0.047900
     31 HN6        -2.5760    0.7610    1.5390 hn        1 DDS      0.229800
     32 HN6A       -2.5700   -0.7750    0.7350 hn        1 DDS      0.229800
     33 H8          0.7560   -0.0030    5.4760 h5        1 DDS      0.046800
     34 H1'         3.8560   -0.5990    3.3900 h2        1 DDS      0.028700
     35 H2'         3.0020    2.1460    3.8320 hc        1 DDS      0.012700
     36 H2'A        4.6360    1.5490    3.4380 hc        1 DDS      0.012700
     37 H3'         3.4340    2.1480    6.1330 hc        1 DDS      0.012200
     38 H3'A        5.1500    2.1830    5.6290 hc        1 DDS      0.012200
     39 H4'         5.3500   -0.2040    5.7590 h1        1 DDS      0.012700
     40 H5'         4.9000    0.7920    8.0580 h1        1 DDS     -0.022300
     41 H5'A        3.1980    0.3640    7.8430 h1        1 DDS     -0.022300
@<TRIPOS>BOND
     1    1    2 ar  
     2    1    6 ar  
     3    2    3 ar  
     4    2   30 1   
     5    3    4 ar  
     6    4    5 ar  
     7    4   10 1   
     8    5    6 ar  
     9    5    8 1   
    10    6    7 1   
    11    7   31 1   
    12    7   32 1   
    13    8    9 2   
    14    9   10 1   
    15    9   33 1   
    16   10   14 1   
    17   11   15 1   
    18   11   19 1   
    19   11   23 1   
    20   11   29 1   
    21   12   16 1   
    22   12   20 1   
    23   12   23 1   
    24   12   24 1   
    25   13   17 1   
    26   13   21 1   
    27   13   24 1   
    28   13   25 1   
    29   14   18 1   
    30   14   27 1   
    31   14   34 1   
    32   18   22 1   
    33   18   35 1   
    34   18   36 1   
    35   22   26 1   
    36   22   37 1   
    37   22   38 1   
    38   26   27 1   
    39   26   28 1   
    40   26   39 1   
    41   28   29 1   
    42   28   40 1   
    43   28   41 1   
@<TRIPOS>SUBSTRUCTURE
     1 DDS         1 TEMP              0 ****  ****    0 ROOT
