@<TRIPOS>MOLECULE
DDT
   77    81     1     0     0
SMALL
bcc


@<TRIPOS>ATOM
      1 C1          1.2170   -0.6090    7.6350 ca        1 DDT      0.126600
      2 C2         -0.0390   -1.1290    7.9130 ca        1 DDT     -0.184000
      3 C3         -0.8980   -1.5320    6.8700 ca        1 DDT     -0.100000
      4 C4         -0.5260   -1.3950    5.5590 ca        1 DDT     -0.144000
      5 C4A         0.7510   -0.8670    5.2160 ca        1 DDT      0.077000
      6 C5          1.1460   -0.7050    3.8530 ca        1 DDT     -0.337500
      7 C6          2.4140   -0.2330    3.5760 ca        1 DDT      0.003000
      8 C7          3.3250    0.0820    4.6040 ca        1 DDT     -0.167000
      9 C8          2.9460   -0.0410    5.9180 ca        1 DDT     -0.055000
     10 C8A         1.6450   -0.5010    6.2600 ca        1 DDT     -0.052000
     11 C9          2.2350    1.2300    8.8170 c3        1 DDT      0.165600
     12 C10         1.9560   -0.8930    9.9290 c3        1 DDT      0.165600
     13 N1          2.1200   -0.2070    8.6700 nh        1 DDT     -0.640000
     14 C11        -0.6860    1.4460    1.7960 c3        1 DDT      0.084500
     15 C12        -0.6220    2.6720    2.7940 c         1 DDT      0.908600
     16 C13        -1.8000    1.7930    0.8040 c3        1 DDT     -0.044100
     17 C14        -1.9930    0.8970   -0.3660 ca        1 DDT     -0.051300
     18 C15        -3.2540    0.8770   -0.9860 ca        1 DDT     -0.126000
     19 C16        -3.4840    0.1190   -2.1280 ca        1 DDT     -0.143500
     20 C17        -2.4290   -0.6360   -2.6640 ca        1 DDT      0.093100
     21 C18        -1.1690   -0.6470   -2.0500 ca        1 DDT     -0.143500
     22 C19        -0.9610    0.1210   -0.9070 ca        1 DDT     -0.126000
     23 S           0.1250   -1.0150    2.5080 sy        1 DDT      1.493200
     24 O1          0.9580   -1.0290    1.3520 o         1 DDT     -0.678300
     25 O2         -0.5570   -2.2400    2.7380 o         1 DDT     -0.678300
     26 N          -0.8950    0.1980    2.4980 n3        1 DDT     -0.893100
     27 OC1         0.2040    3.5750    2.5050 o         1 DDT     -0.819300
     28 OC2        -1.4050    2.6610    3.7800 o         1 DDT     -0.819300
     29 O          -2.6380   -1.4480   -3.7540 os        1 DDT     -0.458800
     30 S'         -2.9860   -0.8390   -5.2820 sy        1 DDT      1.615800
     31 O1'        -3.0460   -1.9980   -6.0400 o         1 DDT     -0.658800
     32 O2'        -4.1360   -0.0720   -5.1490 o         1 DDT     -0.658800
     33 C1'         2.0000   -0.0320   -6.5300 ca        1 DDT      0.134600
     34 C2'         2.2240   -1.3920   -6.3700 ca        1 DDT     -0.181000
     35 C3'         1.1810   -2.2540   -5.9720 ca        1 DDT     -0.082000
     36 C4'        -0.0840   -1.7740   -5.7540 ca        1 DDT     -0.156000
     37 C4X        -0.3680   -0.3870   -5.9010 ca        1 DDT      0.080000
     38 C5'        -1.6810    0.1250   -5.6610 ca        1 DDT     -0.416500
     39 C6'        -1.8890    1.4930   -5.7460 ca        1 DDT      0.022000
     40 C7'        -0.8480    2.3790   -6.0740 ca        1 DDT     -0.181000
     41 C8'         0.4130    1.8920   -6.3310 ca        1 DDT     -0.023000
     42 C8X         0.6820    0.4990   -6.2670 ca        1 DDT     -0.062000
     43 C9'         4.3680    0.4950   -6.4630 c3        1 DDT      0.166600
     44 CA'         2.9920    1.3080   -8.2750 c3        1 DDT      0.166600
     45 HC2        -0.3960   -1.2310    8.9490 ha        1 DDT      0.124000
     46 HC3        -1.8850   -1.9450    7.1280 ha        1 DDT      0.127000
     47 HC4        -1.2160   -1.7180    4.7610 ha        1 DDT      0.161000
     48 HC6         2.7310   -0.0940    2.5250 ha        1 DDT      0.161000
     49 HC7         4.3300    0.4420    4.3390 ha        1 DDT      0.130000
     50 HC8         3.6630    0.2140    6.7150 ha        1 DDT      0.138000
     51 HC91        3.1850    1.4460    9.3730 h1        1 DDT      0.034033
     52 HC92        2.2810    1.7120    7.8060 h1        1 DDT      0.034033
     53 HC93        1.3770    1.6790    9.3880 h1        1 DDT      0.034033
     54 H101        1.8520   -1.9940    9.7450 h1        1 DDT      0.034033
     55 H102        2.8780   -0.7100   10.5420 h1        1 DDT      0.034033
     56 H103        1.0660   -0.5410   10.5210 h1        1 DDT      0.034033
     57 HC11        0.2990    1.3920    1.2490 h1        1 DDT      0.059700
     58 H131       -2.7660    1.8790    1.3740 hc        1 DDT      0.068200
     59 H132       -1.5520    2.8220    0.4140 hc        1 DDT      0.068200
     60 HC15       -4.0750    1.4720   -0.5580 ha        1 DDT      0.152500
     61 HC16       -4.4690    0.1120   -2.6180 ha        1 DDT      0.145500
     62 HC18       -0.3620   -1.2680   -2.4630 ha        1 DDT      0.145500
     63 HC19        0.0310    0.0970   -0.4210 ha        1 DDT      0.152500
     64 H          -1.5990    0.3140    3.1980 hn        1 DDT      0.469800
     65 H2'1        3.2200   -1.8270   -6.5430 ha        1 DDT      0.134000
     66 H3'1        1.3980   -3.3260   -5.8430 ha        1 DDT      0.139000
     67 H4'1       -0.8900   -2.4660   -5.4540 ha        1 DDT      0.166000
     68 H6'1       -2.8960    1.9070   -5.5450 ha        1 DDT      0.164000
     69 H7'1       -1.0500    3.4600   -6.1070 ha        1 DDT      0.143000
     70 H8'1        1.2270    2.5960   -6.5680 ha        1 DDT      0.150000
     71 H9'1        5.0230    1.4040   -6.5310 h1        1 DDT      0.036367
     72 H9'2        4.3290    0.1530   -5.3960 h1        1 DDT      0.036367
     73 H9'3        4.8270   -0.3190   -7.0890 h1        1 DDT      0.036367
     74 HB1         3.6420    2.2160   -8.3790 h1        1 DDT      0.036367
     75 HB2         3.3540    0.5240   -8.9950 h1        1 DDT      0.036367
     76 HB3         1.9370    1.5800   -8.5440 h1        1 DDT      0.036367
     77 N1'         3.0430    0.8730   -6.8970 nh        1 DDT     -0.643000
@<TRIPOS>BOND
     1    1    2 ar  
     2    1   10 ar  
     3    1   13 1   
     4    2    3 ar  
     5    2   45 1   
     6    3    4 ar  
     7    3   46 1   
     8    4    5 ar  
     9    4   47 1   
    10    5    6 ar  
    11    5   10 ar  
    12    6    7 ar  
    13    6   23 1   
    14    7    8 ar  
    15    7   48 1   
    16    8    9 ar  
    17    8   49 1   
    18    9   10 ar  
    19    9   50 1   
    20   11   13 1   
    21   11   51 1   
    22   11   52 1   
    23   11   53 1   
    24   12   13 1   
    25   12   54 1   
    26   12   55 1   
    27   12   56 1   
    28   14   15 1   
    29   14   16 1   
    30   14   26 1   
    31   14   57 1   
    32   15   27 1   
    33   15   28 1   
    34   16   17 1   
    35   16   58 1   
    36   16   59 1   
    37   17   18 ar  
    38   17   22 ar  
    39   18   19 ar  
    40   18   60 1   
    41   19   20 ar  
    42   19   61 1   
    43   20   21 ar  
    44   20   29 1   
    45   21   22 ar  
    46   21   62 1   
    47   22   63 1   
    48   23   24 2   
    49   23   25 2   
    50   23   26 1   
    51   26   64 1   
    52   29   30 1   
    53   30   31 2   
    54   30   32 2   
    55   30   38 1   
    56   33   34 ar  
    57   33   42 ar  
    58   33   77 1   
    59   34   35 ar  
    60   34   65 1   
    61   35   36 ar  
    62   35   66 1   
    63   36   37 ar  
    64   36   67 1   
    65   37   38 ar  
    66   37   42 ar  
    67   38   39 ar  
    68   39   40 ar  
    69   39   68 1   
    70   40   41 ar  
    71   40   69 1   
    72   41   42 ar  
    73   41   70 1   
    74   43   71 1   
    75   43   72 1   
    76   43   73 1   
    77   43   77 1   
    78   44   74 1   
    79   44   75 1   
    80   44   76 1   
    81   44   77 1   
@<TRIPOS>SUBSTRUCTURE
     1 DDT         1 TEMP              0 ****  ****    0 ROOT
