@<TRIPOS>MOLECULE
DDT
   78    79     1     0     0
SMALL
bcc


@<TRIPOS>ATOM
      1 C1         -0.1900   -0.1250    0.3310 c2        1 DDT      0.068000
      2 C2          0.9990   -0.7300    0.6030 c2        1 DDT     -0.173000
      3 C3          1.4260   -1.4160    1.8470 c3        1 DDT     -0.014000
      4 C4          0.4930   -1.4130    2.9340 c1        1 DDT     -0.120000
      5 C4A        -0.2900   -1.4050    3.8400 c1        1 DDT     -0.158000
      6 C5         -1.3020   -1.4050    4.8460 c3        1 DDT     -0.583000
      7 C6         -2.5420   -0.6690    4.4890 c2        1 DDT     -0.137000
      8 C7         -2.8520   -0.0790    3.3230 c2        1 DDT     -0.033000
      9 C8         -2.0080   -0.0360    2.2060 c1        1 DDT     -0.102000
     10 C8A        -1.2090   -0.0510    1.3110 c1        1 DDT     -0.092000
     11 C9         -0.7430    2.3190   -4.9630 c3        1 DDT     -0.272000
     12 C10         0.3030    1.0590   -1.6530 c2        1 DDT     -0.105000
     13 N1         -0.5330    0.4010   -0.9440 n2        1 DDT     -0.134000
     14 C11        -0.5220    1.8100    6.2470 c3        1 DDT     -0.014000
     15 C12        -0.1110    3.9670    2.2510 c1        1 DDT      0.419000
     16 C13         0.2630    2.7940    7.1150 c3        1 DDT     -0.133000
     17 C14         0.5020    2.3730    8.5210 ca        1 DDT     -0.092000
     18 C15         1.6630    2.8230    9.1670 ca        1 DDT     -0.118500
     19 C16         1.9200    2.4940   10.4940 ca        1 DDT     -0.146500
     20 C17         0.9960    1.6980   11.1900 ca        1 DDT      0.099000
     21 C18        -0.1690    1.2380   10.5570 ca        1 DDT     -0.146500
     22 C19        -0.4080    1.5800    9.2280 ca        1 DDT     -0.118500
     23 S          -0.6650   -0.8690    6.4200 s6        1 DDT      2.789000
     24 O1         -1.7910   -0.6700    7.2530 o         1 DDT     -0.924500
     25 O2          0.2550   -1.8510    6.8300 o         1 DDT     -0.924500
     26 N           0.0750    0.5110    6.1060 n7        1 DDT     -0.886000
     27 OC1        -0.4620    3.8040    3.3770 o         1 DDT     -0.209500
     28 OC2         0.2490    4.1350    1.1300 o         1 DDT     -0.209500
     29 O           1.2490    1.2710   12.4630 os        1 DDT     -0.617000
     30 S'          1.4300    2.3040   13.7940 s6        1 DDT      2.864000
     31 O1'         1.8700    1.5140   14.8290 o         1 DDT     -0.925000
     32 O2'         2.2710    3.2930   13.3030 o         1 DDT     -0.925000
     33 C1'        -3.5820    1.6680   14.1540 c2        1 DDT     -0.187000
     34 C2'        -3.3500    0.3520   13.9660 c2        1 DDT     -0.105000
     35 C3'        -1.9770   -0.2060   13.9470 c3        1 DDT     -0.207000
     36 C4'        -0.8880    0.7000   14.2400 c1        1 DDT     -0.018000
     37 C4X        -1.1150    2.0700   14.7000 c3        1 DDT     -0.067000
     38 C5'        -0.0820    2.9750   14.0450 c2        1 DDT     -0.874000
     39 C6'        -0.3610    4.2730   13.7530 c2        1 DDT      0.065000
     40 C7'        -1.6110    4.8610   14.2490 c2        1 DDT     -0.129000
     41 C8'        -2.5380    3.9310   14.4440 c1        1 DDT     -0.156000
     42 C8X        -2.5110    2.5960   14.4340 c2        1 DDT     -0.018000
     43 C9'        -5.1880    2.9440   12.8590 c3        1 DDT     -0.156000
     44 CA'        -6.0010    1.2740   14.3610 c2        1 DDT     -0.773000
     45 HC2         2.3920   -0.9390    2.1930 hc        1 DDT      0.113500
     46 HC3         1.7760   -0.7670   -0.1840 ha        1 DDT      0.131000
     47 HC4         1.6690   -2.4900    1.5870 hc        1 DDT      0.113500
     48 HC6        -1.6160   -2.4890    5.0010 h1        1 DDT      0.178000
     49 HC7        -3.2850   -0.6550    5.3120 ha        1 DDT      0.155000
     50 HC8        -3.8340    0.4180    3.2010 ha        1 DDT      0.146000
     51 HC91       -1.0640    2.7000   -5.9570 hc        1 DDT      0.068500
     52 HC92       -0.4930    3.1770   -4.3020 hc        1 DDT      0.068500
     53 HC93        0.1530    1.6720   -5.0880 hc        1 DDT      0.068500
     54 H101       -1.5670    1.7270   -4.5090 hc        1 DDT      0.068500
     55 H102        1.3440    1.3210   -1.3820 h4        1 DDT      0.122000
     56 H103       -0.0440    1.4190   -2.6420 h4        1 DDT      0.122000
     57 HC11       -0.6270    2.2810    5.2230 h1        1 DDT      0.101000
     58 H131       -0.3220    3.7560    7.1250 hc        1 DDT      0.096500
     59 H132        1.2480    3.0130    6.6190 hc        1 DDT      0.096500
     60 HC15        2.3870    3.4450    8.6180 ha        1 DDT      0.143000
     61 HC16        2.8270    2.8580   11.0030 ha        1 DDT      0.155000
     62 HC18       -0.8700    0.5930   11.1050 ha        1 DDT      0.155000
     63 HC19       -1.3220    1.2030    8.7390 ha        1 DDT      0.143000
     64 H          -1.5600    1.6840    6.6750 h1        1 DDT      0.101000
     65 H2'1       -1.7600   -0.6510   12.9250 hc        1 DDT      0.173500
     66 H3'1       -4.1860   -0.3570   13.8210 ha        1 DDT      0.173000
     67 H4'1       -1.8940   -1.0750   14.6690 hc        1 DDT      0.173500
     68 H6'1       -0.8800    2.0360   15.8150 hc        1 DDT      0.184000
     69 H7'1        0.3830    4.9330   13.2720 ha        1 DDT      0.172000
     70 H8'1       -1.6530    5.9200   14.5220 ha        1 DDT      0.172000
     71 H9'1       -4.9990    2.8950   14.9080 hn        1 DDT      0.213000
     72 H9'2       -6.2050    3.4150   12.8690 hx        1 DDT      0.112000
     73 H9'3       -4.3950    3.7290   12.7560 hx        1 DDT      0.112000
     74 HB1        -5.1220    2.2210   12.0070 hx        1 DDT      0.112000
     75 HB2        -6.1200    0.8900   15.3710 hx        1 DDT      0.127500
     76 HB3        -6.4320    0.7540   13.5100 hx        1 DDT      0.127500
     77 HN3         1.0230    0.5410    5.8110 hn        1 DDT      0.253000
     78 N1'        -4.9980    2.2120   14.1400 nx        1 DDT      0.247000
@<TRIPOS>BOND
     1    1    2 1   
     2    1   10 1   
     3    1   13 1   
     4    2    3 1   
     5    2   46 1   
     6    3    4 1   
     7    3   45 1   
     8    3   47 1   
     9    4    5 1   
    10    5    6 1   
    11    6    7 1   
    12    6   23 1   
    13    6   48 1   
    14    7    8 1   
    15    7   49 1   
    16    8    9 1   
    17    8   50 1   
    18    9   10 1   
    19   11   51 1   
    20   11   52 1   
    21   11   53 1   
    22   11   54 1   
    23   12   13 1   
    24   12   55 1   
    25   12   56 1   
    26   14   16 1   
    27   14   26 1   
    28   14   57 1   
    29   14   64 1   
    30   15   27 1   
    31   15   28 1   
    32   16   17 1   
    33   16   58 1   
    34   16   59 1   
    35   17   18 1   
    36   17   22 1   
    37   18   19 1   
    38   18   60 1   
    39   19   20 1   
    40   19   61 1   
    41   20   21 1   
    42   20   29 1   
    43   21   22 1   
    44   21   62 1   
    45   22   63 1   
    46   23   24 1   
    47   23   25 1   
    48   23   26 1   
    49   26   77 1   
    50   29   30 1   
    51   30   31 1   
    52   30   32 1   
    53   30   38 1   
    54   33   34 1   
    55   33   42 1   
    56   33   78 1   
    57   34   35 1   
    58   34   66 1   
    59   35   36 1   
    60   35   65 1   
    61   35   67 1   
    62   36   37 1   
    63   37   38 1   
    64   37   42 1   
    65   37   68 1   
    66   38   39 1   
    67   39   40 1   
    68   39   69 1   
    69   40   41 1   
    70   40   70 1   
    71   41   42 1   
    72   43   72 1   
    73   43   73 1   
    74   43   74 1   
    75   43   78 1   
    76   44   75 1   
    77   44   76 1   
    78   44   78 1   
    79   71   78 1   
@<TRIPOS>SUBSTRUCTURE
     1 DDT         1 TEMP              0 ****  ****    0 ROOT
