@<TRIPOS>MOLECULE
DDT
   77    67     1     0     0
SMALL
bcc


@<TRIPOS>ATOM
      1 C1          2.2740    3.2250   -8.6500 c1        1 DDT      0.038000
      2 C2          3.5570    3.5490   -8.2440 c1        1 DDT     -0.181000
      3 C3          4.0650    3.0360   -7.0420 c1        1 DDT     -0.111625
      4 C4          3.2820    2.2030   -6.2590 c1        1 DDT     -0.111625
      5 C4A         1.9770    1.8720   -6.6710 c1        1 DDT      0.070000
      6 C5          1.1830    1.0240   -5.8850 c1        1 DDT     -0.775000
      7 C6         -0.1060    0.6950   -6.3010 c1        1 DDT     -0.111625
      8 C7         -0.6040    1.2080   -7.4970 c1        1 DDT     -0.111625
      9 C8          0.1860    2.0510   -8.2760 c1        1 DDT     -0.059000
     10 C8A         1.4790    2.3810   -7.8590 c1        1 DDT     -0.055000
     11 C9          2.6640    3.5020  -11.0860 c3        1 DDT     -0.110000
     12 C10         1.2900    5.1590   -9.8510 c3        1 DDT     -0.110000
     13 N1          2.0570    3.9500   -9.8670 n3        1 DDT     -0.241000
     14 C11         0.0090    1.3080   -2.1880 c3        1 DDT     -0.053000
     15 C12        -1.3850    1.5530   -2.7790 c2        1 DDT      0.345000
     16 C13         0.1960    2.1720   -0.9710 c3        1 DDT     -0.136000
     17 C14        -0.1370    1.3730    0.2540 c2        1 DDT     -0.059000
     18 C15         0.8460    0.6060    0.8730 c2        1 DDT     -0.125000
     19 C16         0.5310   -0.1510    1.9890 c1        1 DDT     -0.174000
     20 C17        -0.7540   -0.1450    2.4870 c1        1 DDT      0.049000
     21 C18        -1.7300    0.6180    1.8700 c1        1 DDT     -0.136000
     22 C19        -1.4130    1.3800    0.7460 c1        1 DDT     -0.108000
     23 S           1.4730    0.4680   -4.2480 s4        1 DDT      2.048800
     24 O1          0.8280   -0.7630   -4.0020 o         1 DDT     -0.569400
     25 O2          2.8280    0.1100   -4.0590 o         1 DDT     -0.569400
     26 N           0.9970    1.6210   -3.1560 n2        1 DDT     -0.887000
     27 OC1        -2.2980    0.7050   -2.6060 o         1 DDT     -0.555000
     28 OC2        -1.6290    2.6120   -3.3760 o         1 DDT     -0.555000
     29 O          -1.0930   -0.9920    3.5730 os        1 DDT     -0.635000
     30 S'         -0.0720   -1.0820    4.6820 s4        1 DDT      2.041800
     31 O1'         1.1330   -1.9350    4.2580 o         1 DDT     -0.550900
     32 O2'         0.5950    0.2750    4.9340 o         1 DDT     -0.550900
     33 C1'        -1.9430   -4.3680    8.5660 c1        1 DDT      0.045000
     34 C2'        -2.5730   -5.2480    7.7280 c1        1 DDT     -0.111625
     35 C3'        -2.6230   -4.9910    6.3610 c1        1 DDT     -0.111625
     36 C4'        -2.0370   -3.8460    5.8510 c1        1 DDT     -0.144000
     37 C4X        -1.3910   -2.9440    6.7110 c1        1 DDT      0.080000
     38 C5'        -0.8400   -1.7280    6.1920 c1        1 DDT     -0.816000
     39 C6'        -0.2660   -0.8230    7.0410 c1        1 DDT      0.008000
     40 C7'        -0.2170   -1.0850    8.4120 c1        1 DDT     -0.111625
     41 C8'        -0.7470   -2.2560    8.9130 c1        1 DDT     -0.111625
     42 C8X        -1.3410   -3.1930    8.0410 c1        1 DDT     -0.061000
     43 C9'        -3.3200   -4.1140   10.6330 c3        1 DDT     -0.111000
     44 CA'        -1.4980   -5.8030   10.5620 c3        1 DDT     -0.111000
     45 N1'        -2.2600   -4.7670    9.9230 n3        1 DDT     -0.243000
     46 HC2         4.1360    4.1640   -8.8230 ha        1 DDT      0.125000
     47 HC3         4.9130    3.3430   -6.7130 ha        1 DDT      0.144000
     48 HC4         3.6290    1.8520   -5.4370 ha        1 DDT      0.144000
     49 HC6        -0.8370    0.1820   -5.9190 ha        1 DDT      0.144000
     50 HC7        -1.5640    1.0350   -7.5030 ha        1 DDT      0.144000
     51 HC8        -0.5270    2.0200   -8.9760 ha        1 DDT      0.138000
     52 HC91        2.0910    3.7600  -11.8530 h1        1 DDT      0.072833
     53 HC92        2.7640    2.5070  -11.0630 h1        1 DDT      0.072833
     54 HC93        3.5530    3.9190  -11.1840 h1        1 DDT      0.072833
     55 H101        1.2490    5.4970   -8.9610 h1        1 DDT      0.072833
     56 H102        1.7000    5.8010  -10.4130 h1        1 DDT      0.072833
     57 H103        0.3490    4.9700  -10.1850 h1        1 DDT      0.072833
     58 HC11        0.0920    0.3510   -1.9290 h1        1 DDT      0.081000
     59 H131       -0.3950    2.9420   -1.0260 hc        1 DDT      0.104000
     60 H132        1.1670    2.4890   -0.9190 hc        1 DDT      0.104000
     61 HC15        1.8170    0.7170    0.5970 ha        1 DDT      0.158000
     62 HC16        1.1850   -0.7400    2.3650 ha        1 DDT      0.143000
     63 HC18       -2.6260    0.6240    2.2160 ha        1 DDT      0.138000
     64 HC19       -2.1200    1.9500    0.3040 ha        1 DDT      0.201000
     65 H           1.4090    2.4730   -3.1550 hn        1 DDT      0.284000
     66 H2'1       -2.9590   -6.0910    8.0910 ha        1 DDT      0.144000
     67 H3'1       -3.0600   -5.6000    5.7780 ha        1 DDT      0.144000
     68 H4'1       -2.0710   -3.6700    4.9210 ha        1 DDT      0.167000
     69 H6'1        0.1050   -0.0060    6.6950 ha        1 DDT      0.165000
     70 H7'1        0.1500   -0.4360    9.0090 ha        1 DDT      0.144000
     71 H8'1       -0.6880   -2.4510    9.8820 ha        1 DDT      0.144000
     72 H9'1       -3.9020   -4.8000   11.0670 h1        1 DDT      0.075833
     73 H9'2       -2.9350   -3.5210   11.3270 h1        1 DDT      0.075833
     74 H9'3       -3.8620   -3.5730    9.9980 h1        1 DDT      0.075833
     75 HB1        -1.9640   -6.6620   10.4620 h1        1 DDT      0.075833
     76 HB2        -1.4000   -5.6010   11.4900 h1        1 DDT      0.075833
     77 HB3        -0.5730   -5.8640   10.1260 h1        1 DDT      0.075833
@<TRIPOS>BOND
     1    1    2 1   
     2    1   13 1   
     3    2   46 1   
     4    3    4 1   
     5    3   47 1   
     6    4   48 1   
     7    5    6 1   
     8    5   10 1   
     9    6   23 1   
    10    7    8 1   
    11    7   49 1   
    12    8   50 1   
    13    9   10 1   
    14    9   51 1   
    15   11   13 1   
    16   11   52 1   
    17   11   53 1   
    18   11   54 1   
    19   12   13 1   
    20   12   55 1   
    21   12   56 1   
    22   12   57 1   
    23   14   15 1   
    24   14   16 1   
    25   14   26 1   
    26   14   58 1   
    27   15   27 1   
    28   15   28 1   
    29   16   17 1   
    30   16   59 1   
    31   16   60 1   
    32   17   18 1   
    33   17   22 1   
    34   18   19 1   
    35   18   61 1   
    36   19   62 1   
    37   20   21 1   
    38   20   29 1   
    39   21   63 1   
    40   22   64 1   
    41   23   24 1   
    42   23   25 1   
    43   26   65 1   
    44   29   30 1   
    45   30   31 1   
    46   30   32 1   
    47   33   42 1   
    48   33   45 1   
    49   34   35 1   
    50   34   66 1   
    51   35   67 1   
    52   36   37 1   
    53   36   68 1   
    54   37   42 1   
    55   38   39 1   
    56   39   69 1   
    57   40   41 1   
    58   40   70 1   
    59   41   71 1   
    60   43   45 1   
    61   43   72 1   
    62   43   73 1   
    63   43   74 1   
    64   44   45 1   
    65   44   75 1   
    66   44   76 1   
    67   44   77 1   
@<TRIPOS>SUBSTRUCTURE
     1 DDT         1 TEMP              0 ****  ****    0 ROOT
