@<TRIPOS>MOLECULE
DDT
   80    81     1     0     0
SMALL
bcc


@<TRIPOS>ATOM
      1 C1          1.7090   -2.0430   -0.5330 c2        1 DDT     -0.019000
      2 C2          2.0870   -1.7130    0.7420 c2        1 DDT     -0.138000
      3 C3          1.1850   -1.0820    1.7120 c3        1 DDT     -0.190000
      4 C4         -0.1750   -0.8460    1.2440 c2        1 DDT      0.133000
      5 C4A        -0.5790   -1.1810   -0.0370 ca        1 DDT     -0.164000
      6 C5         -1.9280   -0.9220   -0.4490 ca        1 DDT     -0.020000
      7 C6         -2.3400   -1.2430   -1.7200 ca        1 DDT     -0.162000
      8 C7         -1.4320   -1.8260   -2.6280 ca        1 DDT      0.020000
      9 C8         -0.1180   -2.0900   -2.2590 ca        1 DDT     -0.156000
     10 C8A         0.3380   -1.7810   -0.9700 ca        1 DDT      0.126000
     11 C9         -2.4670    5.2520    0.2790 c3        1 DDT     -0.273500
     12 C10         3.5500   -3.3560   -1.2340 c2        1 DDT     -0.057000
     13 N1          2.5990   -2.5440   -1.5090 n2        1 DDT     -0.163000
     14 C11        -1.1430    2.4410    4.9050 c3        1 DDT      0.114000
     15 C12         0.1060    1.5850    4.7280 c2        1 DDT      0.284000
     16 C13         1.2120    2.8230    6.4900 c3        1 DDT      0.012000
     17 C14         0.6060    2.4290    7.7970 ca        1 DDT     -0.121000
     18 C15         0.7640    1.1300    8.2940 ca        1 DDT     -0.097000
     19 C16         0.2830    0.7930    9.5560 ca        1 DDT     -0.130000
     20 C17        -0.3640    1.7770   10.3210 ca        1 DDT      0.034000
     21 C18        -0.5400    3.0810    9.8320 ca        1 DDT     -0.130000
     22 C19        -0.0500    3.3970    8.5670 ca        1 DDT     -0.097000
     23 S          -3.1420    1.5870    3.2730 s4        1 DDT      2.133800
     24 O1         -4.4680    1.9160    3.3610 o         1 DDT     -0.534900
     25 O2         -2.8100    0.7180    2.2470 o         1 DDT     -0.534900
     26 N          -2.2110    2.0460    4.1140 n2        1 DDT     -1.265000
     27 OC1         1.2010    1.7640    5.5280 os        1 DDT     -0.245000
     28 OC2         0.2860    0.6860    3.8980 o         1 DDT     -0.371000
     29 O          -0.9140    1.4030   11.5270 os        1 DDT     -0.506000
     30 S'         -0.1310    1.9690   12.9450 s4        1 DDT      1.585000
     31 O1'         0.9020    0.6520   15.3750 o         1 DDT     -0.287000
     32 O2'        -0.3470    3.3640   12.8180 o         1 DDT     -0.693000
     33 C1'        -1.7220    2.9100   17.5910 c2        1 DDT     -0.036000
     34 C2'        -0.6700    2.3070   18.2070 c2        1 DDT     -0.127000
     35 C3'         0.1920    1.2940   17.5770 c3        1 DDT     -0.187000
     36 C4'         0.0380    1.1650   16.0980 c2        1 DDT      0.263000
     37 C4X        -1.2210    1.6820   15.4960 c2        1 DDT     -0.074000
     38 C5'        -1.5330    1.2750   14.1370 c3        1 DDT     -0.464000
     39 C6'        -2.8210    1.6560   13.6240 c2        1 DDT      0.055000
     40 C7'        -3.6530    2.5000   14.3410 c2        1 DDT     -0.192000
     41 C8'        -3.2920    2.9340   15.6170 c2        1 DDT      0.108000
     42 C8X        -2.0670    2.5130   16.2140 c2        1 DDT      0.005000
     43 C9'        -6.8720    3.5380   12.9570 c3        1 DDT     -0.273500
     44 CA'        -2.2660    4.5570   19.2060 c2        1 DDT     -0.050000
     45 HC2         1.6150   -0.0860    2.0650 hc        1 DDT      0.204500
     46 HC3         3.1170   -1.8950    1.0960 ha        1 DDT      0.164000
     47 HC4         1.1430   -1.6960    2.6690 hc        1 DDT      0.204500
     48 HC6        -2.6180   -0.4560    0.2820 ha        1 DDT      0.191000
     49 HC7        -3.3770   -1.0470   -2.0410 ha        1 DDT      0.175000
     50 HC8        -1.7740   -2.0750   -3.6500 ha        1 DDT      0.174000
     51 HC91       -1.7300    4.4210    0.2310 hc        1 DDT      0.068750
     52 HC92       -2.4260    5.7320    1.2800 hc        1 DDT      0.068750
     53 HC93       -3.4900    4.8570    0.0960 hc        1 DDT      0.068750
     54 H101       -2.2200    6.0060   -0.5000 hc        1 DDT      0.068750
     55 H102        4.2010   -3.6660   -2.0760 h4        1 DDT      0.139500
     56 H103        3.7900   -3.7930   -0.2450 h4        1 DDT      0.139500
     57 HC11       -0.8540    3.5070    4.6550 h1        1 DDT      0.112500
     58 H131       -1.4230    2.3970    6.0020 h1        1 DDT      0.112500
     59 H132        0.7320    3.7470    6.0740 h1        1 DDT      0.122500
     60 HC15        1.2810    0.3740    7.6810 ha        1 DDT      0.159000
     61 HC16        0.3950   -0.2290    9.9480 ha        1 DDT      0.165000
     62 HC18       -1.0410    3.8440   10.4500 ha        1 DDT      0.165000
     63 HC19       -0.1750    4.4220    8.1820 ha        1 DDT      0.159000
     64 H           2.3180    3.0100    6.6310 h1        1 DDT      0.122500
     65 H2'1       -0.0210    0.2820   18.0390 hc        1 DDT      0.168500
     66 H3'1       -0.4120    2.5410   19.2560 ha        1 DDT      0.168000
     67 H4'1        1.2750    1.5190   17.8090 hc        1 DDT      0.168500
     68 H6'1       -1.2970    0.1840   13.9520 h1        1 DDT      0.231000
     69 H7'1       -3.1180    1.2760   12.6260 ha        1 DDT      0.193000
     70 H8'1       -4.6250    2.8180   13.9120 ha        1 DDT      0.197000
     71 H9'1       -6.3690    2.8510   12.2420 hc        1 DDT      0.068750
     72 H9'2       -7.8510    3.8540   12.5330 hc        1 DDT      0.068750
     73 H9'3       -6.2390    4.4360   13.1240 hc        1 DDT      0.068750
     74 HB1        -7.0460    3.0140   13.9220 hc        1 DDT      0.068750
     75 HB2        -1.3040    4.5430   19.7550 h4        1 DDT      0.141500
     76 HB3        -3.0340    5.2600   19.5890 h4        1 DDT      0.141500
     77 H11         0.5670   -2.5390   -3.0010 ha        1 DDT      0.192000
     78 HN3        -0.8860   -0.3700    1.9550 ha        1 DDT      0.201000
     79 H1'1       -3.9820    3.5950   16.1800 ha        1 DDT      0.211000
     80 N1'        -2.5870    3.8580   18.1820 n2        1 DDT     -0.187000
@<TRIPOS>BOND
     1    1    2 1   
     2    1   10 1   
     3    1   13 1   
     4    2    3 1   
     5    2   46 1   
     6    3    4 1   
     7    3   45 1   
     8    3   47 1   
     9    4    5 1   
    10    4   78 1   
    11    5    6 1   
    12    5   10 1   
    13    6    7 1   
    14    6   48 1   
    15    7    8 1   
    16    7   49 1   
    17    8    9 1   
    18    8   50 1   
    19    9   10 1   
    20    9   77 1   
    21   11   51 1   
    22   11   52 1   
    23   11   53 1   
    24   11   54 1   
    25   12   13 1   
    26   12   55 1   
    27   12   56 1   
    28   14   15 1   
    29   14   26 1   
    30   14   57 1   
    31   14   58 1   
    32   15   27 1   
    33   15   28 1   
    34   16   17 1   
    35   16   27 1   
    36   16   59 1   
    37   16   64 1   
    38   17   18 1   
    39   17   22 1   
    40   18   19 1   
    41   18   60 1   
    42   19   20 1   
    43   19   61 1   
    44   20   21 1   
    45   20   29 1   
    46   21   22 1   
    47   21   62 1   
    48   22   63 1   
    49   23   24 1   
    50   23   25 1   
    51   23   26 1   
    52   29   30 1   
    53   30   32 1   
    54   30   38 1   
    55   31   36 1   
    56   33   34 1   
    57   33   42 1   
    58   33   80 1   
    59   34   35 1   
    60   34   66 1   
    61   35   36 1   
    62   35   65 1   
    63   35   67 1   
    64   36   37 1   
    65   37   38 1   
    66   37   42 1   
    67   38   39 1   
    68   38   68 1   
    69   39   40 1   
    70   39   69 1   
    71   40   41 1   
    72   40   70 1   
    73   41   42 1   
    74   41   79 1   
    75   43   71 1   
    76   43   72 1   
    77   43   73 1   
    78   43   74 1   
    79   44   75 1   
    80   44   76 1   
    81   44   80 1   
@<TRIPOS>SUBSTRUCTURE
     1 DDT         1 TEMP              0 ****  ****    0 ROOT
