@<TRIPOS>MOLECULE
DDU
   27    28     1     0     0
SMALL
bcc


@<TRIPOS>ATOM
      1 N1          0.5550   -0.8760    0.3060 n         1 DDU     -0.388000
      2 C2          1.9910   -0.5980    0.3700 c         1 DDU      0.812500
      3 N3          2.7070   -0.7160    1.6440 n         1 DDU     -0.585500
      4 C4          1.9950   -1.0280    2.8330 c         1 DDU      0.715700
      5 C5          0.5540   -1.3080    2.7720 cc        1 DDU     -0.316200
      6 C6         -0.1620   -1.1880    1.4930 cd        1 DDU      0.048600
      7 O2          2.6030   -0.3320   -0.6460 o         1 DDU     -0.636500
      8 O4          2.5890   -1.1260    3.8880 o         1 DDU     -0.607500
      9 C1'        -0.1010   -0.9610   -0.9690 c3        1 DDU      0.296500
     10 C2'        -1.6180   -0.5350   -0.8360 c3        1 DDU     -0.115400
     11 C3'        -1.7140    0.8320   -1.4880 c3        1 DDU      0.113100
     12 C4'        -0.4530    1.2170   -1.6620 c3        1 DDU      0.094100
     13 O3'        -2.4050    0.7300   -2.7970 oh        1 DDU     -0.584800
     14 O4'         0.4130   -0.1230   -1.7900 os        1 DDU     -0.411600
     15 C5'         0.0060    2.0160   -0.4860 c3        1 DDU     -0.112100
     16 HN3         3.6030   -0.5420    1.6820 hn        1 DDU      0.353500
     17 H5          0.0630   -1.5230    3.5900 ha        1 DDU      0.178000
     18 H6         -1.1190   -1.3740    1.4510 h4        1 DDU      0.159000
     19 H1'        -0.0340   -1.8710   -1.3260 h2        1 DDU      0.133700
     20 H2'1       -2.1920   -1.1750   -1.3050 hc        1 DDU      0.086700
     21 H2'2       -1.8720   -0.4790    0.1060 hc        1 DDU      0.086700
     22 H3'        -2.1840    1.4580   -0.9010 h1        1 DDU      0.046700
     23 H4'        -0.3740    1.7470   -2.4800 h1        1 DDU      0.079700
     24 HO3'       -3.1720    1.1780   -2.7630 ho        1 DDU      0.408000
     25 H5'1       -0.2360    1.5490    0.3410 hc        1 DDU      0.048033
     26 H5'2        0.9800    2.1260   -0.5260 hc        1 DDU      0.048033
     27 H5'3       -0.4240    2.8980   -0.5010 hc        1 DDU      0.048033
@<TRIPOS>BOND
     1    1    2 1   
     2    1    6 1   
     3    1    9 1   
     4    2    3 1   
     5    2    7 2   
     6    3    4 1   
     7    3   16 1   
     8    4    5 1   
     9    4    8 2   
    10    5    6 2   
    11    5   17 1   
    12    6   18 1   
    13    9   10 1   
    14    9   14 1   
    15    9   19 1   
    16   10   11 1   
    17   10   20 1   
    18   10   21 1   
    19   11   12 1   
    20   11   13 1   
    21   11   22 1   
    22   12   14 1   
    23   12   15 1   
    24   12   23 1   
    25   13   24 1   
    26   15   25 1   
    27   15   26 1   
    28   15   27 1   
@<TRIPOS>SUBSTRUCTURE
     1 DDU         1 TEMP              0 ****  ****    0 ROOT
