@<TRIPOS>MOLECULE
DDU
   27    28     1     0     0
SMALL
bcc


@<TRIPOS>ATOM
      1 N1         -0.1630    0.2770   -0.1610 n         1 DDU     -0.385000
      2 C2          1.2380    0.3670   -0.3930 c         1 DDU      0.811500
      3 N3          2.1160    0.0930    0.6670 n         1 DDU     -0.587500
      4 C4          1.6840   -0.3520    1.9290 c         1 DDU      0.713700
      5 C5          0.2350   -0.5110    2.0870 cc        1 DDU     -0.314200
      6 C6         -0.6050   -0.2250    1.0610 cd        1 DDU      0.052600
      7 O2          1.7120    0.7140   -1.4980 o         1 DDU     -0.656500
      8 O4          2.5300   -0.5810    2.8100 o         1 DDU     -0.606500
      9 C1'        -1.1410    0.4070   -1.2440 c3        1 DDU      0.315500
     10 C2'        -0.8390    1.4840   -2.3030 c3        1 DDU     -0.136400
     11 C3'        -0.4520    0.7070   -3.5670 c3        1 DDU      0.117100
     12 C4'        -0.7890   -0.7700   -3.2720 c3        1 DDU      0.141100
     13 O3'        -1.2340    1.1020   -4.6810 oh        1 DDU     -0.593800
     14 O4'        -1.3110   -0.8360   -1.9320 os        1 DDU     -0.426600
     15 C5'         0.4180   -1.6720   -3.3960 c3        1 DDU     -0.115100
     16 HN3         3.0920    0.1960    0.4840 hn        1 DDU      0.351500
     17 H5         -0.1210   -0.8720    3.0600 ha        1 DDU      0.180000
     18 H6         -1.7000   -0.3610    1.1510 h4        1 DDU      0.166000
     19 H1'        -2.1390    0.6020   -0.7450 h2        1 DDU      0.083700
     20 H2'1       -0.0240    2.1810   -1.9930 hc        1 DDU      0.080200
     21 H2'2       -1.7700    2.0780   -2.4830 hc        1 DDU      0.080200
     22 H3'         0.6430    0.8320   -3.7890 h1        1 DDU      0.077700
     23 H4'        -1.6300   -1.1250   -3.9310 h1        1 DDU      0.087700
     24 HO3'       -0.9250    1.9790   -4.9390 ho        1 DDU      0.406000
     25 H5'1        1.2620   -1.2880   -2.7730 hc        1 DDU      0.052367
     26 H5'2        0.7420   -1.7140   -4.4630 hc        1 DDU      0.052367
     27 H5'3        0.1590   -2.7020   -3.0520 hc        1 DDU      0.052367
@<TRIPOS>BOND
     1    1    2 1   
     2    1    6 1   
     3    1    9 1   
     4    2    3 1   
     5    2    7 2   
     6    3    4 1   
     7    3   16 1   
     8    4    5 1   
     9    4    8 2   
    10    5    6 2   
    11    5   17 1   
    12    6   18 1   
    13    9   10 1   
    14    9   14 1   
    15    9   19 1   
    16   10   11 1   
    17   10   20 1   
    18   10   21 1   
    19   11   12 1   
    20   11   13 1   
    21   11   22 1   
    22   12   14 1   
    23   12   15 1   
    24   12   23 1   
    25   13   24 1   
    26   15   25 1   
    27   15   26 1   
    28   15   27 1   
@<TRIPOS>SUBSTRUCTURE
     1 DDU         1 TEMP              0 ****  ****    0 ROOT
