@<TRIPOS>MOLECULE
DDU
   27    28     1     0     0
SMALL
bcc


@<TRIPOS>ATOM
      1 N1         -0.1500    0.2820   -0.1600 n         1 DDU     -0.385000
      2 C2          1.2500    0.3470   -0.4010 c         1 DDU      0.811500
      3 N3          2.1300    0.0600    0.6540 ns        1 DDU     -0.587500
      4 C4          1.6980   -0.3770    1.9200 c         1 DDU      0.713700
      5 C5          0.2470   -0.5100    2.0870 cc        1 DDU     -0.314200
      6 C6         -0.5940   -0.2110    1.0650 cd        1 DDU      0.052600
      7 O2          1.7230    0.6850   -1.5090 o         1 DDU     -0.656500
      8 O4          2.5450   -0.6200    2.7950 o         1 DDU     -0.606500
      9 C1'        -1.1330    0.4280   -1.2370 c3        1 DDU      0.315500
     10 C2'        -0.8190    1.4970   -2.2990 c3        1 DDU     -0.136400
     11 C3'        -0.4530    0.7130   -3.5650 c3        1 DDU      0.117100
     12 C4'        -0.8140   -0.7580   -3.2660 c3        1 DDU      0.141100
     13 O3'        -1.2340    1.1200   -4.6750 oh        1 DDU     -0.593800
     14 O4'        -1.3280   -0.8140   -1.9230 os        1 DDU     -0.426600
     15 C5'         0.3770   -1.6810   -3.3960 c3        1 DDU     -0.115100
     16 HN3         3.1060    0.1450    0.4650 hn        1 DDU      0.351500
     17 H5         -0.1090   -0.8630    3.0620 ha        1 DDU      0.180000
     18 H6         -1.6910   -0.3280    1.1630 h4        1 DDU      0.166000
     19 H1'        -2.1250    0.6400   -0.7320 h2        1 DDU      0.083700
     20 H2'1        0.0090    2.1810   -1.9950 hc        1 DDU      0.080200
     21 H2'2       -1.7410    2.1070   -2.4750 hc        1 DDU      0.080200
     22 H3'         0.6430    0.8190   -3.7930 h1        1 DDU      0.077700
     23 H4'        -1.6640   -1.0990   -3.9190 h1        1 DDU      0.087700
     24 HO3'       -0.9120    1.9910   -4.9360 ho        1 DDU      0.406000
     25 H5'1        0.6940   -1.7290   -4.4650 hc        1 DDU      0.052367
     26 H5'2        0.1020   -2.7060   -3.0500 hc        1 DDU      0.052367
     27 H5'3        1.2310   -1.3110   -2.7790 hc        1 DDU      0.052367
@<TRIPOS>BOND
     1    1    2 1   
     2    1    6 1   
     3    1    9 1   
     4    2    3 1   
     5    2    7 2   
     6    3    4 1   
     7    3   16 1   
     8    4    5 1   
     9    4    8 2   
    10    5    6 2   
    11    5   17 1   
    12    6   18 1   
    13    9   10 1   
    14    9   14 1   
    15    9   19 1   
    16   10   11 1   
    17   10   20 1   
    18   10   21 1   
    19   11   12 1   
    20   11   13 1   
    21   11   22 1   
    22   12   14 1   
    23   12   15 1   
    24   12   23 1   
    25   13   24 1   
    26   15   25 1   
    27   15   26 1   
    28   15   27 1   
@<TRIPOS>SUBSTRUCTURE
     1 DDU         1 TEMP              0 ****  ****    0 ROOT
