@<TRIPOS>MOLECULE
DDU
   27    28     1     0     0
SMALL
bcc


@<TRIPOS>ATOM
      1 N1         -0.6690   -0.0210    0.5310 n         1 DDU     -0.385000
      2 C2          0.5510    0.6750    0.7580 c         1 DDU      0.811500
      3 N3          1.1280    0.6230    2.0370 n         1 DDU     -0.587500
      4 C4          0.6070   -0.1540    3.0870 c         1 DDU      0.713700
      5 C5         -0.6040   -0.9200    2.7720 cc        1 DDU     -0.314200
      6 C6         -1.1630   -0.8470    1.5380 cd        1 DDU      0.052600
      7 O2          1.1080    1.3570   -0.1310 o         1 DDU     -0.656500
      8 O4          1.1860   -0.1510    4.1850 o         1 DDU     -0.606500
      9 C1'        -1.2620   -0.1360   -0.8040 c3        1 DDU      0.315500
     10 C2'        -1.1860    1.1220   -1.6890 c3        1 DDU     -0.136400
     11 C3'        -0.1630    0.7850   -2.7800 c3        1 DDU      0.117100
     12 C4'         0.1200   -0.7260   -2.6390 c3        1 DDU      0.141100
     13 O3'        -0.6960    0.9940   -4.0770 oh        1 DDU     -0.593800
     14 O4'        -0.6670   -1.2130   -1.5370 os        1 DDU     -0.426600
     15 C5'         1.5820   -1.0180   -2.3910 c3        1 DDU     -0.115100
     16 HN3         1.9660    1.1470    2.1750 hn        1 DDU      0.351500
     17 H5         -1.0180   -1.5440    3.5730 ha        1 DDU      0.180000
     18 H6         -2.0630   -1.4350    1.2720 h4        1 DDU      0.166000
     19 H1'        -2.3380   -0.4530   -0.6440 h2        1 DDU      0.083700
     20 H2'1       -2.1930    1.2990   -2.1440 hc        1 DDU      0.080200
     21 H2'2       -0.8850    2.0340   -1.1210 hc        1 DDU      0.080200
     22 H3'         0.7780    1.3840   -2.6390 h1        1 DDU      0.077700
     23 H4'        -0.2590   -1.2870   -3.5380 h1        1 DDU      0.087700
     24 HO3'       -0.7470    1.9480   -4.2050 ho        1 DDU      0.406000
     25 H5'1        1.7200   -2.1030   -2.1700 hc        1 DDU      0.052367
     26 H5'2        2.1730   -0.7520   -3.3000 hc        1 DDU      0.052367
     27 H5'3        1.9610   -0.4230   -1.5240 hc        1 DDU      0.052367
@<TRIPOS>BOND
     1    1    2 1   
     2    1    6 1   
     3    1    9 1   
     4    2    3 1   
     5    2    7 2   
     6    3    4 1   
     7    3   16 1   
     8    4    5 1   
     9    4    8 2   
    10    5    6 2   
    11    5   17 1   
    12    6   18 1   
    13    9   10 1   
    14    9   14 1   
    15    9   19 1   
    16   10   11 1   
    17   10   20 1   
    18   10   21 1   
    19   11   12 1   
    20   11   13 1   
    21   11   22 1   
    22   12   14 1   
    23   12   15 1   
    24   12   23 1   
    25   13   24 1   
    26   15   25 1   
    27   15   26 1   
    28   15   27 1   
@<TRIPOS>SUBSTRUCTURE
     1 DDU         1 TEMP              0 ****  ****    0 ROOT
