@<TRIPOS>MOLECULE
DDU
   27    28     1     0     0
SMALL
bcc


@<TRIPOS>ATOM
      1 N1         -0.1460    0.2840   -0.1600 n         1 DDU     -0.385000
      2 C2          1.2540    0.3440   -0.4050 c         1 DDU      0.811500
      3 N3          2.1360    0.0530    0.6480 n         1 DDU     -0.587500
      4 C4          1.7060   -0.3810    1.9150 c         1 DDU      0.713700
      5 C5          0.2550   -0.5090    2.0860 cc        1 DDU     -0.314200
      6 C6         -0.5880   -0.2070    1.0670 cd        1 DDU      0.052600
      7 O2          1.7250    0.6800   -1.5140 o         1 DDU     -0.656500
      8 O4          2.5540   -0.6260    2.7880 o         1 DDU     -0.606500
      9 C1'        -1.1310    0.4320   -1.2340 c3        1 DDU      0.315500
     10 C2'        -0.8170    1.5000   -2.2970 c3        1 DDU     -0.136400
     11 C3'        -0.4560    0.7140   -3.5640 c3        1 DDU      0.117100
     12 C4'        -0.8210   -0.7560   -3.2630 c3        1 DDU      0.141100
     13 O3'        -1.2390    1.1230   -4.6720 oh        1 DDU     -0.593800
     14 O4'        -1.3330   -0.8090   -1.9190 os        1 DDU     -0.426600
     15 C5'         0.3650   -1.6830   -3.3960 c3        1 DDU     -0.115100
     16 HN3         3.1110    0.1360    0.4560 hn        1 DDU      0.351500
     17 H5         -0.1000   -0.8600    3.0630 ha        1 DDU      0.180000
     18 H6         -1.6850   -0.3200    1.1670 h4        1 DDU      0.166000
     19 H1'        -2.1210    0.6480   -0.7260 h2        1 DDU      0.083700
     20 H2'1        0.0150    2.1810   -1.9960 hc        1 DDU      0.080200
     21 H2'2       -1.7370    2.1140   -2.4710 hc        1 DDU      0.080200
     22 H3'         0.6390    0.8150   -3.7940 h1        1 DDU      0.077700
     23 H4'        -1.6750   -1.0940   -3.9140 h1        1 DDU      0.087700
     24 HO3'       -0.9140    1.9930   -4.9340 ho        1 DDU      0.406000
     25 H5'1        0.6790   -1.7330   -4.4650 hc        1 DDU      0.052367
     26 H5'2        1.2230   -1.3150   -2.7810 hc        1 DDU      0.052367
     27 H5'3        0.0880   -2.7070   -3.0480 hc        1 DDU      0.052367
@<TRIPOS>BOND
     1    1    2 1   
     2    1    6 1   
     3    1    9 1   
     4    2    3 1   
     5    2    7 2   
     6    3    4 1   
     7    3   16 1   
     8    4    5 1   
     9    4    8 2   
    10    5    6 2   
    11    5   17 1   
    12    6   18 1   
    13    9   10 1   
    14    9   14 1   
    15    9   19 1   
    16   10   11 1   
    17   10   20 1   
    18   10   21 1   
    19   11   12 1   
    20   11   13 1   
    21   11   22 1   
    22   12   14 1   
    23   12   15 1   
    24   12   23 1   
    25   13   24 1   
    26   15   25 1   
    27   15   26 1   
    28   15   27 1   
@<TRIPOS>SUBSTRUCTURE
     1 DDU         1 TEMP              0 ****  ****    0 ROOT
