@<TRIPOS>MOLECULE
DDW
   28    27     1     0     0
SMALL
bcc


@<TRIPOS>ATOM
      1 C2         -3.3440   -0.0660   -1.7660 c3        1 DDW      0.142800
      2 C3         -1.8310   -0.0660   -1.7660 c3        1 DDW     -0.118400
      3 C4         -1.3270   -0.0660   -0.3390 c3        1 DDW     -0.070400
      4 C5          0.1850   -0.0240   -0.3390 c3        1 DDW     -0.089400
      5 C6          0.6910   -0.0960    1.0850 c3        1 DDW     -0.057400
      6 N1         -3.8200   -0.1380   -3.1080 n3        1 DDW     -0.906800
      7 C7          2.2010    0.0040    1.0890 c3        1 DDW     -0.204700
      8 C10         2.7960   -1.3590    1.3680 c         1 DDW      0.920600
      9 O12         2.5640   -1.9340    2.4630 o         1 DDW     -0.836300
     10 O11         3.5220   -1.9170    0.5040 o         1 DDW     -0.836300
     11 C8          2.6390    0.9750    2.1630 c3        1 DDW      0.078700
     12 S9          4.3930    0.8510    2.3920 sh        1 DDW     -0.507900
     13 H1         -3.6700    0.7550   -1.3490 h1        1 DDW      0.046700
     14 H2         -3.6700   -0.8370   -1.2640 h1        1 DDW      0.046700
     15 H3         -1.5060    0.7310   -2.2260 hc        1 DDW      0.039200
     16 H4         -1.5060   -0.8630   -2.2260 hc        1 DDW      0.039200
     17 H5         -1.6300   -0.8760    0.1130 hc        1 DDW      0.031700
     18 H6         -1.6740    0.7170    0.1280 hc        1 DDW      0.031700
     19 H7          0.5320   -0.7830   -0.8460 hc        1 DDW      0.058200
     20 H8          0.4880    0.8080   -0.7510 hc        1 DDW      0.058200
     21 H9          0.4200   -0.9440    1.4840 hc        1 DDW      0.030700
     22 H10         0.3150    0.6420    1.6010 hc        1 DDW      0.030700
     23 H11        -4.3390   -0.8810   -3.2070 hn        1 DDW      0.336300
     24 H12        -4.3130    0.6060   -3.2970 hn        1 DDW      0.336300
     25 H14         2.5090    0.3220    0.2180 hc        1 DDW      0.037700
     26 H16         2.4100    1.8850    1.8930 h1        1 DDW      0.075700
     27 H17         2.1860    0.7600    3.0000 h1        1 DDW      0.075700
     28 H18         4.7800    1.7930    2.9840 hs        1 DDW      0.209800
@<TRIPOS>BOND
     1    1    2 1   
     2    1    6 1   
     3    1   13 1   
     4    1   14 1   
     5    2    3 1   
     6    2   15 1   
     7    2   16 1   
     8    3    4 1   
     9    3   17 1   
    10    3   18 1   
    11    4    5 1   
    12    4   19 1   
    13    4   20 1   
    14    5    7 1   
    15    5   21 1   
    16    5   22 1   
    17    6   23 1   
    18    6   24 1   
    19    7    8 1   
    20    7   11 1   
    21    7   25 1   
    22    8    9 1   
    23    8   10 1   
    24   11   12 1   
    25   11   26 1   
    26   11   27 1   
    27   12   28 1   
@<TRIPOS>SUBSTRUCTURE
     1 DDW         1 TEMP              0 ****  ****    0 ROOT
