@<TRIPOS>MOLECULE
DDW
   29    28     1     0     0
SMALL
bcc


@<TRIPOS>ATOM
      1 C2          1.1970   -0.3250    0.6120 c3        1 DDW      0.101800
      2 C3          1.5250    1.0980    0.1660 c3        1 DDW     -0.095400
      3 C4          2.2800    1.8760    1.2300 c3        1 DDW     -0.077400
      4 C5          3.7240    1.4400    1.3970 c3        1 DDW     -0.097400
      5 C6          3.9810    0.6410    2.6640 c3        1 DDW     -0.072400
      6 N1          1.7630   -1.3890   -0.2540 nz        1 DDW     -0.871600
      7 C7          4.8820   -0.5660    2.4090 c3        1 DDW     -0.142700
      8 C10         4.1420   -1.5010    1.4560 c         1 DDW      0.906600
      9 O12         4.4140   -1.4670    0.2110 o         1 DDW     -0.864300
     10 O11         3.1750   -2.2180    1.8730 o         1 DDW     -0.864300
     11 C8          5.2160   -1.2910    3.6890 c3        1 DDW      0.035700
     12 S9          6.1570   -0.2080    4.7440 sh        1 DDW     -0.415900
     13 H1          0.0830   -0.4720    0.6580 hx        1 DDW      0.104200
     14 H2          1.6300   -0.5080    1.6470 hx        1 DDW      0.104200
     15 H3          2.1220    1.1090   -0.7850 hc        1 DDW      0.054200
     16 H4          0.5590    1.6290   -0.0510 hc        1 DDW      0.054200
     17 H5          2.2600    2.9580    0.9280 hc        1 DDW      0.048200
     18 H6          1.7310    1.8030    2.2060 hc        1 DDW      0.048200
     19 H7          4.3750    2.3540    1.4140 hc        1 DDW      0.058700
     20 H8          4.0450    0.8390    0.5010 hc        1 DDW      0.058700
     21 H9          4.4660    1.2980    3.4350 hc        1 DDW      0.049200
     22 H10         3.0170    0.2730    3.1070 hc        1 DDW      0.049200
     23 H11         1.9620   -2.2300    0.3440 hn        1 DDW      0.469800
     24 H12         2.7090   -1.1030   -0.6010 hn        1 DDW      0.469800
     25 H14         5.8290   -0.2230    1.9080 hc        1 DDW      0.079700
     26 H16         4.2760   -1.6110    4.2030 h1        1 DDW      0.070700
     27 H17         5.8100   -2.2070    3.4560 h1        1 DDW      0.070700
     28 H18         6.5050   -1.0830    5.6700 hs        1 DDW      0.198800
     29 H13         1.1530   -1.6150   -1.0280 hn        1 DDW      0.469800
@<TRIPOS>BOND
     1    1    2 1   
     2    1    6 1   
     3    1   13 1   
     4    1   14 1   
     5    2    3 1   
     6    2   15 1   
     7    2   16 1   
     8    3    4 1   
     9    3   17 1   
    10    3   18 1   
    11    4    5 1   
    12    4   19 1   
    13    4   20 1   
    14    5    7 1   
    15    5   21 1   
    16    5   22 1   
    17    6   23 1   
    18    6   24 1   
    19    6   29 1   
    20    7    8 1   
    21    7   11 1   
    22    7   25 1   
    23    8    9 1   
    24    8   10 1   
    25   11   12 1   
    26   11   26 1   
    27   11   27 1   
    28   12   28 1   
@<TRIPOS>SUBSTRUCTURE
     1 DDW         1 TEMP              0 ****  ****    0 ROOT
