@<TRIPOS>MOLECULE
DDW
   29    28     1     0     0
SMALL
bcc


@<TRIPOS>ATOM
      1 C2          0.7540   -0.2270   -0.2620 c3        1 DDW      0.156800
      2 C3          2.1390    0.3090    0.0970 c3        1 DDW     -0.088400
      3 C4          2.0930    1.0180    1.4340 c3        1 DDW     -0.089400
      4 C5          3.4380    1.6070    1.8180 c3        1 DDW     -0.079400
      5 C6          4.0910    0.9220    3.0020 c3        1 DDW     -0.084400
      6 N1          0.7420   -1.0270   -1.4640 n3        1 DDW     -0.916800
      7 C7          4.7740   -0.3930    2.6460 c3        1 DDW     -0.092700
      8 C10         3.7610   -1.5040    2.5340 c         1 DDW      0.637100
      9 O12         3.9290   -2.2840    1.4310 oh        1 DDW     -0.604100
     10 O11         2.8340   -1.7990    3.2930 o         1 DDW     -0.550000
     11 C8          5.7890   -0.7890    3.7040 c3        1 DDW      0.005700
     12 S9          7.1490    0.3460    3.6110 sh        1 DDW     -0.366900
     13 H1          0.3880   -0.8840    0.5780 h1        1 DDW      0.025700
     14 H2          0.0460    0.6540   -0.3220 h1        1 DDW      0.025700
     15 H3          2.8770   -0.5370    0.1480 hc        1 DDW      0.049200
     16 H4          2.4920    1.0160   -0.6980 hc        1 DDW      0.049200
     17 H5          1.3280    1.8380    1.3890 hc        1 DDW      0.048700
     18 H6          1.7490    0.2940    2.2230 hc        1 DDW      0.048700
     19 H7          3.2930    2.6880    2.0880 hc        1 DDW      0.045700
     20 H8          4.1370    1.5850    0.9400 hc        1 DDW      0.045700
     21 H9          4.8770    1.6100    3.4220 hc        1 DDW      0.067200
     22 H10         3.3330    0.7390    3.8090 hc        1 DDW      0.067200
     23 H11         3.2290   -2.9580    1.3930 ho        1 DDW      0.448000
     24 H12         1.2100   -0.5590   -2.2140 hn        1 DDW      0.347800
     25 H14         5.2990   -0.2900    1.6520 hc        1 DDW      0.100700
     26 H16         6.1460   -1.8320    3.5190 h1        1 DDW      0.074200
     27 H17         5.3210   -0.7550    4.7180 h1        1 DDW      0.074200
     28 H18         7.9670   -0.2550    4.4580 hs        1 DDW      0.205800
     29 H13        -0.1990   -1.2270   -1.7380 hn        1 DDW      0.347800
@<TRIPOS>BOND
     1    1    2 1   
     2    1    6 1   
     3    1   13 1   
     4    1   14 1   
     5    2    3 1   
     6    2   15 1   
     7    2   16 1   
     8    3    4 1   
     9    3   17 1   
    10    3   18 1   
    11    4    5 1   
    12    4   19 1   
    13    4   20 1   
    14    5    7 1   
    15    5   21 1   
    16    5   22 1   
    17    6   24 1   
    18    6   29 1   
    19    7    8 1   
    20    7   11 1   
    21    7   25 1   
    22    8    9 1   
    23    8   10 2   
    24    9   23 1   
    25   11   12 1   
    26   11   26 1   
    27   11   27 1   
    28   12   28 1   
@<TRIPOS>SUBSTRUCTURE
     1 DDW         1 TEMP              0 ****  ****    0 ROOT
