@<TRIPOS>MOLECULE
DDW
   29    28     1     0     0
SMALL
bcc


@<TRIPOS>ATOM
      1 C2          0.6480   -0.2090   -0.6090 c3        1 DDW      0.158800
      2 C3          1.8400    0.6650   -0.2190 c3        1 DDW     -0.081400
      3 C4          2.3600    0.2600    1.1430 c3        1 DDW     -0.084400
      4 C5          3.5360    1.1200    1.5540 c3        1 DDW     -0.080400
      5 C6          4.0800    0.7570    2.9190 c3        1 DDW     -0.084400
      6 N1          0.1260    0.0880   -1.9210 n3        1 DDW     -0.915800
      7 C7          4.9540   -0.4940    2.9110 c3        1 DDW     -0.091700
      8 C10         4.0950   -1.7320    2.9620 c         1 DDW      0.636100
      9 O12         4.2870   -2.5800    1.9130 oh        1 DDW     -0.604100
     10 O11         3.2690   -2.0770    3.8100 o         1 DDW     -0.550000
     11 C8          5.8860   -0.5220    4.1090 c3        1 DDW      0.004700
     12 S9          7.1010    0.7510    3.8890 sh        1 DDW     -0.365900
     13 H1         -0.1360   -0.1100    0.2010 h1        1 DDW      0.024700
     14 H2          0.9770   -1.2880   -0.6170 h1        1 DDW      0.024700
     15 H3          2.6550    0.5610   -0.9830 hc        1 DDW      0.047200
     16 H4          1.5340    1.7440   -0.2000 hc        1 DDW      0.047200
     17 H5          1.5410    0.3510    1.9050 hc        1 DDW      0.043700
     18 H6          2.6740   -0.8190    1.1210 hc        1 DDW      0.043700
     19 H7          3.2100    2.1950    1.5780 hc        1 DDW      0.047700
     20 H8          4.3480    1.0400    0.7840 hc        1 DDW      0.047700
     21 H9          4.7120    1.6110    3.2920 hc        1 DDW      0.067700
     22 H10         3.2370    0.6160    3.6460 hc        1 DDW      0.067700
     23 H11        -0.7220   -0.4190   -2.0800 hn        1 DDW      0.348300
     24 H12         3.7030   -3.3510    2.0030 ho        1 DDW      0.444000
     25 H14         5.5660   -0.5210    1.9630 hc        1 DDW      0.101700
     26 H16         5.3060   -0.3540    5.0500 h1        1 DDW      0.074700
     27 H17         6.3850   -1.5190    4.1830 h1        1 DDW      0.074700
     28 H18         7.8680    0.4750    4.9290 hs        1 DDW      0.206800
     29 H13        -0.0520    1.0670   -2.0260 hn        1 DDW      0.348300
@<TRIPOS>BOND
     1    1    2 1   
     2    1    6 1   
     3    1   13 1   
     4    1   14 1   
     5    2    3 1   
     6    2   15 1   
     7    2   16 1   
     8    3    4 1   
     9    3   17 1   
    10    3   18 1   
    11    4    5 1   
    12    4   19 1   
    13    4   20 1   
    14    5    7 1   
    15    5   21 1   
    16    5   22 1   
    17    6   23 1   
    18    6   29 1   
    19    7    8 1   
    20    7   11 1   
    21    7   25 1   
    22    8    9 1   
    23    8   10 2   
    24    9   24 1   
    25   11   12 1   
    26   11   26 1   
    27   11   27 1   
    28   12   28 1   
@<TRIPOS>SUBSTRUCTURE
     1 DDW         1 TEMP              0 ****  ****    0 ROOT
