@<TRIPOS>MOLECULE
DDW
   28    27     1     0     0
SMALL
bcc


@<TRIPOS>ATOM
      1 C2         -4.8610   -0.5900   -0.0860 c3        1 DDW      0.141800
      2 C3         -3.5450    0.0050    0.4130 c3        1 DDW     -0.118400
      3 C4         -2.3620   -0.6730   -0.2420 c3        1 DDW     -0.070400
      4 C5         -1.0570   -0.0920    0.2570 c3        1 DDW     -0.091400
      5 C6          0.1330   -0.7490   -0.4110 c3        1 DDW     -0.053400
      6 N1         -6.0700   -0.0090    0.4480 n3        1 DDW     -0.906800
      7 C7          1.4220   -0.0200   -0.0700 c3        1 DDW     -0.189700
      8 C10         1.4670    1.3510   -0.8140 c         1 DDW      0.919600
      9 O12         0.8500    2.3160   -0.2830 o         1 DDW     -0.839300
     10 O11         2.1140    1.4230   -1.8950 o         1 DDW     -0.839300
     11 C8          2.6320   -0.8270   -0.4600 c3        1 DDW      0.078700
     12 S9          2.7960   -2.2520    0.6180 sh        1 DDW     -0.477900
     13 H1         -4.9000   -0.4920   -1.2080 h1        1 DDW      0.046200
     14 H2         -4.8750   -1.6900    0.1570 h1        1 DDW      0.046200
     15 H3         -3.5110    1.1040    0.1890 hc        1 DDW      0.039700
     16 H4         -3.4730   -0.1090    1.5260 hc        1 DDW      0.039700
     17 H5         -2.3950   -1.7750   -0.0310 hc        1 DDW      0.030200
     18 H6         -2.4280   -0.5470   -1.3550 hc        1 DDW      0.030200
     19 H7         -1.0160    1.0150    0.0540 hc        1 DDW      0.061200
     20 H8         -0.9860   -0.2280    1.3670 hc        1 DDW      0.061200
     21 H9          0.2060   -1.8210   -0.0860 hc        1 DDW      0.028200
     22 H10        -0.0060   -0.7430   -1.5240 hc        1 DDW      0.028200
     23 H11        -6.0750   -0.0760    1.4480 hn        1 DDW      0.336300
     24 H12        -6.1270    0.9610    0.2040 hn        1 DDW      0.336300
     25 H14         1.4470    0.1950    1.0320 hc        1 DDW      0.053700
     26 H16         2.5430   -1.1680   -1.5180 h1        1 DDW      0.064200
     27 H17         3.5470   -0.1940   -0.3740 h1        1 DDW      0.064200
     28 H18         3.9630   -2.6910    0.1890 hs        1 DDW      0.179800
@<TRIPOS>BOND
     1    1    2 1   
     2    1    6 1   
     3    1   13 1   
     4    1   14 1   
     5    2    3 1   
     6    2   15 1   
     7    2   16 1   
     8    3    4 1   
     9    3   17 1   
    10    3   18 1   
    11    4    5 1   
    12    4   19 1   
    13    4   20 1   
    14    5    7 1   
    15    5   21 1   
    16    5   22 1   
    17    6   23 1   
    18    6   24 1   
    19    7    8 1   
    20    7   11 1   
    21    7   25 1   
    22    8    9 1   
    23    8   10 1   
    24   11   12 1   
    25   11   26 1   
    26   11   27 1   
    27   12   28 1   
@<TRIPOS>SUBSTRUCTURE
     1 DDW         1 TEMP              0 ****  ****    0 ROOT
