@<TRIPOS>MOLECULE
DDX
   19    19     1     0     0
SMALL
bcc


@<TRIPOS>ATOM
      1 P           1.8120   -3.5590   -3.9730 p5        1 DDX      1.318900
      2 OP1         1.2770   -3.4460   -5.3690 o         1 DDX     -0.925500
      3 OP2         0.7940   -3.7360   -2.8690 o         1 DDX     -0.925500
      4 OP3         3.0880   -4.3370   -3.7920 o         1 DDX     -0.925500
      5 O5'         2.3200   -1.9260   -3.6240 os        1 DDX     -0.564200
      6 C5'         3.3150   -1.7870   -2.7000 c3        1 DDX      0.224400
      7 C4'         2.7870   -1.4950   -1.2720 c3        1 DDX      0.091300
      8 O4'         3.3060   -0.2250   -0.7620 os        1 DDX     -0.479600
      9 C1'         2.2090    0.5730   -0.3160 c3        1 DDX      0.365100
     10 C3'         1.2860   -1.3780   -1.2020 c2        1 DDX     -0.067200
     11 C2'         0.9520   -0.2050   -0.6310 c2        1 DDX     -0.372200
     12 O1'         2.4500    0.7650    1.0650 oh        1 DDX     -0.654800
     13 H5'         3.9380   -2.7280   -2.6420 h1        1 DDX      0.012200
     14 H5''        3.9770   -0.9170   -2.9860 h1        1 DDX      0.012200
     15 H4'         3.1560   -2.2780   -0.5570 h1        1 DDX      0.039700
     16 H1'         2.2710    1.5920   -0.7760 h2        1 DDX      0.059700
     17 H3'         0.7000   -2.2010   -1.6860 ha        1 DDX      0.275000
     18 H2'        -0.0300    0.2100   -0.4330 ha        1 DDX      0.121000
     19 HO1'        2.5560   -0.1090    1.4560 ho        1 DDX      0.397000
@<TRIPOS>BOND
     1    1    2 1   
     2    1    3 1   
     3    1    4 1   
     4    1    5 1   
     5    5    6 1   
     6    6    7 1   
     7    6   13 1   
     8    6   14 1   
     9    7    8 1   
    10    7   10 1   
    11    7   15 1   
    12    8    9 1   
    13    9   11 1   
    14    9   12 1   
    15    9   16 1   
    16   10   11 2   
    17   10   17 1   
    18   11   18 1   
    19   12   19 1   
@<TRIPOS>SUBSTRUCTURE
     1 DDX         1 TEMP              0 ****  ****    0 ROOT
