@<TRIPOS>MOLECULE
DDX
   19    18     1     0     0
SMALL
bcc


@<TRIPOS>ATOM
      1 P           0.3690    2.7720    1.9290 p4        1 DDX      1.690200
      2 OP1         1.1260    2.3120    3.1510 o         1 DDX     -0.939000
      3 OP2        -0.7510    3.6920    2.3480 os        1 DDX     -1.234000
      4 OP3         1.3100    3.5120    1.0030 o         1 DDX     -0.987800
      5 O5'        -0.2320    1.5180    1.1770 os        1 DDX     -0.559200
      6 C5'         0.6520    0.5250    0.7210 c3        1 DDX      0.241400
      7 C4'        -0.0850   -0.7450    0.5340 c3        1 DDX      0.093300
      8 O4'        -1.3640   -0.5050   -0.4520 os        1 DDX     -0.477600
      9 C1'        -0.9770   -1.2320   -1.7910 c3        1 DDX      0.364100
     10 C3'         0.5930   -1.5340   -0.1640 c2        1 DDX     -0.078200
     11 C2'         0.2370   -1.5530   -1.5440 c2        1 DDX     -0.372200
     12 O1'        -1.8490   -2.3670   -2.1420 oh        1 DDX     -0.653800
     13 H5'         1.0470    0.8050   -0.1370 h1        1 DDX      0.003700
     14 H5''        1.3670    0.3940    1.3830 h1        1 DDX      0.003700
     15 H4'        -0.2670   -1.0000    1.4660 h1        1 DDX      0.063700
     16 H1'        -1.0650   -0.6500   -2.5790 h2        1 DDX      0.058700
     17 H3'         1.4990   -1.7720    0.1100 ha        1 DDX      0.262000
     18 H2'         0.7780   -2.0400   -2.2030 ha        1 DDX      0.121000
     19 HO1'       -2.3880   -2.1310   -2.8120 ho        1 DDX      0.399000
@<TRIPOS>BOND
     1    1    2 1   
     2    1    4 2   
     3    1    5 1   
     4    5    6 1   
     5    6    7 1   
     6    6   13 1   
     7    6   14 1   
     8    7    8 1   
     9    7   10 1   
    10    7   15 1   
    11    8    9 1   
    12    9   11 1   
    13    9   12 1   
    14    9   16 1   
    15   10   11 2   
    16   10   17 1   
    17   11   18 1   
    18   12   19 1   
@<TRIPOS>SUBSTRUCTURE
     1 DDX         1 TEMP              0 ****  ****    0 ROOT
