@<TRIPOS>MOLECULE
DDY
   36    37     1     0     0
SMALL
bcc


@<TRIPOS>ATOM
      1 C4          0.0000    0.0000    0.0000 cc        1 DDY     -0.034500
      2 PB          0.9100    5.9650    8.4020 p5        1 DDY      0.937900
      3 PA          0.5190    4.7340    5.7990 p5        1 DDY      0.947800
      4 C2          0.0050   -0.0120    2.3100 c         1 DDY      0.754900
      5 C5          1.4100    0.0000    0.0000 cc        1 DDY     -0.286600
      6 O2         -0.6280    0.0040    3.3540 o         1 DDY     -0.718500
      7 O3B        -0.4650    6.5880    8.4430 o         1 DDY     -0.478167
      8 O1B         1.9050    6.9760    7.8860 o         1 DDY     -0.478167
      9 O2B         1.3080    5.5330    9.7930 o         1 DDY     -0.478167
     10 O3A         0.8900    4.6540    7.4030 os        1 DDY     -0.506800
     11 O1A         1.5660    5.5500    5.0800 o         1 DDY     -0.676500
     12 O2A        -0.8330    5.3850    5.6270 o         1 DDY     -0.676500
     13 O5'         0.4790    3.2110    5.1680 os        1 DDY     -0.457200
     14 C5'         1.4460    2.8570    4.2200 c3        1 DDY      0.198400
     15 C4'         2.2940    1.8510    4.7600 c3        1 DDY      0.147100
     16 O4'         1.5900    0.5140    4.7520 os        1 DDY     -0.324600
     17 C3'         3.3530    1.7710    3.6360 c3        1 DDY     -0.087400
     18 C2'         3.6460    0.4150    3.6780 c3        1 DDY     -0.114400
     19 C1'         2.1540   -0.1680    3.8060 c3        1 DDY      0.332500
     20 N1          1.3500   -0.0000    2.3440 n         1 DDY     -0.108000
     21 C6          2.0670    0.0000    1.1840 cd        1 DDY     -0.177400
     22 N4         -0.7260   -0.0070   -1.2570 nz        1 DDY      0.255400
     23 N3         -0.6550   -0.0060    1.1540 nd        1 DDY     -0.745100
     24 H5          1.9510    0.0800   -0.9350 ha        1 DDY      0.067000
     25 H5'1        0.9570    2.4780    3.3310 h1        1 DDY      0.017700
     26 H5'2        2.0360    3.7280    3.9640 h1        1 DDY      0.017700
     27 H4'         2.5920    2.1080    5.7690 h1        1 DDY      0.064700
     28 H3'1        3.0070    2.3020    2.7580 hc        1 DDY      0.034200
     29 H3'2        4.2960    2.1790    3.9810 hc        1 DDY      0.034200
     30 H2'1        3.8690    0.0520    2.6820 hc        1 DDY      0.019700
     31 H2'2        4.4810    0.2350    4.3440 hc        1 DDY      0.019700
     32 H1'         2.1980   -1.2160    4.0770 h2        1 DDY      0.001700
     33 H6          3.1490   -0.0460    1.1960 h4        1 DDY      0.107000
     34 HN41       -0.5940   -0.8870   -1.7140 hn        1 DDY      0.130800
     35 HN42       -1.7010    0.1340   -1.0800 hn        1 DDY      0.130800
     36 H43        -0.3840    0.7280   -1.8440 hn        1 DDY      0.130800
@<TRIPOS>BOND
     1    1    5 1   
     2    1   22 1   
     3    1   23 2   
     4    2    7 1   
     5    2    8 1   
     6    2    9 1   
     7    2   10 1   
     8    3   10 1   
     9    3   11 1   
    10    3   12 1   
    11    3   13 1   
    12    4    6 2   
    13    4   20 1   
    14    4   23 1   
    15    5   21 2   
    16    5   24 1   
    17   13   14 1   
    18   14   15 1   
    19   14   25 1   
    20   14   26 1   
    21   15   16 1   
    22   15   17 1   
    23   15   27 1   
    24   16   19 1   
    25   17   18 1   
    26   17   28 1   
    27   17   29 1   
    28   18   19 1   
    29   18   30 1   
    30   18   31 1   
    31   19   20 1   
    32   19   32 1   
    33   20   21 1   
    34   21   33 1   
    35   22   34 1   
    36   22   35 1   
    37   22   36 1   
@<TRIPOS>SUBSTRUCTURE
     1 DDY         1 TEMP              0 ****  ****    0 ROOT
