@<TRIPOS>MOLECULE
DDY
   35    32     1     0     0
SMALL
bcc


@<TRIPOS>ATOM
      1 C4         -2.6710    1.7830   -2.4050 c1        1 DDY      0.132000
      2 PB          4.5160   -3.5610   -1.3930 p3        1 DDY      2.592000
      3 PA          2.2500   -2.3440   -0.2140 p3        1 DDY      2.690000
      4 C2         -2.7760    1.3250    0.0600 c1        1 DDY      0.304000
      5 C5         -1.2250    2.0480   -2.2770 c1        1 DDY     -0.440000
      6 O2         -3.4230    1.0070    1.0360 o         1 DDY     -0.467000
      7 O3B         3.7030   -4.6050   -2.1210 o         1 DDY     -1.217333
      8 O1B         5.6840   -3.1440   -2.2540 os        1 DDY     -1.228000
      9 O2B         5.0280   -4.1360   -0.0950 o         1 DDY     -1.217333
     10 O3A         3.5920   -2.2810   -1.0840 o         1 DDY     -1.217333
     11 O1A         1.2010   -3.1220   -0.9670 o         1 DDY     -1.011500
     12 O2A         2.5350   -3.0260    1.1060 o         1 DDY     -1.011500
     13 O5'         1.7230   -0.8670    0.0550 os        1 DDY     -0.743000
     14 C5'         0.4910   -0.7030    0.7300 c3        1 DDY      0.053000
     15 C4'         0.6890    0.1980    1.9430 c3        1 DDY      0.013000
     16 O4'         0.4660    1.7310    1.5330 os        1 DDY     -0.290000
     17 C3'        -0.1850   -0.0680    2.8310 c3        1 DDY     -0.182000
     18 C2'        -1.3480    0.8920    2.5460 c3        1 DDY     -0.188000
     19 C1'        -0.7960    1.9190    1.5400 c3        1 DDY      0.171000
     20 N1         -1.3580    1.6740    0.2020 n2        1 DDY     -0.215000
     21 C6         -0.5740    1.9390   -0.9540 c2        1 DDY     -0.145000
     22 N4         -3.3100    1.8640   -3.7020 n3        1 DDY     -0.320000
     23 N3         -3.4280    1.4100   -1.2590 n2        1 DDY     -0.386000
     24 H5         -0.7220    2.3980   -3.0430 ha        1 DDY      0.107000
     25 H5'1        0.1610   -1.5750    1.0230 h1        1 DDY      0.072500
     26 H5'2       -0.1600   -0.2950    0.1240 h1        1 DDY      0.072500
     27 H4'         1.5900    0.0760    2.3100 h1        1 DDY      0.087000
     28 H3'1       -0.4830   -0.9960    2.7470 hc        1 DDY      0.095000
     29 H3'2        0.1790    0.0950    3.7280 hc        1 DDY      0.095000
     30 H2'1       -2.0950    0.4080    2.1570 hc        1 DDY      0.091500
     31 H2'2       -1.6260    1.3420    3.3710 hc        1 DDY      0.091500
     32 H1'        -1.0030    2.8300    1.8350 h2        1 DDY      0.098000
     33 H6          0.3930    2.0470   -0.8750 h4        1 DDY      0.227000
     34 HN41       -2.7980    1.9670   -4.4630 hn        1 DDY      0.143000
     35 HN42       -4.2230    1.7720   -3.7720 hn        1 DDY      0.143000
@<TRIPOS>BOND
     1    1   22 1   
     2    1   23 1   
     3    2    7 1   
     4    2    9 1   
     5    2   10 1   
     6    3   11 1   
     7    3   12 1   
     8    3   13 1   
     9    4    6 1   
    10    4   23 1   
    11    5   21 1   
    12    5   24 1   
    13   13   14 1   
    14   14   15 1   
    15   14   25 1   
    16   14   26 1   
    17   15   16 1   
    18   15   17 1   
    19   15   27 1   
    20   16   19 1   
    21   17   18 1   
    22   17   28 1   
    23   17   29 1   
    24   18   19 1   
    25   18   30 1   
    26   18   31 1   
    27   19   20 1   
    28   19   32 1   
    29   20   21 1   
    30   21   33 1   
    31   22   34 1   
    32   22   35 1   
@<TRIPOS>SUBSTRUCTURE
     1 DDY         1 TEMP              0 ****  ****    0 ROOT
