@<TRIPOS>MOLECULE
DDZ
   14    13     1     0     0
SMALL
bcc


@<TRIPOS>ATOM
      1 N          -0.4170    1.9220    0.3890 n3        1 DDZ     -0.893800
      2 CA         -0.2340    0.4830    0.4290 c3        1 DDZ     -0.039500
      3 C           1.1930   -0.0170    0.0270 c         1 DDZ      0.893600
      4 O           2.0750    0.8340   -0.2650 o         1 DDZ     -0.836300
      5 CB         -1.2510   -0.3000   -0.4350 c3        1 DDZ      0.353900
      6 OXT         1.3740   -1.2700    0.0280 o         1 DDZ     -0.836300
      7 HN1         0.4950    2.3510    0.3800 hn        1 DDZ      0.340800
      8 HN2        -0.8760    2.1760   -0.4670 hn        1 DDZ      0.340800
      9 HA         -0.3900    0.1720    1.5040 h1        1 DDZ      0.052700
     10 HB         -0.9890   -0.2610   -1.5290 h2        1 DDZ      0.058700
     11 HG1        -0.4910   -1.9830    0.1530 ho        1 DDZ      0.432000
     12 HG2        -2.8310    0.1220    0.5840 ho        1 DDZ      0.432000
     13 OG1        -1.3880   -1.6310    0.0110 oh        1 DDZ     -0.649300
     14 OG2        -2.5720    0.1840   -0.3420 oh        1 DDZ     -0.649300
@<TRIPOS>BOND
     1    1    2 1   
     2    1    7 1   
     3    1    8 1   
     4    2    3 1   
     5    2    5 1   
     6    2    9 1   
     7    3    4 1   
     8    3    6 1   
     9    5   10 1   
    10    5   13 1   
    11    5   14 1   
    12   11   13 1   
    13   12   14 1   
@<TRIPOS>SUBSTRUCTURE
     1 DDZ         1 TEMP              0 ****  ****    0 ROOT
