@<TRIPOS>MOLECULE
DE1
   33    32     1     0     0
SMALL
bcc


@<TRIPOS>ATOM
      1 CAA         6.3110   -0.3740    0.0000 c3        1 DE1     -0.092100
      2 CAC         5.0630    0.4710   -0.0000 c3        1 DE1     -0.080400
      3 CAE         3.8130   -0.3830   -0.0000 c3        1 DE1     -0.079400
      4 CAG         2.5630    0.4690   -0.0000 c3        1 DE1     -0.079400
      5 CAI         1.3140   -0.3860   -0.0000 c3        1 DE1     -0.079400
      6 CAK         0.0640    0.4670    0.0000 c3        1 DE1     -0.079400
      7 CAJ        -1.1850   -0.3900    0.0000 c3        1 DE1     -0.078400
      8 CAH        -2.4350    0.4630   -0.0000 c3        1 DE1     -0.078400
      9 CAF        -3.6800   -0.3950    0.0000 c3        1 DE1     -0.084400
     10 CAD        -4.9270    0.4720   -0.0000 c3        1 DE1      0.131400
     11 OAB        -6.0440   -0.4040    0.0000 oh        1 DE1     -0.601800
     12 HAA1        7.2200    0.2750   -0.0000 hc        1 DE1      0.032700
     13 HAA2        6.3440   -1.0280    0.9050 hc        1 DE1      0.032700
     14 HAA3        6.3440   -1.0280   -0.9050 hc        1 DE1      0.032700
     15 HAC1        5.0600    1.1380    0.9020 hc        1 DE1      0.038700
     16 HAC2        5.0600    1.1380   -0.9020 hc        1 DE1      0.038700
     17 HAE1        3.8140   -1.0500   -0.9020 hc        1 DE1      0.039700
     18 HAE2        3.8140   -1.0500    0.9020 hc        1 DE1      0.039700
     19 HAG1        2.5620    1.1360    0.9030 hc        1 DE1      0.038700
     20 HAG2        2.5620    1.1360   -0.9030 hc        1 DE1      0.038700
     21 HAI1        1.3150   -1.0530   -0.9030 hc        1 DE1      0.039700
     22 HAI2        1.3150   -1.0530    0.9030 hc        1 DE1      0.039700
     23 HAK1        0.0630    1.1330    0.9030 hc        1 DE1      0.039700
     24 HAK2        0.0630    1.1330   -0.9030 hc        1 DE1      0.039700
     25 HAJ1       -1.1840   -1.0560   -0.9030 hc        1 DE1      0.041700
     26 HAJ2       -1.1840   -1.0560    0.9030 hc        1 DE1      0.041700
     27 HAH1       -2.4350    1.1300    0.9030 hc        1 DE1      0.039700
     28 HAH2       -2.4350    1.1300   -0.9030 hc        1 DE1      0.039700
     29 HAF1       -3.6930   -1.0610   -0.9020 hc        1 DE1      0.055700
     30 HAF2       -3.6930   -1.0610    0.9020 hc        1 DE1      0.055700
     31 HAD1       -4.9540    1.1260    0.9130 h1        1 DE1      0.019700
     32 HAD2       -4.9540    1.1260   -0.9130 h1        1 DE1      0.019700
     33 HAB        -6.8300    0.1530   -0.0000 ho        1 DE1      0.398000
@<TRIPOS>BOND
     1    1    2 1   
     2    1   12 1   
     3    1   13 1   
     4    1   14 1   
     5    2    3 1   
     6    2   15 1   
     7    2   16 1   
     8    3    4 1   
     9    3   17 1   
    10    3   18 1   
    11    4    5 1   
    12    4   19 1   
    13    4   20 1   
    14    5    6 1   
    15    5   21 1   
    16    5   22 1   
    17    6    7 1   
    18    6   23 1   
    19    6   24 1   
    20    7    8 1   
    21    7   25 1   
    22    7   26 1   
    23    8    9 1   
    24    8   27 1   
    25    8   28 1   
    26    9   10 1   
    27    9   29 1   
    28    9   30 1   
    29   10   11 1   
    30   10   31 1   
    31   10   32 1   
    32   11   33 1   
@<TRIPOS>SUBSTRUCTURE
     1 DE1         1 TEMP              0 ****  ****    0 ROOT
