@<TRIPOS>MOLECULE
DE1
   33    32     1     0     0
SMALL
bcc


@<TRIPOS>ATOM
      1 CAA        -4.9810   -0.0100   -2.9920 c3        1 DE1     -0.092100
      2 CAC        -3.4690   -0.0100   -2.9920 c3        1 DE1     -0.080400
      3 CAE        -2.9640   -0.0100   -1.5650 c3        1 DE1     -0.079400
      4 CAG        -1.4510   -0.0090   -1.5650 c3        1 DE1     -0.079400
      5 CAI        -0.9470   -0.0070   -0.1390 c3        1 DE1     -0.079400
      6 CAK         0.5660   -0.0050   -0.1390 c3        1 DE1     -0.079400
      7 CAJ         1.0700    0.0020    1.2870 c3        1 DE1     -0.078400
      8 CAH         2.5830    0.0030    1.2870 c3        1 DE1     -0.078400
      9 CAF         3.0870    0.0170    2.7140 c3        1 DE1     -0.084400
     10 CAD         4.6000    0.0150    2.7140 c3        1 DE1      0.131400
     11 OAB         5.0700    0.0350    4.0430 oh        1 DE1     -0.601800
     12 HAA1       -5.3070   -0.0110   -3.9120 hc        1 DE1      0.032700
     13 HAA2       -5.3070   -0.8070   -2.5310 hc        1 DE1      0.032700
     14 HAA3       -5.3070    0.7870   -2.5320 hc        1 DE1      0.032700
     15 HAC1       -3.1430    0.7870   -3.4520 hc        1 DE1      0.038700
     16 HAC2       -3.1430   -0.8070   -3.4520 hc        1 DE1      0.038700
     17 HAE1       -3.2890   -0.8080   -1.1060 hc        1 DE1      0.039700
     18 HAE2       -3.2900    0.7860   -1.1050 hc        1 DE1      0.039700
     19 HAG1       -1.1270    0.7880   -2.0270 hc        1 DE1      0.038700
     20 HAG2       -1.1250   -0.8060   -2.0250 hc        1 DE1      0.038700
     21 HAI1       -1.2730    0.7900    0.3200 hc        1 DE1      0.039700
     22 HAI2       -1.2720   -0.8040    0.3220 hc        1 DE1      0.039700
     23 HAK1        0.8920   -0.8040   -0.5950 hc        1 DE1      0.039700
     24 HAK2        0.8900    0.7900   -0.6030 hc        1 DE1      0.039700
     25 HAJ1        0.7450   -0.7930    1.7510 hc        1 DE1      0.041700
     26 HAJ2        0.7440    0.8010    1.7430 hc        1 DE1      0.041700
     27 HAH1        2.9080    0.7960    0.8190 hc        1 DE1      0.039700
     28 HAH2        2.9090   -0.7980    0.8350 hc        1 DE1      0.039700
     29 HAF1        2.7610   -0.7750    3.1820 hc        1 DE1      0.055700
     30 HAF2        2.7630    0.8190    3.1660 hc        1 DE1      0.055700
     31 HAD1        4.9260    0.8050    2.2410 h1        1 DE1      0.019700
     32 HAD2        4.9250   -0.7890    2.2660 h1        1 DE1      0.019700
     33 HAB         5.9580    0.0330    4.0430 ho        1 DE1      0.398000
@<TRIPOS>BOND
     1    1    2 1   
     2    1   12 1   
     3    1   13 1   
     4    1   14 1   
     5    2    3 1   
     6    2   15 1   
     7    2   16 1   
     8    3    4 1   
     9    3   17 1   
    10    3   18 1   
    11    4    5 1   
    12    4   19 1   
    13    4   20 1   
    14    5    6 1   
    15    5   21 1   
    16    5   22 1   
    17    6    7 1   
    18    6   23 1   
    19    6   24 1   
    20    7    8 1   
    21    7   25 1   
    22    7   26 1   
    23    8    9 1   
    24    8   27 1   
    25    8   28 1   
    26    9   10 1   
    27    9   29 1   
    28    9   30 1   
    29   10   11 1   
    30   10   31 1   
    31   10   32 1   
    32   11   33 1   
@<TRIPOS>SUBSTRUCTURE
     1 DE1         1 TEMP              0 ****  ****    0 ROOT
