@<TRIPOS>MOLECULE
DE2
   15    14     1     0     0
SMALL
bcc


@<TRIPOS>ATOM
      1 O2          0.1250    0.3860    0.2720 o         1 DE2     -0.525100
      2 C2          1.3380    0.2180    0.1120 c         1 DE2      0.543100
      3 C1          2.0200    0.3430   -1.2060 c3        1 DE2     -0.200100
      4 C3          2.2260   -0.1250    1.2930 c3        1 DE2     -0.004900
      5 O3          1.6740    0.3200    2.5190 oh        1 DE2     -0.593800
      6 C4          2.4610   -1.6410    1.3640 c3        1 DE2      0.112400
      7 O5          3.3460   -1.9590    2.4150 oh        1 DE2     -0.591800
      8 H1          2.6270    1.2830   -1.2180 hc        1 DE2      0.070700
      9 H2          2.7040   -0.5250   -1.3710 hc        1 DE2      0.070700
     10 H3          1.2750    0.3870   -2.0370 hc        1 DE2      0.070700
     11 H4          3.2130    0.4140    1.2140 h1        1 DE2      0.102700
     12 H5          0.7210    0.1540    2.4910 ho        1 DE2      0.422000
     13 H6          1.4820   -2.1700    1.5110 h1        1 DE2      0.052700
     14 H7          2.9630   -2.0110    0.4320 h1        1 DE2      0.052700
     15 H8          3.0160   -1.5160    3.2090 ho        1 DE2      0.417000
@<TRIPOS>BOND
     1    1    2 2   
     2    2    3 1   
     3    2    4 1   
     4    3    8 1   
     5    3    9 1   
     6    3   10 1   
     7    4    5 1   
     8    4    6 1   
     9    4   11 1   
    10    5   12 1   
    11    6    7 1   
    12    6   13 1   
    13    6   14 1   
    14    7   15 1   
@<TRIPOS>SUBSTRUCTURE
     1 DE2         1 TEMP              0 ****  ****    0 ROOT
