@<TRIPOS>MOLECULE
DE3
   32    32     1     0     0
SMALL
bcc


@<TRIPOS>ATOM
      1 CAA         0.2380   -0.6470    0.4320 ca        1 DE3     -0.199600
      2 CAB         1.5750   -0.3440    0.1320 ca        1 DE3     -0.060000
      3 CAC        -0.3230   -0.2420    1.6520 ca        1 DE3     -0.106000
      4 CAD         2.3480    0.3900    1.0370 ca        1 DE3     -0.056300
      5 CAE         1.7760    0.8050    2.2460 ca        1 DE3     -0.066000
      6 CAF         0.4520    0.4840    2.5520 ca        1 DE3     -0.114000
      7 CAG         3.7620    0.7070    0.7300 c3        1 DE3     -0.071800
      8 CAH        -0.5040   -1.4420   -0.5510 c         1 DE3      0.575700
      9 CAI        -4.3130   -1.9780   -0.8290 c3        1 DE3     -0.129600
     10 CAJ        -2.1120   -0.1760   -1.9600 c3        1 DE3      0.113800
     11 CAK        -2.8300   -2.2770   -0.8030 c3        1 DE3      0.113800
     12 CAL        -1.9080   -0.8690   -3.2890 c3        1 DE3     -0.129600
     13 NAM        -1.9680   -1.0540   -0.7500 nx        1 DE3     -0.600200
     14 OAN        -0.0860   -2.3530   -1.2510 o         1 DE3     -0.422100
     15 HAB         2.0180   -0.6930   -0.8170 ha        1 DE3      0.163000
     16 HAC        -1.3500   -0.5160    1.9370 ha        1 DE3      0.131000
     17 HAE         2.3800    1.3840    2.9660 ha        1 DE3      0.166000
     18 HAF         0.0200    0.8000    3.5160 ha        1 DE3      0.164000
     19 HAG         4.0210    1.7390    1.0770 hc        1 DE3      0.067033
     20 HAGA        3.9660    0.6400   -0.3670 hc        1 DE3      0.067033
     21 HAGB        4.4350   -0.0170    1.2570 hc        1 DE3      0.067033
     22 HAI        -4.6290   -1.3490    0.0380 hc        1 DE3      0.077367
     23 HAIA       -4.6140   -1.4690   -1.7770 hc        1 DE3      0.077367
     24 HAJ        -3.1500    0.2670   -1.9220 hx        1 DE3      0.103200
     25 HAJA       -1.3610    0.6590   -1.8440 hx        1 DE3      0.103200
     26 HAK        -2.5290   -2.8670   -1.7170 hx        1 DE3      0.103200
     27 HAL        -0.9500   -1.4450   -3.3200 hc        1 DE3      0.077367
     28 HALA       -1.8730   -0.0820   -4.0860 hc        1 DE3      0.077367
     29 HALB       -2.7520   -1.5630   -3.5220 hc        1 DE3      0.077367
     30 H16        -4.8610   -2.9540   -0.7700 hc        1 DE3      0.077367
     31 H17        -2.5790   -2.8930    0.1100 hx        1 DE3      0.103200
     32 HAM1       -2.2620   -0.4910    0.0590 hn        1 DE3      0.448800
@<TRIPOS>BOND
     1    1    2 ar  
     2    1    3 ar  
     3    1    8 1   
     4    2    4 ar  
     5    2   15 1   
     6    3    6 ar  
     7    3   16 1   
     8    4    5 ar  
     9    4    7 1   
    10    5    6 ar  
    11    5   17 1   
    12    6   18 1   
    13    7   19 1   
    14    7   20 1   
    15    7   21 1   
    16    8   13 1   
    17    8   14 2   
    18    9   11 1   
    19    9   22 1   
    20    9   23 1   
    21    9   30 1   
    22   10   12 1   
    23   10   13 1   
    24   10   24 1   
    25   10   25 1   
    26   11   13 1   
    27   11   26 1   
    28   11   31 1   
    29   12   27 1   
    30   12   28 1   
    31   12   29 1   
    32   13   32 1   
@<TRIPOS>SUBSTRUCTURE
     1 DE3         1 TEMP              0 ****  ****    0 ROOT
