@<TRIPOS>MOLECULE
DE3
   32    32     1     0     0
SMALL
bcc


@<TRIPOS>ATOM
      1 CAA         0.2170   -0.5680    0.4540 ca        1 DE3     -0.199600
      2 CAB         1.5750   -0.3800    0.1510 ca        1 DE3     -0.060000
      3 CAC        -0.3510    0.0540    1.5750 ca        1 DE3     -0.106000
      4 CAD         2.3630    0.4540    0.9520 ca        1 DE3     -0.056300
      5 CAE         1.7830    1.0840    2.0610 ca        1 DE3     -0.066000
      6 CAF         0.4380    0.8780    2.3720 ca        1 DE3     -0.114000
      7 CAG         3.7980    0.6520    0.6440 c3        1 DE3     -0.071800
      8 CAH        -0.5400   -1.4750   -0.4140 c         1 DE3      0.575700
      9 CAI        -4.3640   -1.8720   -0.7230 c3        1 DE3     -0.129600
     10 CAJ        -2.0480   -0.3790   -2.0550 c3        1 DE3      0.113800
     11 CAK        -2.8990   -2.2310   -0.6020 c3        1 DE3      0.113800
     12 CAL        -1.8470   -1.2850   -3.2510 c3        1 DE3     -0.129600
     13 NAM        -1.9770   -1.0560   -0.7170 n4        1 DE3     -0.600200
     14 OAN        -0.1520   -2.5060   -0.9450 o         1 DE3     -0.422100
     15 HAB         2.0220   -0.8970   -0.7140 ha        1 DE3      0.163000
     16 HAC        -1.3970   -0.1240    1.8680 ha        1 DE3      0.131000
     17 HAE         2.4000    1.7420    2.6980 ha        1 DE3      0.166000
     18 HAF        -0.0000    1.3640    3.2590 ha        1 DE3      0.164000
     19 HAG         4.4210   -0.0020    1.3070 hc        1 DE3      0.067033
     20 HAGA        4.0980    1.7150    0.8220 hc        1 DE3      0.067033
     21 HAGB        4.0260    0.3920   -0.4190 hc        1 DE3      0.067033
     22 HAI        -4.6680   -1.0980    0.0220 hc        1 DE3      0.077367
     23 HAIA       -4.6160   -1.5090   -1.7490 hc        1 DE3      0.077367
     24 HAJ        -3.0620    0.1120   -2.1220 hx        1 DE3      0.103200
     25 HAJA       -1.2580    0.4280   -2.0510 hx        1 DE3      0.103200
     26 HAK        -2.6060   -2.9740   -1.4010 hx        1 DE3      0.103200
     27 HAL        -0.9190   -1.9020   -3.1590 hc        1 DE3      0.077367
     28 HALA       -1.7530   -0.6380   -4.1610 hc        1 DE3      0.077367
     29 HALB       -2.7200   -1.9670   -3.3970 hc        1 DE3      0.077367
     30 H16        -4.9620   -2.7990   -0.5260 hc        1 DE3      0.077367
     31 H17        -2.7010   -2.7030    0.4040 hx        1 DE3      0.103200
     32 HAM1       -2.2610   -0.3580   -0.0180 hn        1 DE3      0.448800
@<TRIPOS>BOND
     1    1    2 ar  
     2    1    3 ar  
     3    1    8 1   
     4    2    4 ar  
     5    2   15 1   
     6    3    6 ar  
     7    3   16 1   
     8    4    5 ar  
     9    4    7 1   
    10    5    6 ar  
    11    5   17 1   
    12    6   18 1   
    13    7   19 1   
    14    7   20 1   
    15    7   21 1   
    16    8   13 1   
    17    8   14 2   
    18    9   11 1   
    19    9   22 1   
    20    9   23 1   
    21    9   30 1   
    22   10   12 1   
    23   10   13 1   
    24   10   24 1   
    25   10   25 1   
    26   11   13 1   
    27   11   26 1   
    28   11   31 1   
    29   12   27 1   
    30   12   28 1   
    31   12   29 1   
    32   13   32 1   
@<TRIPOS>SUBSTRUCTURE
     1 DE3         1 TEMP              0 ****  ****    0 ROOT
