@<TRIPOS>MOLECULE
DE3
   32    32     1     0     0
SMALL
bcc


@<TRIPOS>ATOM
      1 CAA         0.2400   -0.6350    0.4300 ca        1 DE3     -0.199600
      2 CAB         1.5710   -0.3060    0.1290 ca        1 DE3     -0.060000
      3 CAC        -0.3260   -0.2470    1.6530 ca        1 DE3     -0.106000
      4 CAD         2.3320    0.4370    1.0370 ca        1 DE3     -0.056300
      5 CAE         1.7540    0.8350    2.2500 ca        1 DE3     -0.066000
      6 CAF         0.4380    0.4870    2.5570 ca        1 DE3     -0.114000
      7 CAG         3.7390    0.7810    0.7300 c3        1 DE3     -0.071800
      8 CAH        -0.4890   -1.4370   -0.5570 c         1 DE3      0.575700
      9 CAI        -4.2880   -2.0410   -0.8290 c3        1 DE3     -0.129600
     10 CAJ        -2.1230   -0.1950   -1.9560 c3        1 DE3      0.113800
     11 CAK        -2.8000   -2.3130   -0.8060 c3        1 DE3      0.113800
     12 CAL        -1.9100   -0.8790   -3.2890 c3        1 DE3     -0.129600
     13 NAM        -1.9600   -1.0740   -0.7500 n4        1 DE3     -0.600200
     14 OAN        -0.0550   -2.3370   -1.2620 o         1 DE3     -0.422100
     15 HAB         2.0180   -0.6410   -0.8220 ha        1 DE3      0.163000
     16 HAC        -1.3470   -0.5420    1.9390 ha        1 DE3      0.131000
     17 HAE         2.3500    1.4200    2.9720 ha        1 DE3      0.166000
     18 HAF         0.0010    0.7890    3.5230 ha        1 DE3      0.164000
     19 HAG         3.9840    1.8100    1.0940 hc        1 DE3      0.067033
     20 HAGA        4.4260    0.0580    1.2390 hc        1 DE3      0.067033
     21 HAGB        3.9380    0.7380   -0.3700 hc        1 DE3      0.067033
     22 HAI        -4.8190   -3.0270   -0.7720 hc        1 DE3      0.077367
     23 HAIA       -4.6140   -1.4210    0.0410 hc        1 DE3      0.077367
     24 HAJ        -3.1680    0.2290   -1.9140 hx        1 DE3      0.103200
     25 HAJA       -1.3860    0.6530   -1.8400 hx        1 DE3      0.103200
     26 HAK        -2.4900   -2.8940   -1.7230 hx        1 DE3      0.103200
     27 HAL        -1.8910   -0.0880   -4.0820 hc        1 DE3      0.077367
     28 HALA       -2.7430   -1.5870   -3.5220 hc        1 DE3      0.077367
     29 HALB       -0.9420   -1.4380   -3.3250 hc        1 DE3      0.077367
     30 H16        -4.6000   -1.5340   -1.7750 hc        1 DE3      0.077367
     31 H17        -2.5360   -2.9270    0.1040 hx        1 DE3      0.103200
     32 HAM1       -2.2620   -0.5200    0.0620 hn        1 DE3      0.448800
@<TRIPOS>BOND
     1    1    2 ar  
     2    1    3 ar  
     3    1    8 1   
     4    2    4 ar  
     5    2   15 1   
     6    3    6 ar  
     7    3   16 1   
     8    4    5 ar  
     9    4    7 1   
    10    5    6 ar  
    11    5   17 1   
    12    6   18 1   
    13    7   19 1   
    14    7   20 1   
    15    7   21 1   
    16    8   13 1   
    17    8   14 2   
    18    9   11 1   
    19    9   22 1   
    20    9   23 1   
    21    9   30 1   
    22   10   12 1   
    23   10   13 1   
    24   10   24 1   
    25   10   25 1   
    26   11   13 1   
    27   11   26 1   
    28   11   31 1   
    29   12   27 1   
    30   12   28 1   
    31   12   29 1   
    32   13   32 1   
@<TRIPOS>SUBSTRUCTURE
     1 DE3         1 TEMP              0 ****  ****    0 ROOT
