@<TRIPOS>MOLECULE
DE3
   31    31     1     0     0
SMALL
bcc


@<TRIPOS>ATOM
      1 CAA         0.5800    0.0120   -0.6650 ca        1 DE3     -0.120600
      2 CAB         1.4460   -0.7160    0.1540 ca        1 DE3     -0.104000
      3 CAC         1.0270    1.1610   -1.3230 ca        1 DE3     -0.105000
      4 CAD         2.7710   -0.2950    0.3230 ca        1 DE3     -0.078300
      5 CAE         3.2130    0.8600   -0.3350 ca        1 DE3     -0.120000
      6 CAF         2.3460    1.5810   -1.1530 ca        1 DE3     -0.129000
      7 CAG         3.6980   -1.0750    1.1740 c3        1 DE3     -0.055800
      8 CAH        -0.8130   -0.4780   -0.8920 c         1 DE3      0.672700
      9 CAI        -1.7400    2.2760    0.7920 c3        1 DE3     -0.115100
     10 CAJ        -3.1730   -0.5050   -0.2080 c3        1 DE3      0.092000
     11 CAK        -1.5390    0.7990    1.1040 c3        1 DE3      0.092000
     12 CAL        -3.6550   -1.6220    0.7060 c3        1 DE3     -0.115100
     13 NAM        -1.8010   -0.1000    0.0060 n         1 DE3     -0.475800
     14 OAN        -1.0820   -1.2170   -1.8610 o         1 DE3     -0.596100
     15 HAB         1.0900   -1.6250    0.6610 ha        1 DE3      0.142000
     16 HAC         0.3440    1.7240   -1.9760 ha        1 DE3      0.141000
     17 HAE         4.2530    1.1950   -0.2060 ha        1 DE3      0.134000
     18 HAF         2.7030    2.4830   -1.6710 ha        1 DE3      0.135000
     19 HAG         4.2250   -1.8450    0.5550 hc        1 DE3      0.046700
     20 HAGA        4.4700   -0.4110    1.6370 hc        1 DE3      0.046700
     21 HAGB        3.1470   -1.6010    1.9920 hc        1 DE3      0.046700
     22 HAI        -2.7870    2.4820    0.4640 hc        1 DE3      0.041033
     23 HAIA       -1.5310    2.8700    1.7140 hc        1 DE3      0.041033
     24 HAJ        -3.2850   -0.8450   -1.2790 h1        1 DE3      0.054700
     25 HAJA       -3.8330    0.3980   -0.0580 h1        1 DE3      0.054700
     26 HAK        -0.4780    0.6450    1.4570 h1        1 DE3      0.054700
     27 HAL        -4.7210   -1.8470    0.4620 hc        1 DE3      0.041033
     28 HALA       -3.0520   -2.5500    0.5570 hc        1 DE3      0.041033
     29 HALB       -3.5910   -1.3270    1.7810 hc        1 DE3      0.041033
     30 H16        -1.0430    2.6100   -0.0150 hc        1 DE3      0.041033
     31 H17        -2.2250    0.5130    1.9540 h1        1 DE3      0.054700
@<TRIPOS>BOND
     1    1    2 ar  
     2    1    3 ar  
     3    1    8 1   
     4    2    4 ar  
     5    2   15 1   
     6    3    6 ar  
     7    3   16 1   
     8    4    5 ar  
     9    4    7 1   
    10    5    6 ar  
    11    5   17 1   
    12    6   18 1   
    13    7   19 1   
    14    7   20 1   
    15    7   21 1   
    16    8   13 1   
    17    8   14 2   
    18    9   11 1   
    19    9   22 1   
    20    9   23 1   
    21    9   30 1   
    22   10   12 1   
    23   10   13 1   
    24   10   24 1   
    25   10   25 1   
    26   11   13 1   
    27   11   26 1   
    28   11   31 1   
    29   12   27 1   
    30   12   28 1   
    31   12   29 1   
@<TRIPOS>SUBSTRUCTURE
     1 DE3         1 TEMP              0 ****  ****    0 ROOT
