@<TRIPOS>MOLECULE
DE3
   31    28     1     0     0
SMALL
bcc


@<TRIPOS>ATOM
      1 CAA         0.7650   -0.0040    0.5090 cg        1 DE3     -0.070200
      2 CAB         2.1630    0.0150    0.5360 c1        1 DE3     -0.041500
      3 CAC         0.0490   -0.1930    1.6880 c1        1 DE3     -0.050500
      4 CAD         2.8400   -0.1540    1.7430 c1        1 DE3     -0.044100
      5 CAE         2.1240   -0.3420    2.9180 c1        1 DE3     -0.067000
      6 CAF         0.7230   -0.3610    2.8900 c1        1 DE3     -0.067000
      7 CAG         4.3970   -0.1210    1.7770 c3        1 DE3     -0.089000
      8 CAH         0.0090    0.1390   -0.8440 c         1 DE3      0.617300
      9 CAI        -1.8890    2.0590   -2.3170 c3        1 DE3     -0.121100
     10 CAJ        -2.1320   -1.1220   -0.7260 c3        1 DE3      0.089000
     11 CAK        -2.1680    1.3730   -0.9470 c3        1 DE3      0.089000
     12 CAL        -2.3860   -1.7320   -2.1110 c3        1 DE3     -0.121100
     13 NAM        -1.4270    0.1210   -0.8710 n         1 DE3     -0.468800
     14 OAN         0.6370    0.2190   -1.8880 o         1 DE3     -0.593100
     15 HAB         2.6620    0.1470   -0.2870 ha        1 DE3      0.085500
     16 HAC        -0.9370   -0.2070    1.6700 ha        1 DE3      0.083500
     17 HAE         2.6000   -0.4610    3.7700 ha        1 DE3      0.077000
     18 HAF         0.2100   -0.4960    3.7310 ha        1 DE3      0.077000
     19 HAG         4.7310    0.3450    0.9850 hc        1 DE3      0.046700
     20 HAGA        4.7450   -1.0420    1.7880 hc        1 DE3      0.046700
     21 HAGB        4.6960    0.3500    2.5830 hc        1 DE3      0.046700
     22 HAI        -2.6850    2.5850   -2.5930 hc        1 DE3      0.041867
     23 HAIA       -1.1150    2.6580   -2.2310 hc        1 DE3      0.041867
     24 HAJ        -2.9870   -0.9610   -0.2800 h1        1 DE3      0.055700
     25 HAJA       -1.5960   -1.7410   -0.1900 h1        1 DE3      0.055700
     26 HAK        -1.8860    1.9590   -0.2300 h1        1 DE3      0.055700
     27 HAL        -2.5120   -2.7030   -2.0230 hc        1 DE3      0.041867
     28 HALA       -1.6180   -1.5530   -2.6920 hc        1 DE3      0.041867
     29 HALB       -3.1860   -1.3350   -2.4990 hc        1 DE3      0.041867
     30 H16        -1.6970    1.3660   -3.0010 hc        1 DE3      0.041867
     31 H17        -3.1310    1.1900   -0.8610 h1        1 DE3      0.055700
@<TRIPOS>BOND
     1    1    3 3   
     2    1    8 1   
     3    2    4 3   
     4    2   15 1   
     5    3   16 1   
     6    4    7 1   
     7    5    6 3   
     8    5   17 1   
     9    6   18 1   
    10    7   19 1   
    11    7   20 1   
    12    7   21 1   
    13    8   13 1   
    14    8   14 2   
    15    9   11 1   
    16    9   22 1   
    17    9   23 1   
    18    9   30 1   
    19   10   12 1   
    20   10   13 1   
    21   10   24 1   
    22   10   25 1   
    23   11   13 1   
    24   11   26 1   
    25   11   31 1   
    26   12   27 1   
    27   12   28 1   
    28   12   29 1   
@<TRIPOS>SUBSTRUCTURE
     1 DE3         1 TEMP              0 ****  ****    0 ROOT
