@<TRIPOS>MOLECULE
DE9
   66    70     1     0     0
SMALL
bcc


@<TRIPOS>ATOM
      1 CHA        -0.0580    0.0400    0.0390 ce        1 DE9     -0.263600
      2 CHB         4.6340    0.3630   -1.3120 ce        1 DE9     -0.070200
      3 CHC         3.2230    1.0500   -6.0370 ce        1 DE9     -0.019200
      4 CHD        -1.4380    0.7310   -4.6060 ce        1 DE9     -0.345600
      5 NA          2.1690    0.2510   -1.0070 nd        1 DE9     -0.669300
      6 C1A         1.3810    0.0820    0.0600 cc        1 DE9      0.528900
      7 C2A         2.1980   -0.0710    1.3180 cc        1 DE9     -0.179800
      8 C3A         3.5120    0.0100    0.9300 cd        1 DE9     -0.106200
      9 C4A         3.5210    0.2220   -0.5520 cd        1 DE9      0.115600
     10 CMA         4.7180   -0.0890    1.7510 c3        1 DE9     -0.070900
     11 CAA         1.6900   -0.2800    2.6830 c3        1 DE9     -0.027200
     12 CBA         1.9930    0.8800    3.6170 c3        1 DE9     -0.191400
     13 CGA         2.7980    0.4660    4.8610 c         1 DE9      0.905600
     14 O1A         3.5960   -0.5170    4.7850 o         1 DE9     -0.853800
     15 O2A         2.6480    1.1570    5.9100 o         1 DE9     -0.853800
     16 NB          3.6080    0.6830   -3.5790 na        1 DE9     -0.099100
     17 C1B         4.6970    0.5760   -2.7280 cc        1 DE9     -0.047100
     18 C2B         5.8850    0.7190   -3.5150 cd        1 DE9     -0.161300
     19 C3B         5.4780    0.9150   -4.8570 cd        1 DE9     -0.178000
     20 C4B         4.0530    0.8900   -4.8840 cc        1 DE9     -0.109100
     21 CMB         7.2570    0.6710   -3.0090 c3        1 DE9     -0.014800
     22 NC          1.0110    0.8380   -4.9420 nd        1 DE9     -0.649300
     23 C1C         1.8650    1.0270   -6.0630 cd        1 DE9      0.068600
     24 C2C         1.0110    1.1960   -7.2810 cd        1 DE9     -0.109200
     25 C3C        -0.2880    1.1040   -6.8640 cc        1 DE9     -0.272600
     26 C4C        -0.2520    0.8780   -5.3850 cc        1 DE9      0.522900
     27 CMC         1.5390    1.4130   -8.6280 c3        1 DE9     -0.034900
     28 ND         -0.3970    0.4070   -2.3830 na        1 DE9     -0.624800
     29 C1D        -1.4780    0.5160   -3.2550 cc        1 DE9      0.224000
     30 C2D        -2.7130    0.3530   -2.4330 cc        1 DE9     -0.113200
     31 C3D        -2.3410    0.1450   -1.1280 cd        1 DE9     -0.037200
     32 C4D        -0.8430    0.1830   -1.0650 cd        1 DE9      0.173000
     33 CMD        -4.0610    0.4220   -2.9980 c3        1 DE9     -0.070900
     34 CAD        -3.2300   -0.0630    0.0270 c3        1 DE9     -0.038200
     35 CBD        -4.0210   -1.3580   -0.0540 c3        1 DE9     -0.192400
     36 CGD        -5.5450   -1.1460   -0.0600 c         1 DE9      0.905600
     37 O1D        -6.2680   -2.1230    0.2870 o         1 DE9     -0.850800
     38 O2D        -6.0170   -0.0290   -0.4310 o         1 DE9     -0.850800
     39 H1         -0.5480   -0.1240    1.0130 ha        1 DE9      0.166000
     40 H2          5.6180    0.3150   -0.8110 ha        1 DE9      0.141000
     41 H3          3.7670    1.2060   -6.9840 ha        1 DE9      0.124000
     42 H4         -2.3950    0.7930   -5.1460 ha        1 DE9      0.142000
     43 H5          4.4420   -0.2510    2.8350 hc        1 DE9      0.061700
     44 H6          5.3540   -0.9430    1.4090 hc        1 DE9      0.061700
     45 H7          5.3220    0.8490    1.6720 hc        1 DE9      0.061700
     46 H8          2.1830   -1.2050    3.1040 hc        1 DE9      0.058700
     47 H9          0.5850   -0.4700    2.6620 hc        1 DE9      0.058700
     48 H10         2.5950    1.6630    3.0890 hc        1 DE9      0.032200
     49 H11         1.0380    1.3570    3.9530 hc        1 DE9      0.032200
     50 H13         2.6550    0.6220   -3.3010 hn        1 DE9      0.347700
     51 H14         6.1220    1.0590   -5.7180 ha        1 DE9      0.135000
     52 H15         7.4250    1.4720   -2.2450 hc        1 DE9      0.031367
     53 H16         7.4640   -0.3170   -2.5230 hc        1 DE9      0.031367
     54 H17         7.9900    0.8160   -3.8400 hc        1 DE9      0.031367
     55 H18        -1.2050    1.1720   -7.4400 ha        1 DE9      0.143000
     56 H19         0.7110    1.5100   -9.3730 hc        1 DE9      0.036700
     57 H20         2.1550    2.3470   -8.6590 hc        1 DE9      0.036700
     58 H21         2.1920    0.5570   -8.9340 hc        1 DE9      0.036700
     59 H22         0.5550    0.4680   -2.6470 hn        1 DE9      0.491800
     60 H23        -4.8340    0.2890   -2.1860 hc        1 DE9      0.064700
     61 H24        -4.2240    1.4100   -3.4960 hc        1 DE9      0.064700
     62 H25        -4.2040   -0.3820   -3.7630 hc        1 DE9      0.064700
     63 H26        -3.9680    0.7940    0.0630 hc        1 DE9      0.066200
     64 H27        -2.6380   -0.0370    0.9790 hc        1 DE9      0.066200
     65 H28        -3.7600   -2.0150    0.8130 hc        1 DE9      0.034200
     66 H29        -3.7680   -1.9170   -0.9900 hc        1 DE9      0.034200
@<TRIPOS>BOND
     1    1    6 1   
     2    1   32 2   
     3    1   39 1   
     4    2    9 2   
     5    2   17 1   
     6    2   40 1   
     7    3   20 1   
     8    3   23 2   
     9    3   41 1   
    10    4   26 1   
    11    4   29 2   
    12    4   42 1   
    13    5    6 2   
    14    5    9 1   
    15    6    7 1   
    16    7    8 2   
    17    7   11 1   
    18    8    9 1   
    19    8   10 1   
    20   10   43 1   
    21   10   44 1   
    22   10   45 1   
    23   11   12 1   
    24   11   46 1   
    25   11   47 1   
    26   12   13 1   
    27   12   48 1   
    28   12   49 1   
    29   13   14 1   
    30   13   15 1   
    31   16   17 1   
    32   16   20 1   
    33   16   50 1   
    34   17   18 2   
    35   18   19 1   
    36   18   21 1   
    37   19   20 2   
    38   19   51 1   
    39   21   52 1   
    40   21   53 1   
    41   21   54 1   
    42   22   23 1   
    43   22   26 2   
    44   23   24 1   
    45   24   25 2   
    46   24   27 1   
    47   25   26 1   
    48   25   55 1   
    49   27   56 1   
    50   27   57 1   
    51   27   58 1   
    52   28   29 1   
    53   28   32 1   
    54   28   59 1   
    55   29   30 1   
    56   30   31 2   
    57   30   33 1   
    58   31   32 1   
    59   31   34 1   
    60   33   60 1   
    61   33   61 1   
    62   33   62 1   
    63   34   35 1   
    64   34   63 1   
    65   34   64 1   
    66   35   36 1   
    67   35   65 1   
    68   35   66 1   
    69   36   37 1   
    70   36   38 1   
@<TRIPOS>SUBSTRUCTURE
     1 DE9         1 TEMP              0 ****  ****    0 ROOT
