@<TRIPOS>MOLECULE
DEA
   28    29     1     0     0
SMALL
bcc


@<TRIPOS>ATOM
      1 N9          0.1450    0.0880    0.5980 na        1 DEA     -0.232000
      2 C8         -0.0720    1.4520    0.8950 cc        1 DEA      0.433700
      3 N7         -0.2480    1.7010    2.2060 nd        1 DEA     -0.587100
      4 C5         -0.1400    0.4510    2.8290 ca        1 DEA     -0.215200
      5 C6         -0.2270    0.0330    4.1950 ca        1 DEA      0.720200
      6 N6         -0.5600    0.9510    5.1790 nh        1 DEA     -0.941500
      7 N1         -0.0350   -1.2890    4.5020 nb        1 DEA     -0.801000
      8 C2          0.1950   -2.1450    3.4640 ca        1 DEA      0.657900
      9 N3          0.2860   -1.9060    2.1400 nb        1 DEA     -0.710000
     10 C4          0.1160   -0.5840    1.8250 ca        1 DEA      0.434800
     11 C1'         0.4180   -0.4870   -0.6920 c3        1 DEA      0.030300
     12 C2'        -0.2660    0.2280   -1.8750 c3        1 DEA      0.139100
     13 O2'         0.3040    1.5230   -1.9700 oh        1 DEA     -0.664800
     14 C3'        -0.0320   -0.5860   -3.1600 c3        1 DEA     -0.020900
     15 O3'        -0.4080   -1.9300   -2.9360 oh        1 DEA     -0.637800
     16 C4'        -0.8190    0.0480   -4.3400 c         1 DEA      0.895600
     17 O          -1.6530   -0.6940   -4.9260 o         1 DEA     -0.822300
     18 OXT        -0.5740    1.2520   -4.6310 o         1 DEA     -0.822300
     19 H8         -0.0890    2.1960    0.0820 h5        1 DEA      0.107800
     20 HN61       -0.3800    0.7040    6.1230 hn        1 DEA      0.420800
     21 HN62       -0.4360    1.9060    4.9370 hn        1 DEA      0.420800
     22 H2          0.3310   -3.2050    3.7660 h5        1 DEA      0.039100
     23 H1'1        1.5340   -0.4630   -0.8600 h1        1 DEA      0.080700
     24 H1'2        0.0710   -1.5610   -0.6900 h1        1 DEA      0.080700
     25 H2'        -1.3710    0.3260   -1.6890 h1        1 DEA      0.045700
     26 HO'2        0.1430    1.8500   -2.8740 ho        1 DEA      0.465000
     27 H3'         1.0650   -0.5880   -3.4020 h1        1 DEA      0.050700
     28 HO'3       -1.1700   -2.1140   -3.5110 ho        1 DEA      0.433000
@<TRIPOS>BOND
     1    1    2 1   
     2    1   10 1   
     3    1   11 1   
     4    2    3 2   
     5    2   19 1   
     6    3    4 1   
     7    4    5 ar  
     8    4   10 ar  
     9    5    6 1   
    10    5    7 ar  
    11    6   20 1   
    12    6   21 1   
    13    7    8 ar  
    14    8    9 ar  
    15    8   22 1   
    16    9   10 ar  
    17   11   12 1   
    18   11   23 1   
    19   11   24 1   
    20   12   13 1   
    21   12   14 1   
    22   12   25 1   
    23   13   26 1   
    24   14   15 1   
    25   14   16 1   
    26   14   27 1   
    27   15   28 1   
    28   16   17 1   
    29   16   18 1   
@<TRIPOS>SUBSTRUCTURE
     1 DEA         1 TEMP              0 ****  ****    0 ROOT
