@<TRIPOS>MOLECULE
DEA
   28    24     1     0     0
SMALL
bcc


@<TRIPOS>ATOM
      1 N9          0.5530    0.5340    0.1260 n2        1 DEA     -0.149000
      2 C8          1.9040    0.5230    0.1560 c1        1 DEA     -0.022000
      3 N7          2.2940    0.5100    1.4510 n2        1 DEA     -0.160000
      4 C5          1.1770    0.5130    2.2260 c1        1 DEA     -0.224000
      5 C6          1.0000    0.5010    3.6010 c1        1 DEA      0.199000
      6 N6          1.9960    0.3660    4.6010 n2        1 DEA     -0.339000
      7 N1         -0.2400    0.5050    4.1180 n2        1 DEA     -0.275000
      8 C2         -1.3250    0.5200    3.2900 c1        1 DEA     -0.005000
      9 N3         -1.1530    0.5310    1.9380 n1        1 DEA     -0.184000
     10 C4          0.1040    0.5280    1.4100 c1        1 DEA      0.043000
     11 C1'        -0.2230    0.7490   -1.0460 c2        1 DEA     -0.029000
     12 C2'        -0.3590   -0.5500   -1.8060 c3        1 DEA      0.028000
     13 O2'        -1.1060   -1.4660   -1.0420 oh        1 DEA     -0.392000
     14 C3'        -1.0650   -0.2950   -3.1180 c3        1 DEA     -0.082000
     15 O3'        -0.2120    0.4240   -3.9780 oh        1 DEA     -0.365000
     16 C4'        -1.4300   -1.6150   -3.7590 c2        1 DEA      0.315000
     17 O          -0.5650   -2.2620   -4.4050 o         1 DEA     -0.557000
     18 OXT        -2.6050   -2.0570   -3.6630 o         1 DEA     -0.557000
     19 H8          2.4950    0.5190   -0.6210 DU        1 DEA      0.237000
     20 HN61        1.8310    0.6520    5.4530 hn        1 DEA      0.216000
     21 HN62        2.8010   -0.0170    4.3960 hn        1 DEA      0.216000
     22 H2         -2.2260    0.5170    3.6670 ha        1 DEA      0.176000
     23 H1'1        0.2180    1.4150   -1.6130 ha        1 DEA      0.120000
     24 H1'2       -1.1120    1.0740   -0.7930 ha        1 DEA      0.120000
     25 H2'         0.5290   -0.9200   -1.9810 h1        1 DEA      0.085000
     26 HO'2       -0.7080   -2.2600   -1.0570 ho        1 DEA      0.264000
     27 H3'        -1.8770    0.2240   -2.9560 h1        1 DEA      0.090000
     28 HO'3       -0.6970    0.8380   -4.5970 ho        1 DEA      0.232000
@<TRIPOS>BOND
     1    1    2 1   
     2    1   10 1   
     3    2    3 1   
     4    3    4 1   
     5    4    5 1   
     6    5    7 1   
     7    6   20 1   
     8    6   21 1   
     9    7    8 1   
    10    8   22 1   
    11    9   10 1   
    12   11   12 1   
    13   11   23 1   
    14   11   24 1   
    15   12   13 1   
    16   12   14 1   
    17   12   25 1   
    18   13   26 1   
    19   14   15 1   
    20   14   16 1   
    21   14   27 1   
    22   15   28 1   
    23   16   17 1   
    24   16   18 1   
@<TRIPOS>SUBSTRUCTURE
     1 DEA         1 TEMP              0 ****  ****    0 ROOT
