@<TRIPOS>MOLECULE
DEA
   29    30     1     0     0
SMALL
bcc


@<TRIPOS>ATOM
      1 N9         -0.2500    0.1330    0.0890 na        1 DEA     -0.200000
      2 C8          1.1210   -0.1780    0.0230 cc        1 DEA      0.512700
      3 N7          1.7480   -0.2250    1.2230 nd        1 DEA     -0.619100
      4 C5          0.7390    0.0250    2.1510 ca        1 DEA     -0.130200
      5 C6          0.6880    0.0860    3.5510 ca        1 DEA      0.490200
      6 N6          1.9310   -0.1770    4.2990 n4        1 DEA     -0.811300
      7 N1         -0.4580    0.3570    4.2270 nb        1 DEA     -0.696000
      8 C2         -1.5710    0.5650    3.4680 ca        1 DEA      0.654900
      9 N3         -1.7030    0.5320    2.1160 nb        1 DEA     -0.599000
     10 C4         -0.5580    0.2500    1.4520 ca        1 DEA      0.465800
     11 C1'        -1.1910   -0.0360   -0.9980 c3        1 DEA      0.005300
     12 C2'        -1.2380   -1.4790   -1.5460 c3        1 DEA      0.144100
     13 O2'        -1.8050   -2.2850   -0.5340 oh        1 DEA     -0.656800
     14 C3'        -2.0580   -1.4980   -2.8440 c3        1 DEA     -0.031900
     15 O3'        -1.5760   -0.4810   -3.7000 oh        1 DEA     -0.648800
     16 C4'        -1.9380   -2.9130   -3.4870 c         1 DEA      0.900600
     17 O          -2.2530   -3.8980   -2.7650 o         1 DEA     -0.806300
     18 OXT        -1.5130   -2.9500   -4.6690 o         1 DEA     -0.806300
     19 H8          1.6150   -0.3530   -0.9490 h5        1 DEA      0.111800
     20 HN61        2.2030   -1.1540    4.1330 hn        1 DEA      0.469800
     21 HN62        2.6650    0.4420    3.9360 hn        1 DEA      0.469800
     22 H2         -2.5010    0.7830    4.0410 h5        1 DEA      0.087100
     23 H1'1       -2.2150    0.2530   -0.6320 h1        1 DEA      0.104700
     24 H1'2       -0.8770    0.6520   -1.8360 h1        1 DEA      0.104700
     25 H2'        -0.1940   -1.8430   -1.7650 h1        1 DEA      0.033700
     26 HO'2       -2.1610   -3.0890   -0.9640 ho        1 DEA      0.477000
     27 H3'        -3.1340   -1.2720   -2.6160 h1        1 DEA      0.056700
     28 HO'3       -1.3020   -0.9130   -4.5290 ho        1 DEA      0.444000
     29 H63         1.8030   -0.0190    5.3040 hn        1 DEA      0.469800
@<TRIPOS>BOND
     1    1    2 1   
     2    1   10 1   
     3    1   11 1   
     4    2    3 2   
     5    2   19 1   
     6    3    4 1   
     7    4    5 ar  
     8    4   10 ar  
     9    5    6 1   
    10    5    7 ar  
    11    6   20 1   
    12    6   21 1   
    13    6   29 1   
    14    7    8 ar  
    15    8    9 ar  
    16    8   22 1   
    17    9   10 ar  
    18   11   12 1   
    19   11   23 1   
    20   11   24 1   
    21   12   13 1   
    22   12   14 1   
    23   12   25 1   
    24   13   26 1   
    25   14   15 1   
    26   14   16 1   
    27   14   27 1   
    28   15   28 1   
    29   16   17 1   
    30   16   18 1   
@<TRIPOS>SUBSTRUCTURE
     1 DEA         1 TEMP              0 ****  ****    0 ROOT
