@<TRIPOS>MOLECULE
DEA
   28    29     1     0     0
SMALL
bcc


@<TRIPOS>ATOM
      1 N9         -0.6280   -0.9620    0.5930 na        1 DEA     -0.233000
      2 C8          0.4440   -1.8440    0.8490 cc        1 DEA      0.433700
      3 N7          1.1780   -1.5110    1.9270 nd        1 DEA     -0.587100
      4 C5          0.5740   -0.3510    2.4290 ca        1 DEA     -0.214200
      5 C6          0.8660    0.4930    3.5480 ca        1 DEA      0.717200
      6 N6          1.8860    0.1500    4.4250 nh        1 DEA     -0.937500
      7 N1          0.0910    1.6010    3.7680 nb        1 DEA     -0.799000
      8 C2         -0.9520    1.8150    2.9150 ca        1 DEA      0.657900
      9 N3         -1.3590    1.1090    1.8400 nb        1 DEA     -0.709000
     10 C4         -0.5740    0.0130    1.5960 ca        1 DEA      0.434800
     11 C1'        -1.6050   -1.0670   -0.4580 c3        1 DEA      0.030300
     12 C2'        -1.0620   -1.6300   -1.7870 c3        1 DEA      0.139100
     13 O2'        -0.6980   -2.9810   -1.5530 oh        1 DEA     -0.664800
     14 C3'        -2.1520   -1.5200   -2.8680 c3        1 DEA     -0.020900
     15 O3'        -2.6470   -0.1970   -2.8980 oh        1 DEA     -0.637800
     16 C4'        -1.5800   -1.9580   -4.2430 c         1 DEA      0.895600
     17 O          -1.6360   -1.1110   -5.1750 o         1 DEA     -0.822300
     18 OXT        -1.0990   -3.1220   -4.3370 o         1 DEA     -0.822300
     19 H8          0.6170   -2.7080    0.1840 h5        1 DEA      0.107800
     20 HN61        2.2300    0.8600    5.0280 hn        1 DEA      0.418800
     21 HN62        2.5590   -0.4880    4.0680 hn        1 DEA      0.418800
     22 H2         -1.5550    2.7180    3.1460 h5        1 DEA      0.039100
     23 H1'1       -2.0280   -0.0420   -0.6640 h1        1 DEA      0.081700
     24 H1'2       -2.4350   -1.7420   -0.1000 h1        1 DEA      0.081700
     25 H2'        -0.1510   -1.0560   -2.1140 h1        1 DEA      0.045700
     26 HO'2       -0.6720   -3.4320   -2.4170 ho        1 DEA      0.464000
     27 H3'        -3.0130   -2.1870   -2.5920 h1        1 DEA      0.050700
     28 HO'3       -2.4060    0.1790   -3.7630 ho        1 DEA      0.433000
@<TRIPOS>BOND
     1    1    2 1   
     2    1   10 1   
     3    1   11 1   
     4    2    3 2   
     5    2   19 1   
     6    3    4 1   
     7    4    5 ar  
     8    4   10 ar  
     9    5    6 1   
    10    5    7 ar  
    11    6   20 1   
    12    6   21 1   
    13    7    8 ar  
    14    8    9 ar  
    15    8   22 1   
    16    9   10 ar  
    17   11   12 1   
    18   11   23 1   
    19   11   24 1   
    20   12   13 1   
    21   12   14 1   
    22   12   25 1   
    23   13   26 1   
    24   14   15 1   
    25   14   16 1   
    26   14   27 1   
    27   15   28 1   
    28   16   17 1   
    29   16   18 1   
@<TRIPOS>SUBSTRUCTURE
     1 DEA         1 TEMP              0 ****  ****    0 ROOT
