@<TRIPOS>MOLECULE
DEA
   28    29     1     0     0
SMALL
bcc


@<TRIPOS>ATOM
      1 N9         -0.5810   -0.9090    0.5520 na        1 DEA     -0.232000
      2 C8          0.5050   -1.7790    0.7880 cc        1 DEA      0.433700
      3 N7          1.2420   -1.4490    1.8640 nd        1 DEA     -0.587100
      4 C5          0.6260   -0.3040    2.3860 ca        1 DEA     -0.215200
      5 C6          0.9140    0.5300    3.5140 ca        1 DEA      0.720200
      6 N6          2.0550    0.3010    4.2690 nv        1 DEA     -0.941500
      7 N1          0.0830    1.5820    3.7950 nb        1 DEA     -0.801000
      8 C2         -0.9640    1.7960    2.9470 ca        1 DEA      0.657900
      9 N3         -1.3500    1.1170    1.8470 nb        1 DEA     -0.710000
     10 C4         -0.5370    0.0500    1.5700 ca        1 DEA      0.434800
     11 C1'        -1.5780   -1.0240   -0.4790 c3        1 DEA      0.030300
     12 C2'        -1.0730   -1.6390   -1.8000 c3        1 DEA      0.139100
     13 O2'        -0.7280   -2.9880   -1.5300 oh        1 DEA     -0.664800
     14 C3'        -2.1840   -1.5430   -2.8600 c3        1 DEA     -0.020900
     15 O3'        -2.6520   -0.2110   -2.9260 oh        1 DEA     -0.637800
     16 C4'        -1.6540   -2.0420   -4.2320 c         1 DEA      0.895600
     17 O          -1.7130   -1.2250   -5.1910 o         1 DEA     -0.822300
     18 OXT        -1.2010   -3.2190   -4.2950 o         1 DEA     -0.822300
     19 H8          0.6830   -2.6340    0.1130 h5        1 DEA      0.107800
     20 HN61        2.4600   -0.6010    4.1740 hn        1 DEA      0.420800
     21 HN62        2.1080    0.7210    5.1660 hn        1 DEA      0.420800
     22 H2         -1.5980    2.6680    3.2130 h5        1 DEA      0.039100
     23 H1'1       -1.9810    0.0050   -0.7090 h1        1 DEA      0.080700
     24 H1'2       -2.4190   -1.6660   -0.0870 h1        1 DEA      0.080700
     25 H2'        -0.1590   -1.0930   -2.1640 h1        1 DEA      0.045700
     26 HO'2       -0.7330   -3.4680   -2.3780 ho        1 DEA      0.465000
     27 H3'        -3.0530   -2.1810   -2.5430 h1        1 DEA      0.050700
     28 HO'3       -2.4210    0.1300   -3.8080 ho        1 DEA      0.433000
@<TRIPOS>BOND
     1    1    2 1   
     2    1   10 1   
     3    1   11 1   
     4    2    3 2   
     5    2   19 1   
     6    3    4 1   
     7    4    5 ar  
     8    4   10 ar  
     9    5    6 1   
    10    5    7 ar  
    11    6   20 1   
    12    6   21 1   
    13    7    8 ar  
    14    8    9 ar  
    15    8   22 1   
    16    9   10 ar  
    17   11   12 1   
    18   11   23 1   
    19   11   24 1   
    20   12   13 1   
    21   12   14 1   
    22   12   25 1   
    23   13   26 1   
    24   14   15 1   
    25   14   16 1   
    26   14   27 1   
    27   15   28 1   
    28   16   17 1   
    29   16   18 1   
@<TRIPOS>SUBSTRUCTURE
     1 DEA         1 TEMP              0 ****  ****    0 ROOT
