@<TRIPOS>MOLECULE
DEB
   65    65     1     0     0
SMALL
bcc


@<TRIPOS>ATOM
      1 C1         -0.0090   -0.4690   -0.2150 c         1 DEB      0.629100
      2 C2          1.4740   -0.2840    0.0120 c3        1 DEB     -0.145700
      3 C3          1.6670    0.2890    1.4330 c3        1 DEB      0.148100
      4 C4          2.7490    1.3830    1.4770 c3        1 DEB     -0.046700
      5 C5          2.6750    2.1220    2.8270 c3        1 DEB      0.146100
      6 C6          2.0470    3.5300    2.7260 c3        1 DEB     -0.095700
      7 C7          0.6100    3.4280    2.2440 c3        1 DEB     -0.073400
      8 C8         -0.2930    4.5760    2.6720 c3        1 DEB     -0.159700
      9 C9         -1.7410    4.2110    2.3880 c         1 DEB      0.571100
     10 C10        -2.1310    3.9690    0.9420 c3        1 DEB     -0.193700
     11 C11        -2.1230    2.4620    0.6470 c3        1 DEB      0.146100
     12 C12        -2.3620    2.1160   -0.8330 c3        1 DEB     -0.092700
     13 C13        -1.9940    0.6360   -1.0480 c3        1 DEB      0.145100
     14 C14        -2.3980    0.1310   -2.4290 c3        1 DEB     -0.094400
     15 C15        -2.7190   -1.3410   -2.4100 c3        1 DEB     -0.099100
     16 O16        -0.5560    0.5590   -0.9280 os        1 DEB     -0.445900
     17 O17        -0.7260   -1.3900    0.1780 o         1 DEB     -0.537000
     18 C18         2.1880   -1.6020   -0.1970 c3        1 DEB     -0.095100
     19 O19         2.0220   -0.7160    2.3660 oh        1 DEB     -0.587800
     20 C20         4.1250    0.8170    1.2040 c3        1 DEB     -0.079100
     21 O21         3.9980    2.2350    3.3410 oh        1 DEB     -0.592800
     22 C22         2.8920    4.4380    1.8570 c3        1 DEB     -0.094100
     23 C23         0.0460    5.8920    2.0040 c3        1 DEB     -0.088100
     24 O24        -2.5650    4.1450    3.3030 o         1 DEB     -0.516100
     25 C25        -3.4690    4.6150    0.6520 c3        1 DEB     -0.097100
     26 O26        -3.0340    1.7470    1.4620 oh        1 DEB     -0.588800
     27 C27        -1.5890    3.0130   -1.7720 c3        1 DEB     -0.089100
     28 H2          1.8550    0.4700   -0.7320 hc        1 DEB      0.089700
     29 H3          0.6860    0.7520    1.7570 h1        1 DEB      0.035700
     30 H4          2.4990    2.1190    0.6620 hc        1 DEB      0.052700
     31 H5          2.0620    1.5070    3.5490 h1        1 DEB      0.048700
     32 H6          2.0450    3.9530    3.7720 hc        1 DEB      0.048700
     33 H71         0.6000    3.3430    1.1250 hc        1 DEB      0.049200
     34 H72         0.1630    2.4850    2.6670 hc        1 DEB      0.049200
     35 H8         -0.1970    4.7080    3.7890 hc        1 DEB      0.078700
     36 H10        -1.3460    4.4450    0.2880 hc        1 DEB      0.075700
     37 H11        -1.1170    2.0390    0.9440 h1        1 DEB      0.076700
     38 H12        -3.4630    2.2120   -1.0470 hc        1 DEB      0.059700
     39 H13        -2.4770    0.0170   -0.2390 h1        1 DEB      0.097700
     40 H141       -3.2920    0.7080   -2.7830 hc        1 DEB      0.050700
     41 H142       -1.5620    0.3300   -3.1510 hc        1 DEB      0.050700
     42 H151       -3.6470   -1.5360   -1.8200 hc        1 DEB      0.041367
     43 H152       -2.8750   -1.7170   -3.4500 hc        1 DEB      0.041367
     44 H153       -1.8830   -1.9150   -1.9390 hc        1 DEB      0.041367
     45 H181        1.6290   -2.4350    0.2960 hc        1 DEB      0.054700
     46 H182        2.2710   -1.8280   -1.2870 hc        1 DEB      0.054700
     47 H183        3.2110   -1.5520    0.2480 hc        1 DEB      0.054700
     48 HO9         1.3300   -1.3900    2.3230 ho        1 DEB      0.414000
     49 H201        4.1620    0.3780    0.1780 hc        1 DEB      0.046033
     50 H202        4.3690    0.0230    1.9520 hc        1 DEB      0.046033
     51 H203        4.8940    1.6230    1.2790 hc        1 DEB      0.046033
     52 HO1         3.9160    2.5970    4.2310 ho        1 DEB      0.399000
     53 H221        2.6780    5.5090    2.0830 hc        1 DEB      0.041033
     54 H222        2.6890    4.2650    0.7720 hc        1 DEB      0.041033
     55 H223        3.9760    4.2430    2.0480 hc        1 DEB      0.041033
     56 H231        0.8510    6.4140    2.5750 hc        1 DEB      0.041700
     57 H232       -0.8490    6.5610    1.9760 hc        1 DEB      0.041700
     58 H233        0.4050    5.7330    0.9580 hc        1 DEB      0.041700
     59 H251       -3.8210    4.3430   -0.3710 hc        1 DEB      0.047367
     60 H252       -3.3760    5.7270    0.7140 hc        1 DEB      0.047367
     61 H253       -4.2340    4.2910    1.4010 hc        1 DEB      0.047367
     62 HO6        -3.8910    2.1900    1.4090 ho        1 DEB      0.407000
     63 H271       -1.6590    2.6220   -2.8170 hc        1 DEB      0.041367
     64 H272       -0.5100    3.0410   -1.4830 hc        1 DEB      0.041367
     65 H273       -1.9990    4.0510   -1.7580 hc        1 DEB      0.041367
@<TRIPOS>BOND
     1    1    2 1   
     2    1   16 1   
     3    1   17 2   
     4    2    3 1   
     5    2   18 1   
     6    2   28 1   
     7    3    4 1   
     8    3   19 1   
     9    3   29 1   
    10    4    5 1   
    11    4   20 1   
    12    4   30 1   
    13    5    6 1   
    14    5   21 1   
    15    5   31 1   
    16    6    7 1   
    17    6   22 1   
    18    6   32 1   
    19    7    8 1   
    20    7   33 1   
    21    7   34 1   
    22    8    9 1   
    23    8   23 1   
    24    8   35 1   
    25    9   10 1   
    26    9   24 2   
    27   10   11 1   
    28   10   25 1   
    29   10   36 1   
    30   11   12 1   
    31   11   26 1   
    32   11   37 1   
    33   12   13 1   
    34   12   27 1   
    35   12   38 1   
    36   13   14 1   
    37   13   16 1   
    38   13   39 1   
    39   14   15 1   
    40   14   40 1   
    41   14   41 1   
    42   15   42 1   
    43   15   43 1   
    44   15   44 1   
    45   18   45 1   
    46   18   46 1   
    47   18   47 1   
    48   19   48 1   
    49   20   49 1   
    50   20   50 1   
    51   20   51 1   
    52   21   52 1   
    53   22   53 1   
    54   22   54 1   
    55   22   55 1   
    56   23   56 1   
    57   23   57 1   
    58   23   58 1   
    59   25   59 1   
    60   25   60 1   
    61   25   61 1   
    62   26   62 1   
    63   27   63 1   
    64   27   64 1   
    65   27   65 1   
@<TRIPOS>SUBSTRUCTURE
     1 DEB         1 TEMP              0 ****  ****    0 ROOT
