@<TRIPOS>MOLECULE
DEB
   65    64     1     0     0
SMALL
bcc


@<TRIPOS>ATOM
      1 C1         -0.0310   -2.0690   -1.0800 c1        1 DEB      0.297000
      2 C2          1.5000   -2.0690   -1.0800 c2        1 DEB     -0.135000
      3 C3          2.0070   -2.0690    0.3460 c3        1 DEB      0.039000
      4 C4          2.7810   -0.7870    0.6120 c3        1 DEB     -0.086000
      5 C5          2.4460   -0.2710    2.0000 c3        1 DEB      0.036000
      6 C6          2.1990    1.2300    1.9440 c3        1 DEB     -0.134000
      7 C7          0.9780    1.5180    1.0720 c3        1 DEB     -0.152000
      8 C8          0.0440    2.4890    1.8020 c3        1 DEB     -0.149000
      9 C9         -1.3580    1.8860    1.8940 c2        1 DEB      0.226000
     10 C10        -1.9940    1.8210    0.4930 c3        1 DEB     -0.189000
     11 C11        -2.6360    0.4660    0.2940 c3        1 DEB      0.045000
     12 C12        -2.7930    0.1830   -1.2000 c3        1 DEB     -0.099000
     13 C13        -2.1550   -1.1450   -1.5340 c3        1 DEB      0.035000
     14 C14        -2.7790   -1.7040   -2.8110 c3        1 DEB     -0.173000
     15 C15        -3.8010   -2.7950   -2.4490 c3        1 DEB     -0.211000
     16 O16        -0.7680   -0.9660   -1.7250 os        1 DEB     -0.285000
     17 O17        -0.6400   -3.0170   -0.6130 o         1 DEB     -0.350000
     18 C18         2.0040   -3.3020   -1.7960 c3        1 DEB     -0.214000
     19 O19         2.8510   -3.1740    0.5420 oh        1 DEB     -0.316000
     20 C20         4.2690   -1.0660    0.5220 c3        1 DEB     -0.198000
     21 O21         3.5160   -0.5360    2.8660 oh        1 DEB     -0.320000
     22 C22         3.4090    1.9170    1.3600 c3        1 DEB     -0.212000
     23 C23        -0.0180    3.7870    1.0480 c3        1 DEB     -0.206000
     24 O24        -1.5940    1.0130    2.7120 o         1 DEB     -0.296000
     25 C25        -3.0430    2.8990    0.3670 c3        1 DEB     -0.202000
     26 O26        -3.8970    0.4560    0.9070 oh        1 DEB     -0.332000
     27 C27        -2.1180    1.2810   -1.9950 c3        1 DEB     -0.205000
     28 H2          1.8250   -1.2720   -1.5400 ha        1 DEB      0.130000
     29 H3          1.2500   -2.1260    0.9600 h1        1 DEB      0.072000
     30 H4          2.5350   -0.1150   -0.0520 hc        1 DEB      0.094000
     31 H5          1.6440   -0.7200    2.3280 h1        1 DEB      0.088000
     32 H6          2.0390    1.5660    2.8460 hc        1 DEB      0.087000
     33 H71         0.5040    0.6850    0.8910 hc        1 DEB      0.088000
     34 H72         1.2670    1.9170    0.2290 hc        1 DEB      0.088000
     35 H8          0.3850    2.6530    2.7010 hc        1 DEB      0.117000
     36 H10        -1.3040    1.9570   -0.1840 hc        1 DEB      0.117000
     37 H11        -2.0730   -0.2220    0.6970 h1        1 DEB      0.072000
     38 H12        -3.7420    0.1540   -1.4270 hc        1 DEB      0.119000
     39 H13        -2.3040   -1.7710   -0.7990 h1        1 DEB      0.133000
     40 H141       -3.2280   -0.9850   -3.2960 hc        1 DEB      0.090500
     41 H142       -2.0790   -2.0870   -3.3740 hc        1 DEB      0.090500
     42 H151       -3.5270   -3.2360   -1.6220 hc        1 DEB      0.078667
     43 H152       -4.6800   -2.3890   -2.3250 hc        1 DEB      0.078667
     44 H153       -3.8450   -3.4520   -3.1690 hc        1 DEB      0.078667
     45 H181        1.7110   -4.1000   -1.3150 hc        1 DEB      0.094333
     46 H182        1.6480   -3.3200   -2.7040 hc        1 DEB      0.094333
     47 H183        2.9800   -3.2830   -1.8290 hc        1 DEB      0.094333
     48 HO9         2.5050   -3.7050    1.1630 ho        1 DEB      0.212000
     49 H201        4.4880   -1.3730   -0.3790 hc        1 DEB      0.085667
     50 H202        4.7660   -0.2490    0.7160 hc        1 DEB      0.085667
     51 H203        4.5100   -1.7560    1.1690 hc        1 DEB      0.085667
     52 HO1         3.2020   -0.7570    3.6660 ho        1 DEB      0.198000
     53 H221        4.2170    1.5680    1.7820 hc        1 DEB      0.081000
     54 H222        3.3470    2.8780    1.5220 hc        1 DEB      0.081000
     55 H223        3.4460    1.7510    0.3990 hc        1 DEB      0.081000
     56 H231       -0.1070    3.6050    0.0930 hc        1 DEB      0.082333
     57 H232       -0.7870    4.3040    1.3530 hc        1 DEB      0.082333
     58 H233        0.8000    4.2950    1.2070 hc        1 DEB      0.082333
     59 H251       -3.2320    3.2750    1.2480 hc        1 DEB      0.087333
     60 H252       -2.7160    3.6040   -0.2240 hc        1 DEB      0.087333
     61 H253       -3.8600    2.5160   -0.0050 hc        1 DEB      0.087333
     62 HO6        -4.0400   -0.3390    1.2760 ho        1 DEB      0.221000
     63 H271       -2.5840    2.1260   -1.8440 hc        1 DEB      0.079667
     64 H272       -2.1480    1.0590   -2.9450 hc        1 DEB      0.079667
     65 H273       -1.1890    1.3650   -1.7090 hc        1 DEB      0.079667
@<TRIPOS>BOND
     1    1   16 1   
     2    1   17 1   
     3    2    3 1   
     4    2   18 1   
     5    2   28 1   
     6    3    4 1   
     7    3   19 1   
     8    3   29 1   
     9    4    5 1   
    10    4   20 1   
    11    4   30 1   
    12    5    6 1   
    13    5   21 1   
    14    5   31 1   
    15    6    7 1   
    16    6   22 1   
    17    6   32 1   
    18    7    8 1   
    19    7   33 1   
    20    7   34 1   
    21    8    9 1   
    22    8   23 1   
    23    8   35 1   
    24    9   10 1   
    25    9   24 1   
    26   10   11 1   
    27   10   25 1   
    28   10   36 1   
    29   11   12 1   
    30   11   26 1   
    31   11   37 1   
    32   12   13 1   
    33   12   27 1   
    34   12   38 1   
    35   13   14 1   
    36   13   16 1   
    37   13   39 1   
    38   14   15 1   
    39   14   40 1   
    40   14   41 1   
    41   15   42 1   
    42   15   43 1   
    43   15   44 1   
    44   18   45 1   
    45   18   46 1   
    46   18   47 1   
    47   19   48 1   
    48   20   49 1   
    49   20   50 1   
    50   20   51 1   
    51   21   52 1   
    52   22   53 1   
    53   22   54 1   
    54   22   55 1   
    55   23   56 1   
    56   23   57 1   
    57   23   58 1   
    58   25   59 1   
    59   25   60 1   
    60   25   61 1   
    61   26   62 1   
    62   27   63 1   
    63   27   64 1   
    64   27   65 1   
@<TRIPOS>SUBSTRUCTURE
     1 DEB         1 TEMP              0 ****  ****    0 ROOT
