@<TRIPOS>MOLECULE
DEB
   65    65     1     0     0
SMALL
bcc


@<TRIPOS>ATOM
      1 C1          2.5610    0.3180    0.2310 c         1 DEB      0.628100
      2 C2          2.5190   -0.2640   -1.1640 c3        1 DEB     -0.146700
      3 C3          1.3700    0.4270   -1.9300 c3        1 DEB      0.149100
      4 C4          0.5530   -0.5700   -2.7730 c3        1 DEB     -0.046700
      5 C5         -0.7480    0.1050   -3.2470 c3        1 DEB      0.146100
      6 C6         -1.9980   -0.3330   -2.4510 c3        1 DEB     -0.094700
      7 C7         -1.8530    0.0600   -0.9920 c3        1 DEB     -0.073400
      8 C8         -3.1660    0.2620   -0.2450 c3        1 DEB     -0.159700
      9 C9         -2.8430    0.8900    1.0990 c         1 DEB      0.565100
     10 C10        -2.0830    0.0440    2.1020 c3        1 DEB     -0.199700
     11 C11        -0.6330    0.5500    2.1740 c3        1 DEB      0.157100
     12 C12         0.3400   -0.3940    2.9010 c3        1 DEB     -0.063700
     13 C13         1.7770   -0.0160    2.4980 c3        1 DEB      0.144100
     14 C14         2.8230   -0.6820    3.3860 c3        1 DEB     -0.094400
     15 C15         4.0900    0.1310    3.4530 c3        1 DEB     -0.098100
     16 O16         1.9570   -0.4930    1.1450 os        1 DEB     -0.444900
     17 O17         3.0340    1.3980    0.5860 o         1 DEB     -0.541000
     18 C18         3.8670   -0.0860   -1.8300 c3        1 DEB     -0.095100
     19 O19         1.8400    1.4470   -2.7930 oh        1 DEB     -0.588800
     20 C20         1.3680   -1.1200   -3.9220 c3        1 DEB     -0.080100
     21 O21        -0.9330   -0.2150   -4.6220 oh        1 DEB     -0.591800
     22 C22        -2.2660   -1.8120   -2.6330 c3        1 DEB     -0.094100
     23 C23        -3.9640   -1.0100   -0.0610 c3        1 DEB     -0.088100
     24 O24        -3.1600    2.0580    1.3480 o         1 DEB     -0.535100
     25 C25        -2.7650    0.0840    3.4520 c3        1 DEB     -0.084100
     26 O26        -0.5430    1.7900    2.8630 oh        1 DEB     -0.603800
     27 C27         0.0630   -1.8540    2.6310 c3        1 DEB     -0.089100
     28 H2          2.2860   -1.3630   -1.0830 hc        1 DEB      0.090700
     29 H3          0.6780    0.8940   -1.1660 h1        1 DEB      0.032700
     30 H4          0.2760   -1.4220   -2.0910 hc        1 DEB      0.053700
     31 H5         -0.6360    1.2240   -3.1520 h1        1 DEB      0.048700
     32 H6         -2.8690    0.2350   -2.8890 hc        1 DEB      0.047700
     33 H71        -1.2340   -0.7090   -0.4560 hc        1 DEB      0.048700
     34 H72        -1.2990    1.0400   -0.9430 hc        1 DEB      0.048700
     35 H8         -3.7950    1.0000   -0.8210 hc        1 DEB      0.078700
     36 H10        -2.0710   -1.0170    1.7240 hc        1 DEB      0.077700
     37 H11        -0.2650    0.6960    1.1140 h1        1 DEB      0.032700
     38 H12         0.2450   -0.1940    4.0060 hc        1 DEB      0.077700
     39 H13         1.8870    1.1050    2.5290 h1        1 DEB      0.098700
     40 H141        3.0470   -1.7060    2.9850 hc        1 DEB      0.051200
     41 H142        2.3990   -0.8080    4.4170 hc        1 DEB      0.051200
     42 H151        4.8890   -0.4400    3.9840 hc        1 DEB      0.040700
     43 H152        4.4470    0.3800    2.4230 hc        1 DEB      0.040700
     44 H153        3.9160    1.0890    3.9990 hc        1 DEB      0.040700
     45 H181        4.5990   -0.8240   -1.4230 hc        1 DEB      0.055033
     46 H182        3.7650   -0.2370   -2.9330 hc        1 DEB      0.055033
     47 H183        4.2630    0.9440   -1.6490 hc        1 DEB      0.055033
     48 HO9         2.3610    2.0520   -2.2490 ho        1 DEB      0.414000
     49 H201        2.2580   -1.6710   -3.5310 hc        1 DEB      0.046367
     50 H202        0.7490   -1.8220   -4.5320 hc        1 DEB      0.046367
     51 H203        1.7140   -0.2870   -4.5810 hc        1 DEB      0.046367
     52 HO1        -1.6910    0.2990   -4.9230 ho        1 DEB      0.399000
     53 H221       -3.3340   -2.0480   -2.4120 hc        1 DEB      0.041700
     54 H222       -2.0470   -2.1090   -3.6890 hc        1 DEB      0.041700
     55 H223       -1.6270   -2.4280   -1.9550 hc        1 DEB      0.041700
     56 H231       -4.6180   -0.9360    0.8420 hc        1 DEB      0.042700
     57 H232       -4.6170   -1.1830   -0.9500 hc        1 DEB      0.042700
     58 H233       -3.2930   -1.8950    0.0570 hc        1 DEB      0.042700
     59 H251       -3.7990   -0.3300    3.3760 hc        1 DEB      0.048033
     60 H252       -2.1830   -0.5220    4.1880 hc        1 DEB      0.048033
     61 H253       -2.8250    1.1360    3.8230 hc        1 DEB      0.048033
     62 HO6        -1.2400    2.3650    2.5160 ho        1 DEB      0.423000
     63 H271        0.8940   -2.4770    3.0440 hc        1 DEB      0.040700
     64 H272       -0.8900   -2.1740    3.1170 hc        1 DEB      0.040700
     65 H273       -0.0020   -2.0460    1.5320 hc        1 DEB      0.040700
@<TRIPOS>BOND
     1    1    2 1   
     2    1   16 1   
     3    1   17 2   
     4    2    3 1   
     5    2   18 1   
     6    2   28 1   
     7    3    4 1   
     8    3   19 1   
     9    3   29 1   
    10    4    5 1   
    11    4   20 1   
    12    4   30 1   
    13    5    6 1   
    14    5   21 1   
    15    5   31 1   
    16    6    7 1   
    17    6   22 1   
    18    6   32 1   
    19    7    8 1   
    20    7   33 1   
    21    7   34 1   
    22    8    9 1   
    23    8   23 1   
    24    8   35 1   
    25    9   10 1   
    26    9   24 2   
    27   10   11 1   
    28   10   25 1   
    29   10   36 1   
    30   11   12 1   
    31   11   26 1   
    32   11   37 1   
    33   12   13 1   
    34   12   27 1   
    35   12   38 1   
    36   13   14 1   
    37   13   16 1   
    38   13   39 1   
    39   14   15 1   
    40   14   40 1   
    41   14   41 1   
    42   15   42 1   
    43   15   43 1   
    44   15   44 1   
    45   18   45 1   
    46   18   46 1   
    47   18   47 1   
    48   19   48 1   
    49   20   49 1   
    50   20   50 1   
    51   20   51 1   
    52   21   52 1   
    53   22   53 1   
    54   22   54 1   
    55   22   55 1   
    56   23   56 1   
    57   23   57 1   
    58   23   58 1   
    59   25   59 1   
    60   25   60 1   
    61   25   61 1   
    62   26   62 1   
    63   27   63 1   
    64   27   64 1   
    65   27   65 1   
@<TRIPOS>SUBSTRUCTURE
     1 DEB         1 TEMP              0 ****  ****    0 ROOT
