@<TRIPOS>MOLECULE
DEB
   65    65     1     0     0
SMALL
bcc


@<TRIPOS>ATOM
      1 C1         -0.0250   -0.4390   -0.1560 c         1 DEB      0.628100
      2 C2          1.4650   -0.2860    0.0460 c3        1 DEB     -0.146700
      3 C3          1.6930    0.3030    1.4560 c3        1 DEB      0.149100
      4 C4          2.7810    1.3920    1.4600 c3        1 DEB     -0.046700
      5 C5          2.7380    2.1550    2.7980 c3        1 DEB      0.146100
      6 C6          2.0700    3.5450    2.6970 c3        1 DEB     -0.094700
      7 C7          0.6190    3.3980    2.2740 c3        1 DEB     -0.073400
      8 C8         -0.2970    4.5340    2.7110 c3        1 DEB     -0.159700
      9 C9         -1.7280    4.1080    2.4350 c         1 DEB      0.565100
     10 C10        -2.1450    3.9600    0.9850 c3        1 DEB     -0.199700
     11 C11        -2.2530    2.4620    0.6540 c3        1 DEB      0.157100
     12 C12        -2.3550    2.1430   -0.8470 c3        1 DEB     -0.063700
     13 C13        -1.9860    0.6630   -1.0560 c3        1 DEB      0.144100
     14 C14        -2.3460    0.1670   -2.4530 c3        1 DEB     -0.094400
     15 C15        -2.6080   -1.3170   -2.4610 c3        1 DEB     -0.098100
     16 O16        -0.5510    0.5770   -0.8980 os        1 DEB     -0.444900
     17 O17        -0.7620   -1.3230    0.2830 o         1 DEB     -0.541000
     18 C18         2.1450   -1.6230   -0.1550 c3        1 DEB     -0.095100
     19 O19         2.0640   -0.6900    2.3960 oh        1 DEB     -0.588800
     20 C20         4.1470    0.8100    1.1720 c3        1 DEB     -0.080100
     21 O21         4.0760    2.3110    3.2570 oh        1 DEB     -0.591800
     22 C22         2.8560    4.4580    1.7810 c3        1 DEB     -0.094100
     23 C23         0.0050    5.8550    2.0380 c3        1 DEB     -0.088100
     24 O24        -2.5080    3.8600    3.3610 o         1 DEB     -0.535100
     25 C25        -3.4460    4.6900    0.7320 c3        1 DEB     -0.084100
     26 O26        -3.4040    1.8750    1.2460 oh        1 DEB     -0.603800
     27 C27        -1.5010    3.0450   -1.7050 c3        1 DEB     -0.089100
     28 H2          1.8530    0.4480   -0.7150 hc        1 DEB      0.090700
     29 H3          0.7210    0.7730    1.7950 h1        1 DEB      0.032700
     30 H4          2.5200    2.1160    0.6370 hc        1 DEB      0.053700
     31 H5          2.1700    1.5370    3.5540 h1        1 DEB      0.048700
     32 H6          2.0960    3.9860    3.7360 hc        1 DEB      0.047700
     33 H71         0.2100    2.4560    2.7360 hc        1 DEB      0.048700
     34 H72         0.5640    3.2830    1.1590 hc        1 DEB      0.048700
     35 H8         -0.1940    4.6680    3.8270 hc        1 DEB      0.078700
     36 H10        -1.3370    4.4080    0.3420 hc        1 DEB      0.077700
     37 H11        -1.3310    1.9500    1.0670 h1        1 DEB      0.032700
     38 H12        -3.4360    2.2560   -1.1450 hc        1 DEB      0.077700
     39 H13        -2.4990    0.0390   -0.2690 h1        1 DEB      0.098700
     40 H141       -3.2570    0.7140   -2.8110 hc        1 DEB      0.051200
     41 H142       -1.5070    0.4090   -3.1570 hc        1 DEB      0.051200
     42 H151       -2.7250   -1.6840   -3.5090 hc        1 DEB      0.040700
     43 H152       -3.5410   -1.5570   -1.8950 hc        1 DEB      0.040700
     44 H153       -1.7600   -1.8650   -1.9790 hc        1 DEB      0.040700
     45 H181        2.2050   -1.8660   -1.2420 hc        1 DEB      0.055033
     46 H182        3.1780   -1.5890    0.2720 hc        1 DEB      0.055033
     47 H183        1.5770   -2.4370    0.3600 hc        1 DEB      0.055033
     48 HO9         1.3770   -1.3690    2.3670 ho        1 DEB      0.414000
     49 H201        4.4040    0.0380    1.9380 hc        1 DEB      0.046367
     50 H202        4.9220    1.6140    1.2040 hc        1 DEB      0.046367
     51 H203        4.1570    0.3390    0.1600 hc        1 DEB      0.046367
     52 HO1         4.0200    2.6940    4.1400 ho        1 DEB      0.399000
     53 H221        2.6080    4.2690    0.7080 hc        1 DEB      0.041700
     54 H222        2.6300    5.5280    2.0050 hc        1 DEB      0.041700
     55 H223        3.9520    4.2880    1.9250 hc        1 DEB      0.041700
     56 H231        0.7890    6.4060    2.6130 hc        1 DEB      0.042700
     57 H232        0.3780    5.7020    0.9970 hc        1 DEB      0.042700
     58 H233       -0.9110    6.4940    1.9990 hc        1 DEB      0.042700
     59 H251       -3.7560    4.5540   -0.3330 hc        1 DEB      0.048033
     60 H252       -4.2510    4.2860    1.3930 hc        1 DEB      0.048033
     61 H253       -3.3240    5.7810    0.9380 hc        1 DEB      0.048033
     62 HO6        -3.4400    2.1710    2.1660 ho        1 DEB      0.423000
     63 H271       -1.4860    2.6620   -2.7550 hc        1 DEB      0.040700
     64 H272       -0.4500    3.0680   -1.3280 hc        1 DEB      0.040700
     65 H273       -1.9100    4.0850   -1.7180 hc        1 DEB      0.040700
@<TRIPOS>BOND
     1    1    2 1   
     2    1   16 1   
     3    1   17 2   
     4    2    3 1   
     5    2   18 1   
     6    2   28 1   
     7    3    4 1   
     8    3   19 1   
     9    3   29 1   
    10    4    5 1   
    11    4   20 1   
    12    4   30 1   
    13    5    6 1   
    14    5   21 1   
    15    5   31 1   
    16    6    7 1   
    17    6   22 1   
    18    6   32 1   
    19    7    8 1   
    20    7   33 1   
    21    7   34 1   
    22    8    9 1   
    23    8   23 1   
    24    8   35 1   
    25    9   10 1   
    26    9   24 2   
    27   10   11 1   
    28   10   25 1   
    29   10   36 1   
    30   11   12 1   
    31   11   26 1   
    32   11   37 1   
    33   12   13 1   
    34   12   27 1   
    35   12   38 1   
    36   13   14 1   
    37   13   16 1   
    38   13   39 1   
    39   14   15 1   
    40   14   40 1   
    41   14   41 1   
    42   15   42 1   
    43   15   43 1   
    44   15   44 1   
    45   18   45 1   
    46   18   46 1   
    47   18   47 1   
    48   19   48 1   
    49   20   49 1   
    50   20   50 1   
    51   20   51 1   
    52   21   52 1   
    53   22   53 1   
    54   22   54 1   
    55   22   55 1   
    56   23   56 1   
    57   23   57 1   
    58   23   58 1   
    59   25   59 1   
    60   25   60 1   
    61   25   61 1   
    62   26   62 1   
    63   27   63 1   
    64   27   64 1   
    65   27   65 1   
@<TRIPOS>SUBSTRUCTURE
     1 DEB         1 TEMP              0 ****  ****    0 ROOT
