@<TRIPOS>MOLECULE
DEC
   30    28     1     0     0
SMALL
bcc


@<TRIPOS>ATOM
      1 C1          2.6770    2.8510    3.9700 c1        1 DEC      0.325000
      2 O1          3.8820    3.1330    3.7380 o         1 DEC     -0.593000
      3 O2          2.3080    2.5860    5.1450 os        1 DEC     -0.599000
      4 C2          1.6720    2.8320    2.8390 c3        1 DEC     -0.217000
      5 C3          1.6640    1.4630    2.1950 c3        1 DEC     -0.143000
      6 C4          0.5840    1.4110    1.1370 c3        1 DEC     -0.157000
      7 C5          0.5530    0.0310    0.5170 c3        1 DEC     -0.157000
      8 C6         -0.5570   -0.0360   -0.5090 c3        1 DEC     -0.157000
      9 C7         -0.5250   -1.3810   -1.2000 c3        1 DEC     -0.157000
     10 C8         -1.6710   -1.4700   -2.1840 c3        1 DEC     -0.143000
     11 C9         -1.6120   -2.7980   -2.9070 c3        1 DEC     -0.217000
     12 C10        -2.7750   -2.8990   -3.8700 c2        1 DEC      0.325000
     13 O3         -3.8560   -3.4260   -3.4980 o         1 DEC     -0.596000
     14 O4         -2.6610   -2.4570   -5.0430 o         1 DEC     -0.596000
     15 H21         1.9190    3.5050    2.1730 hc        1 DEC      0.057000
     16 H22         0.7820    3.0330    3.1910 hc        1 DEC      0.057000
     17 H31         1.4870    0.7840    2.8760 hc        1 DEC      0.079500
     18 H32         2.5340    1.2920    1.7820 hc        1 DEC      0.079500
     19 H41         0.7730    2.0750    0.4450 hc        1 DEC      0.063500
     20 H42        -0.2830    1.6040    1.5470 hc        1 DEC      0.063500
     21 H51         0.3930   -0.6360    1.2140 hc        1 DEC      0.070500
     22 H52         1.4100   -0.1510    0.0820 hc        1 DEC      0.070500
     23 H61        -0.4330    0.6740   -1.1700 hc        1 DEC      0.070500
     24 H62        -1.4200    0.0810   -0.0630 hc        1 DEC      0.070500
     25 H71        -0.6110   -2.0920   -0.5340 hc        1 DEC      0.063500
     26 H72         0.3230   -1.4820   -1.6770 hc        1 DEC      0.063500
     27 H81        -2.5200   -1.3990   -1.7030 hc        1 DEC      0.079500
     28 H82        -1.6010   -0.7420   -2.8330 hc        1 DEC      0.079500
     29 H91        -1.6630   -3.5260   -2.2570 hc        1 DEC      0.057000
     30 H92        -0.7710   -2.8610   -3.4030 hc        1 DEC      0.057000
@<TRIPOS>BOND
     1    1    2 1   
     2    1    4 1   
     3    4    5 1   
     4    4   15 1   
     5    4   16 1   
     6    5    6 1   
     7    5   17 1   
     8    5   18 1   
     9    6    7 1   
    10    6   19 1   
    11    6   20 1   
    12    7    8 1   
    13    7   21 1   
    14    7   22 1   
    15    8    9 1   
    16    8   23 1   
    17    8   24 1   
    18    9   10 1   
    19    9   25 1   
    20    9   26 1   
    21   10   11 1   
    22   10   27 1   
    23   10   28 1   
    24   11   12 1   
    25   11   29 1   
    26   11   30 1   
    27   12   13 1   
    28   12   14 1   
@<TRIPOS>SUBSTRUCTURE
     1 DEC         1 TEMP              0 ****  ****    0 ROOT
