@<TRIPOS>MOLECULE
DEC
   30    29     1     0     0
SMALL
bcc


@<TRIPOS>ATOM
      1 C1         -0.0090    0.0000    0.0760 c         1 DEC      0.905600
      2 O1          1.2560    0.0000    0.1280 o         1 DEC     -0.861800
      3 O2         -0.7430   -0.0000    1.1100 o         1 DEC     -0.861800
      4 C2         -0.7180   -0.0000   -1.2860 c3        1 DEC     -0.187400
      5 C3          0.2370    0.0000   -2.4550 c3        1 DEC     -0.062400
      6 C4         -0.4970   -0.0000   -3.7810 c3        1 DEC     -0.079400
      7 C5          0.4570    0.0000   -4.9570 c3        1 DEC     -0.078400
      8 C6         -0.2810    0.0000   -6.2800 c3        1 DEC     -0.078400
      9 C7          0.6730    0.0000   -7.4560 c3        1 DEC     -0.079400
     10 C8         -0.0600   -0.0000   -8.7820 c3        1 DEC     -0.062400
     11 C9          0.8940    0.0000   -9.9510 c3        1 DEC     -0.187400
     12 C10         0.1850   -0.0000  -11.3130 c         1 DEC      0.905600
     13 O3         -1.0790   -0.0000  -11.3650 o         1 DEC     -0.861800
     14 O4          0.9190   -0.0000  -12.3470 o         1 DEC     -0.861800
     15 H21        -1.3800   -0.9020   -1.3310 hc        1 DEC      0.017700
     16 H22        -1.3800    0.9020   -1.3310 hc        1 DEC      0.017700
     17 H31         0.9040    0.8990   -2.3850 hc        1 DEC      0.040700
     18 H32         0.9040   -0.8990   -2.3850 hc        1 DEC      0.040700
     19 H41        -1.1620    0.9010   -3.8410 hc        1 DEC      0.022700
     20 H42        -1.1620   -0.9010   -3.8410 hc        1 DEC      0.022700
     21 H51         1.1220   -0.9020   -4.8980 hc        1 DEC      0.030700
     22 H52         1.1220    0.9020   -4.8980 hc        1 DEC      0.030700
     23 H61        -0.9460    0.9020   -6.3390 hc        1 DEC      0.030700
     24 H62        -0.9460   -0.9020   -6.3390 hc        1 DEC      0.030700
     25 H71         1.3380   -0.9010   -7.3960 hc        1 DEC      0.022700
     26 H72         1.3380    0.9010   -7.3960 hc        1 DEC      0.022700
     27 H81        -0.7280   -0.8990   -8.8520 hc        1 DEC      0.040700
     28 H82        -0.7280    0.8990   -8.8520 hc        1 DEC      0.040700
     29 H91         1.5560    0.9020   -9.9060 hc        1 DEC      0.017700
     30 H92         1.5560   -0.9020   -9.9060 hc        1 DEC      0.017700
@<TRIPOS>BOND
     1    1    2 1   
     2    1    3 1   
     3    1    4 1   
     4    4    5 1   
     5    4   15 1   
     6    4   16 1   
     7    5    6 1   
     8    5   17 1   
     9    5   18 1   
    10    6    7 1   
    11    6   19 1   
    12    6   20 1   
    13    7    8 1   
    14    7   21 1   
    15    7   22 1   
    16    8    9 1   
    17    8   23 1   
    18    8   24 1   
    19    9   10 1   
    20    9   25 1   
    21    9   26 1   
    22   10   11 1   
    23   10   27 1   
    24   10   28 1   
    25   11   12 1   
    26   11   29 1   
    27   11   30 1   
    28   12   13 1   
    29   12   14 1   
@<TRIPOS>SUBSTRUCTURE
     1 DEC         1 TEMP              0 ****  ****    0 ROOT
