@<TRIPOS>MOLECULE
DEC
   30    29     1     0     0
SMALL
bcc


@<TRIPOS>ATOM
      1 C1          0.0340   -0.0000    5.6950 c         1 DEC      0.905600
      2 O1          1.2990   -0.0000    5.7180 o         1 DEC     -0.861800
      3 O2         -0.6760   -0.0000    6.7460 o         1 DEC     -0.861800
      4 C2         -0.7060    0.0000    4.3500 c3        1 DEC     -0.187400
      5 C3          0.2210    0.0000    3.1590 c3        1 DEC     -0.062400
      6 C4         -0.5430    0.0000    1.8510 c3        1 DEC     -0.079400
      7 C5          0.3840    0.0000    0.6530 c3        1 DEC     -0.078400
      8 C6         -0.3840    0.0000   -0.6530 c3        1 DEC     -0.078400
      9 C7          0.5430    0.0000   -1.8510 c3        1 DEC     -0.079400
     10 C8         -0.2210    0.0000   -3.1590 c3        1 DEC     -0.062400
     11 C9          0.7060    0.0000   -4.3500 c3        1 DEC     -0.187400
     12 C10        -0.0340   -0.0000   -5.6950 c         1 DEC      0.905600
     13 O3         -1.2990   -0.0000   -5.7180 o         1 DEC     -0.861800
     14 O4          0.6760   -0.0000   -6.7460 o         1 DEC     -0.861800
     15 H21        -1.3690   -0.9020    4.3200 hc        1 DEC      0.017700
     16 H22        -1.3690    0.9020    4.3200 hc        1 DEC      0.017700
     17 H31         0.8900    0.8990    3.2140 hc        1 DEC      0.040700
     18 H32         0.8900   -0.8990    3.2140 hc        1 DEC      0.040700
     19 H41        -1.2090   -0.9010    1.8060 hc        1 DEC      0.022700
     20 H42        -1.2090    0.9010    1.8060 hc        1 DEC      0.022700
     21 H51         1.0500    0.9020    0.6960 hc        1 DEC      0.030700
     22 H52         1.0500   -0.9020    0.6960 hc        1 DEC      0.030700
     23 H61        -1.0500   -0.9020   -0.6960 hc        1 DEC      0.030700
     24 H62        -1.0500    0.9020   -0.6960 hc        1 DEC      0.030700
     25 H71         1.2090    0.9010   -1.8060 hc        1 DEC      0.022700
     26 H72         1.2090   -0.9010   -1.8060 hc        1 DEC      0.022700
     27 H81        -0.8900   -0.8990   -3.2140 hc        1 DEC      0.040700
     28 H82        -0.8900    0.8990   -3.2140 hc        1 DEC      0.040700
     29 H91         1.3690    0.9020   -4.3200 hc        1 DEC      0.017700
     30 H92         1.3690   -0.9020   -4.3200 hc        1 DEC      0.017700
@<TRIPOS>BOND
     1    1    2 1   
     2    1    3 1   
     3    1    4 1   
     4    4    5 1   
     5    4   15 1   
     6    4   16 1   
     7    5    6 1   
     8    5   17 1   
     9    5   18 1   
    10    6    7 1   
    11    6   19 1   
    12    6   20 1   
    13    7    8 1   
    14    7   21 1   
    15    7   22 1   
    16    8    9 1   
    17    8   23 1   
    18    8   24 1   
    19    9   10 1   
    20    9   25 1   
    21    9   26 1   
    22   10   11 1   
    23   10   27 1   
    24   10   28 1   
    25   11   12 1   
    26   11   29 1   
    27   11   30 1   
    28   12   13 1   
    29   12   14 1   
@<TRIPOS>SUBSTRUCTURE
     1 DEC         1 TEMP              0 ****  ****    0 ROOT
