@<TRIPOS>MOLECULE
DED
   24    23     1     0     0
SMALL
bcc


@<TRIPOS>ATOM
      1 O1         -4.6460   -0.1820   -3.9410 o         1 DED     -0.927167
      2 O2         -2.7560   -1.4500   -4.8200 o         1 DED     -0.927167
      3 O3         -2.6460    0.9830   -4.6880 o         1 DED     -0.927167
      4 P4         -3.1600   -0.2480   -4.0240 p5        1 DED      1.379900
      5 O5         -2.5660   -0.3540   -2.5870 os        1 DED     -0.728800
      6 O6         -1.0630    1.6120   -2.3390 o         1 DED     -0.941000
      7 O7         -0.1390   -0.5030   -3.1050 o         1 DED     -0.941000
      8 P8         -1.1390    0.1300   -2.2030 p5        1 DED      1.598800
      9 O9         -0.8400   -0.2690   -0.7370 os        1 DED     -0.552200
     10 C10         0.3260    0.2550   -0.1160 c3        1 DED      0.301400
     11 C11         0.4960   -0.3840    1.3020 c3        1 DED      0.069800
     12 N12         1.5450    0.2740    1.9860 n3        1 DED     -0.725600
     13 C13         1.0410    0.8380    3.2110 c3        1 DED      0.174600
     14 C14         2.5780   -0.6490    2.2710 c3        1 DED      0.174600
     15 H101        1.1260    0.0420   -0.6760 h1        1 DED     -0.051800
     16 H102        0.2410    1.2160   -0.0280 h1        1 DED     -0.051800
     17 H111        0.7080   -1.3230    1.2090 h1        1 DED      0.049700
     18 H112       -0.3300   -0.2880    1.8030 h1        1 DED      0.049700
     19 H131        1.7730    1.2590    3.7030 h1        1 DED     -0.004300
     20 H132        0.6320    0.1120    3.7720 h1        1 DED     -0.004300
     21 H133        0.3510    1.5180    2.9990 h1        1 DED     -0.004300
     22 H141        3.2980   -0.1940    2.7950 h1        1 DED     -0.004300
     23 H142        2.2130   -1.4000    2.7960 h1        1 DED     -0.004300
     24 H143        2.9560   -0.9940    1.4180 h1        1 DED     -0.004300
@<TRIPOS>BOND
     1    1    4 1   
     2    2    4 1   
     3    3    4 1   
     4    4    5 1   
     5    5    8 1   
     6    6    8 1   
     7    7    8 1   
     8    8    9 1   
     9    9   10 1   
    10   10   11 1   
    11   10   15 1   
    12   10   16 1   
    13   11   12 1   
    14   11   17 1   
    15   11   18 1   
    16   12   13 1   
    17   12   14 1   
    18   13   19 1   
    19   13   20 1   
    20   13   21 1   
    21   14   22 1   
    22   14   23 1   
    23   14   24 1   
@<TRIPOS>SUBSTRUCTURE
     1 DED         1 TEMP              0 ****  ****    0 ROOT
