@<TRIPOS>MOLECULE
DEE
   24    24     1     0     0
SMALL
bcc


@<TRIPOS>ATOM
      1 O7          1.0300   -1.4280    0.6910 o         1 DEE     -0.556000
      2 C6          1.4750   -0.3850    0.1970 c         1 DEE      0.690700
      3 O8          1.3710    0.7630    0.9480 os        1 DEE     -0.452900
      4 C11         0.7650    0.6550    2.2430 c3        1 DEE      0.141400
      5 C12         1.7550    0.1500    3.2640 c3        1 DEE     -0.126100
      6 C1          2.0950   -0.1920   -1.0910 cc        1 DEE     -0.323900
      7 C4          2.3580   -1.2310   -2.0790 cc        1 DEE      0.381600
      8 C9          2.0550   -2.6670   -1.9330 c3        1 DEE     -0.142400
      9 C5          2.5690    1.0060   -1.6780 cd        1 DEE     -0.009600
     10 C10         2.5860    2.3780   -1.1470 c3        1 DEE     -0.049800
     11 N2          3.0670    0.6370   -2.9260 na        1 DEE     -0.014600
     12 N3          2.9470   -0.6700   -3.1730 nd        1 DEE     -0.525800
     13 H111       -0.1340   -0.0120    2.1900 h1        1 DEE      0.060200
     14 H112        0.4530    1.7130    2.4590 h1        1 DEE      0.060200
     15 H121        2.0580   -0.8970    3.0190 hc        1 DEE      0.048700
     16 H122        2.6690    0.7910    3.2780 hc        1 DEE      0.048700
     17 H123        1.2870    0.1650    4.2770 hc        1 DEE      0.048700
     18 H91         2.9930   -3.2320   -1.7010 hc        1 DEE      0.064700
     19 H92         1.6160   -3.0840   -2.8730 hc        1 DEE      0.064700
     20 H93         1.3300   -2.8180   -1.0930 hc        1 DEE      0.064700
     21 H101        1.6960    2.5300   -0.4830 hc        1 DEE      0.067367
     22 H102        2.5660    3.1440   -1.9610 hc        1 DEE      0.067367
     23 H103        3.5090    2.5320   -0.5310 hc        1 DEE      0.067367
     24 HN2         3.4670    1.2390   -3.6080 hn        1 DEE      0.324700
@<TRIPOS>BOND
     1    1    2 2   
     2    2    3 1   
     3    2    6 1   
     4    3    4 1   
     5    4    5 1   
     6    4   13 1   
     7    4   14 1   
     8    5   15 1   
     9    5   16 1   
    10    5   17 1   
    11    6    7 1   
    12    6    9 2   
    13    7    8 1   
    14    7   12 2   
    15    8   18 1   
    16    8   19 1   
    17    8   20 1   
    18    9   10 1   
    19    9   11 1   
    20   10   21 1   
    21   10   22 1   
    22   10   23 1   
    23   11   12 1   
    24   11   24 1   
@<TRIPOS>SUBSTRUCTURE
     1 DEE         1 TEMP              0 ****  ****    0 ROOT
