@<TRIPOS>MOLECULE
DEE
   24    24     1     0     0
SMALL
bcc


@<TRIPOS>ATOM
      1 O7          1.1040   -1.4510    0.7280 o         1 DEE     -0.556000
      2 C6          1.5010   -0.3970    0.2180 c         1 DEE      0.690700
      3 O8          1.4040    0.7470    0.9760 os        1 DEE     -0.452900
      4 C11         0.8590    0.6230    2.2960 c3        1 DEE      0.141400
      5 C12         1.9050    0.1400    3.2710 c3        1 DEE     -0.126100
      6 C1          2.0590   -0.1880   -1.0950 cc        1 DEE     -0.323900
      7 C4          2.3030   -1.2190   -2.0970 cc        1 DEE      0.381600
      8 C9          2.0410   -2.6630   -1.9400 c3        1 DEE     -0.142400
      9 C5          2.4770    1.0220   -1.7000 cd        1 DEE     -0.009600
     10 C10         2.4850    2.3930   -1.1670 c3        1 DEE     -0.049800
     11 N2          2.9280    0.6670   -2.9700 na        1 DEE     -0.014600
     12 N3          2.8290   -0.6430   -3.2140 nd        1 DEE     -0.525800
     13 H111       -0.0260   -0.0660    2.2810 h1        1 DEE      0.060200
     14 H112        0.5310    1.6720    2.5280 h1        1 DEE      0.060200
     15 H121        2.2200   -0.8990    3.0100 hc        1 DEE      0.048700
     16 H122        2.8030    0.8020    3.2460 hc        1 DEE      0.048700
     17 H123        1.4820    0.1420    4.3040 hc        1 DEE      0.048700
     18 H91         3.0030   -3.2040   -1.7510 hc        1 DEE      0.064700
     19 H92         1.5720   -3.0890   -2.8620 hc        1 DEE      0.064700
     20 H93         1.3580   -2.8320   -1.0700 hc        1 DEE      0.064700
     21 H101        1.6210    2.5230   -0.4650 hc        1 DEE      0.067367
     22 H102        2.4110    3.1590   -1.9780 hc        1 DEE      0.067367
     23 H103        3.4290    2.5690   -0.5920 hc        1 DEE      0.067367
     24 HN2         3.2830    1.2790   -3.6680 hn        1 DEE      0.324700
@<TRIPOS>BOND
     1    1    2 2   
     2    2    3 1   
     3    2    6 1   
     4    3    4 1   
     5    4    5 1   
     6    4   13 1   
     7    4   14 1   
     8    5   15 1   
     9    5   16 1   
    10    5   17 1   
    11    6    7 1   
    12    6    9 2   
    13    7    8 1   
    14    7   12 2   
    15    8   18 1   
    16    8   19 1   
    17    8   20 1   
    18    9   10 1   
    19    9   11 1   
    20   10   21 1   
    21   10   22 1   
    22   10   23 1   
    23   11   12 1   
    24   11   24 1   
@<TRIPOS>SUBSTRUCTURE
     1 DEE         1 TEMP              0 ****  ****    0 ROOT
