@<TRIPOS>MOLECULE
DEE
   24    24     1     0     0
SMALL
bcc


@<TRIPOS>ATOM
      1 O7         -1.4790    0.4430    1.4410 o         1 DEE     -0.556000
      2 C6         -0.4150    0.2230    0.8510 c         1 DEE      0.690700
      3 O8          0.7370    0.2210    1.6030 os        1 DEE     -0.452900
      4 C11         0.6080    0.4620    3.0110 c3        1 DEE      0.141400
      5 C12         0.2010   -0.7940    3.7420 c3        1 DEE     -0.126100
      6 C1         -0.2010   -0.0290   -0.5530 cc        1 DEE     -0.322900
      7 C4         -1.2310   -0.0570   -1.5850 cc        1 DEE      0.381600
      8 C9         -2.6760    0.1530   -1.3790 c3        1 DEE     -0.142400
      9 C5          1.0120   -0.2940   -1.2330 cd        1 DEE     -0.009600
     10 C10         2.3880   -0.3790   -0.7170 c3        1 DEE     -0.050800
     11 N2          0.6610   -0.4580   -2.5720 na        1 DEE     -0.014600
     12 N3         -0.6500   -0.3230   -2.7900 nd        1 DEE     -0.525800
     13 H111       -0.1280    1.2890    3.1910 h1        1 DEE      0.060200
     14 H112        1.6420    0.7920    3.3010 h1        1 DEE      0.060200
     15 H121        0.1990   -0.6020    4.8410 hc        1 DEE      0.048700
     16 H122       -0.8240   -1.1050    3.4260 hc        1 DEE      0.048700
     17 H123        0.9100   -1.6270    3.5200 hc        1 DEE      0.048700
     18 H91        -3.2140   -0.8270   -1.4310 hc        1 DEE      0.064700
     19 H92        -2.8540    0.6050   -0.3700 hc        1 DEE      0.064700
     20 H93        -3.1000    0.8300   -2.1620 hc        1 DEE      0.064700
     21 H101        3.0320   -1.0400   -1.3460 hc        1 DEE      0.067367
     22 H102        2.8420    0.6450   -0.6880 hc        1 DEE      0.067367
     23 H103        2.3660   -0.7790    0.3300 hc        1 DEE      0.067367
     24 HN2         1.2730   -0.6650   -3.3270 hn        1 DEE      0.324700
@<TRIPOS>BOND
     1    1    2 2   
     2    2    3 1   
     3    2    6 1   
     4    3    4 1   
     5    4    5 1   
     6    4   13 1   
     7    4   14 1   
     8    5   15 1   
     9    5   16 1   
    10    5   17 1   
    11    6    7 1   
    12    6    9 2   
    13    7    8 1   
    14    7   12 2   
    15    8   18 1   
    16    8   19 1   
    17    8   20 1   
    18    9   10 1   
    19    9   11 1   
    20   10   21 1   
    21   10   22 1   
    22   10   23 1   
    23   11   12 1   
    24   11   24 1   
@<TRIPOS>SUBSTRUCTURE
     1 DEE         1 TEMP              0 ****  ****    0 ROOT
