@<TRIPOS>MOLECULE
DEE
   24    20     1     0     0
SMALL
bcc


@<TRIPOS>ATOM
      1 O7         -1.7570   -0.4690    0.6150 o         1 DEE     -0.367000
      2 C6         -0.6430   -0.1480    0.3300 c1        1 DEE      0.391000
      3 O8          0.1080    0.6860    1.2180 o         1 DEE     -0.291000
      4 C11        -0.7050    1.4910    2.0800 c3        1 DEE     -0.009000
      5 C12         0.1730    2.1140    3.1770 c3        1 DEE     -0.244000
      6 C1          0.0170   -0.7300   -0.8880 c2        1 DEE     -0.237000
      7 C4          0.7330   -1.8960   -0.9350 c1        1 DEE     -0.009500
      8 C9          0.9550   -2.8660    0.2420 c2        1 DEE     -0.171000
      9 C5          0.0300   -0.1800   -2.1320 c1        1 DEE     -0.009500
     10 C10        -0.7030    1.1030   -2.5640 c2        1 DEE     -0.171000
     11 N2          0.7410   -0.9910   -2.9340 n2        1 DEE     -0.126000
     12 N3          1.1760   -2.0590   -2.1820 n2        1 DEE     -0.126000
     13 H111       -1.4080    0.9220    2.5010 h1        1 DEE      0.099500
     14 H112       -1.1390    2.2180    1.5450 h1        1 DEE      0.099500
     15 H121        0.5140    1.4040    3.7680 hc        1 DEE      0.088000
     16 H122        0.9340    2.5890    2.7590 hc        1 DEE      0.088000
     17 H123       -0.3580    2.7470    3.7000 hc        1 DEE      0.088000
     18 H91         0.0860   -3.1100    0.6330 ha        1 DEE      0.105333
     19 H92         1.5110   -2.4270    0.9290 ha        1 DEE      0.105333
     20 H93         1.4100   -3.6760   -0.0800 ha        1 DEE      0.105333
     21 H101       -0.5270    1.2750   -3.5210 ha        1 DEE      0.105333
     22 H102       -0.3760    1.8700   -2.0240 ha        1 DEE      0.105333
     23 H103       -1.6760    0.9910   -2.4230 ha        1 DEE      0.105333
     24 HN2         0.9050   -0.8600   -3.8120 DU        1 DEE      0.275000
@<TRIPOS>BOND
     1    1    2 1   
     2    2    6 1   
     3    3    4 1   
     4    4    5 1   
     5    4   13 1   
     6    4   14 1   
     7    5   15 1   
     8    5   16 1   
     9    5   17 1   
    10    6    7 1   
    11    6    9 1   
    12    7   12 1   
    13    8   18 1   
    14    8   19 1   
    15    8   20 1   
    16    9   11 1   
    17   10   21 1   
    18   10   22 1   
    19   10   23 1   
    20   11   12 1   
@<TRIPOS>SUBSTRUCTURE
     1 DEE         1 TEMP              0 ****  ****    0 ROOT
