@<TRIPOS>MOLECULE
DEG
   36    36     1     0     0
SMALL
bcc


@<TRIPOS>ATOM
      1 C3'         0.1320    0.2060   -0.0430 c3        1 DEG     -0.079400
      2 C4'         1.6290    0.1610    0.1240 c3        1 DEG     -0.092100
      3 C1'        -2.0790    0.1020    1.0940 c3        1 DEG      0.131400
      4 C2'        -0.5740    0.0550    1.2870 c3        1 DEG     -0.083400
      5 C2         -4.5450    0.0220    3.8500 c3        1 DEG      0.093100
      6 O2         -5.9370    0.2690    3.8920 oh        1 DEG     -0.593800
      7 C3         -4.2010   -1.2640    4.6120 c3        1 DEG      0.076100
      8 O3         -4.7780   -1.2840    5.9020 oh        1 DEG     -0.595800
      9 C4         -4.6610   -2.5030    3.8220 c3        1 DEG      0.086100
     10 O4         -4.2280   -3.6970    4.4480 oh        1 DEG     -0.592800
     11 C5         -4.0510   -2.4620    2.4120 c3        1 DEG      0.141100
     12 O5         -4.4770   -1.2620    1.7560 os        1 DEG     -0.444600
     13 C6         -4.5570   -3.6230    1.5560 c3        1 DEG      0.135400
     14 O6         -3.5870   -3.8440    0.5450 oh        1 DEG     -0.597800
     15 O1         -2.6560   -0.0420    2.3980 os        1 DEG     -0.445600
     16 C1         -4.0650   -0.0660    2.3880 c3        1 DEG      0.300900
     17 H3'1       -0.1660    1.1780   -0.5170 hc        1 DEG      0.040700
     18 H3'2       -0.1960   -0.6140   -0.7360 hc        1 DEG      0.040700
     19 H4'1        1.9460   -0.8110    0.5730 hc        1 DEG      0.034700
     20 H4'2        2.1320    0.2740   -0.8660 hc        1 DEG      0.034700
     21 H4'3        1.9760    0.9850    0.7930 hc        1 DEG      0.034700
     22 H1'1       -2.4340   -0.7360    0.4380 h1        1 DEG      0.042700
     23 H1'2       -2.4020    1.0840    0.6570 h1        1 DEG      0.042700
     24 H2'1       -0.2930   -0.9190    1.7660 hc        1 DEG      0.054200
     25 H2'2       -0.2610    0.8720    1.9870 hc        1 DEG      0.054200
     26 H2         -4.0780    0.9090    4.3610 h1        1 DEG      0.109700
     27 HA         -6.3620   -0.3650    3.2970 ho        1 DEG      0.412000
     28 H3         -3.0880   -1.3160    4.7850 h1        1 DEG      0.108700
     29 HB         -5.6790   -0.9380    5.8230 ho        1 DEG      0.417000
     30 H4         -5.7860   -2.5140    3.7580 h1        1 DEG      0.037700
     31 HC         -4.3370   -3.5660    5.4010 ho        1 DEG      0.423000
     32 H5         -2.9280   -2.4800    2.4710 h1        1 DEG      0.092700
     33 H6C1       -5.5480   -3.3670    1.0950 h1        1 DEG      0.045200
     34 H6C2       -4.6560   -4.5360    2.2040 h1        1 DEG      0.045200
     35 H6         -3.9260   -4.5580   -0.0060 ho        1 DEG      0.402000
     36 H1         -4.5120    0.7550    1.7580 h2        1 DEG      0.088700
@<TRIPOS>BOND
     1    1    2 1   
     2    1    4 1   
     3    1   17 1   
     4    1   18 1   
     5    2   19 1   
     6    2   20 1   
     7    2   21 1   
     8    3    4 1   
     9    3   15 1   
    10    3   22 1   
    11    3   23 1   
    12    4   24 1   
    13    4   25 1   
    14    5    6 1   
    15    5    7 1   
    16    5   16 1   
    17    5   26 1   
    18    6   27 1   
    19    7    8 1   
    20    7    9 1   
    21    7   28 1   
    22    8   29 1   
    23    9   10 1   
    24    9   11 1   
    25    9   30 1   
    26   10   31 1   
    27   11   12 1   
    28   11   13 1   
    29   11   32 1   
    30   12   16 1   
    31   13   14 1   
    32   13   33 1   
    33   13   34 1   
    34   14   35 1   
    35   15   16 1   
    36   16   36 1   
@<TRIPOS>SUBSTRUCTURE
     1 DEG         1 TEMP              0 ****  ****    0 ROOT
