@<TRIPOS>MOLECULE
DEG
   36    36     1     0     0
SMALL
bcc


@<TRIPOS>ATOM
      1 C3'         0.1270    0.2370   -0.0320 c3        1 DEG     -0.079400
      2 C4'         1.6250    0.2680    0.1310 c3        1 DEG     -0.092100
      3 C1'        -2.0730    0.0670    1.1170 c3        1 DEG      0.132400
      4 C2'        -0.5670    0.0960    1.3050 c3        1 DEG     -0.083400
      5 C2         -4.4990   -0.0760    3.9020 c3        1 DEG      0.094100
      6 O2         -5.8980    0.1440    3.9890 oh        1 DEG     -0.601800
      7 C3         -4.2170   -1.4050    4.6150 c3        1 DEG      0.117100
      8 O3         -4.7980   -1.4470    5.9020 oh        1 DEG     -0.597800
      9 C4         -4.7220   -2.5840    3.7670 c3        1 DEG      0.086100
     10 O4         -4.3780   -3.8230    4.3630 oh        1 DEG     -0.596800
     11 C5         -4.0590   -2.5250    2.3820 c3        1 DEG      0.146100
     12 O5         -4.4280   -1.3000    1.7390 os        1 DEG     -0.429600
     13 C6         -4.5640   -3.6500    1.4780 c3        1 DEG      0.134400
     14 O6         -3.5640   -3.8690    0.4950 oh        1 DEG     -0.599800
     15 O1         -2.6400   -0.0670    2.4250 os        1 DEG     -0.452600
     16 C1         -4.0520   -0.1280    2.4260 c3        1 DEG      0.304900
     17 H3'1       -0.1630   -0.6190   -0.6970 hc        1 DEG      0.041200
     18 H3'2       -0.2170    1.1790   -0.5350 hc        1 DEG      0.041200
     19 H4'1        1.9350    1.1280    0.7720 hc        1 DEG      0.034033
     20 H4'2        2.1200    0.3730   -0.8650 hc        1 DEG      0.034033
     21 H4'3        1.9890   -0.6740    0.6080 hc        1 DEG      0.034033
     22 H1'1       -2.4430    1.0190    0.6520 h1        1 DEG      0.041700
     23 H1'2       -2.3900   -0.8050    0.4850 h1        1 DEG      0.041700
     24 H2'1       -0.2400   -0.8490    1.8130 hc        1 DEG      0.053700
     25 H2'2       -0.2900    0.9480    1.9780 hc        1 DEG      0.053700
     26 H2         -3.9460    0.7560    4.4220 h1        1 DEG      0.071700
     27 HA         -6.0780    0.9990    3.5790 ho        1 DEG      0.414000
     28 H3         -3.1080   -1.5020    4.7910 h1        1 DEG      0.104700
     29 HB         -5.7310   -1.2090    5.8090 ho        1 DEG      0.421000
     30 H4         -5.8410   -2.5190    3.6630 h1        1 DEG      0.058700
     31 HC         -4.5180   -3.7200    5.3150 ho        1 DEG      0.421000
     32 H5         -2.9390   -2.5730    2.4790 h1        1 DEG      0.085700
     33 H6C1       -5.5310   -3.3540    0.9910 h1        1 DEG      0.046700
     34 H6C2       -4.7080   -4.5770    2.0950 h1        1 DEG      0.046700
     35 H6         -3.9100   -4.5450   -0.0990 ho        1 DEG      0.401000
     36 H1         -4.5140    0.7070    1.8250 h2        1 DEG      0.071700
@<TRIPOS>BOND
     1    1    2 1   
     2    1    4 1   
     3    1   17 1   
     4    1   18 1   
     5    2   19 1   
     6    2   20 1   
     7    2   21 1   
     8    3    4 1   
     9    3   15 1   
    10    3   22 1   
    11    3   23 1   
    12    4   24 1   
    13    4   25 1   
    14    5    6 1   
    15    5    7 1   
    16    5   16 1   
    17    5   26 1   
    18    6   27 1   
    19    7    8 1   
    20    7    9 1   
    21    7   28 1   
    22    8   29 1   
    23    9   10 1   
    24    9   11 1   
    25    9   30 1   
    26   10   31 1   
    27   11   12 1   
    28   11   13 1   
    29   11   32 1   
    30   12   16 1   
    31   13   14 1   
    32   13   33 1   
    33   13   34 1   
    34   14   35 1   
    35   15   16 1   
    36   16   36 1   
@<TRIPOS>SUBSTRUCTURE
     1 DEG         1 TEMP              0 ****  ****    0 ROOT
