@<TRIPOS>MOLECULE
DEG
   36    36     1     0     0
SMALL
bcc


@<TRIPOS>ATOM
      1 C3'        -0.4500    0.0580    4.5340 c3        1 DEG     -0.079400
      2 C4'        -0.6850   -0.9830    5.5980 c3        1 DEG     -0.092100
      3 C1'        -0.6370    0.6230    2.1180 c3        1 DEG      0.132400
      4 C2'        -0.8830   -0.4410    3.1720 c3        1 DEG     -0.083400
      5 C2         -1.5890    0.2660   -1.4350 c3        1 DEG      0.094100
      6 O2         -1.6990    1.1830   -2.5120 oh        1 DEG     -0.601800
      7 C3         -0.7740   -0.9260   -1.9540 c3        1 DEG      0.117100
      8 O3         -1.2820   -1.4230   -3.1740 oh        1 DEG     -0.597800
      9 C4          0.7050   -0.5330   -2.1160 c3        1 DEG      0.086100
     10 O4          1.4880   -1.6500   -2.4960 oh        1 DEG     -0.596800
     11 C5          1.2360   -0.0170   -0.7700 c3        1 DEG      0.146100
     12 O5          0.4880    1.1420   -0.3860 os        1 DEG     -0.429600
     13 C6          2.6920    0.4360   -0.8870 c3        1 DEG      0.134400
     14 O6          3.2530    0.3600    0.4140 oh        1 DEG     -0.599800
     15 O1         -1.0760    0.0660    0.8740 os        1 DEG     -0.452600
     16 C1         -0.8970    0.9320   -0.2280 c3        1 DEG      0.304900
     17 H3'1       -1.0170    0.9930    4.7890 hc        1 DEG      0.041200
     18 H3'2        0.6390    0.3290    4.5040 hc        1 DEG      0.041200
     19 H4'1       -0.3600   -0.5980    6.5940 hc        1 DEG      0.034033
     20 H4'2       -1.7680   -1.2490    5.6580 hc        1 DEG      0.034033
     21 H4'3       -0.1080   -1.9130    5.3730 hc        1 DEG      0.034033
     22 H1'1       -1.2280    1.5530    2.3330 h1        1 DEG      0.041700
     23 H1'2        0.4520    0.8820    2.0430 h1        1 DEG      0.041700
     24 H2'1       -0.3150   -1.3690    2.9020 hc        1 DEG      0.053700
     25 H2'2       -1.9720   -0.7100    3.1860 hc        1 DEG      0.053700
     26 H2         -2.6120   -0.0850   -1.1230 h1        1 DEG      0.071700
     27 HA         -2.2470    1.9160   -2.2080 ho        1 DEG      0.414000
     28 H3         -0.8690   -1.7830   -1.2270 h1        1 DEG      0.104700
     29 HB         -1.3660   -0.6740   -3.7810 ho        1 DEG      0.421000
     30 H4          0.7940    0.2690   -2.9020 h1        1 DEG      0.058700
     31 HC          0.9680   -2.1450   -3.1450 ho        1 DEG      0.421000
     32 H5          1.1340   -0.8080    0.0220 h1        1 DEG      0.085700
     33 H6C1        3.2350   -0.2600   -1.5820 h1        1 DEG      0.046700
     34 H6C2        2.7430    1.4880   -1.2730 h1        1 DEG      0.046700
     35 H6          4.1550    0.6920    0.3410 ho        1 DEG      0.401000
     36 H1         -1.3130    1.9620   -0.0310 h2        1 DEG      0.071700
@<TRIPOS>BOND
     1    1    2 1   
     2    1    4 1   
     3    1   17 1   
     4    1   18 1   
     5    2   19 1   
     6    2   20 1   
     7    2   21 1   
     8    3    4 1   
     9    3   15 1   
    10    3   22 1   
    11    3   23 1   
    12    4   24 1   
    13    4   25 1   
    14    5    6 1   
    15    5    7 1   
    16    5   16 1   
    17    5   26 1   
    18    6   27 1   
    19    7    8 1   
    20    7    9 1   
    21    7   28 1   
    22    8   29 1   
    23    9   10 1   
    24    9   11 1   
    25    9   30 1   
    26   10   31 1   
    27   11   12 1   
    28   11   13 1   
    29   11   32 1   
    30   12   16 1   
    31   13   14 1   
    32   13   33 1   
    33   13   34 1   
    34   14   35 1   
    35   15   16 1   
    36   16   36 1   
@<TRIPOS>SUBSTRUCTURE
     1 DEG         1 TEMP              0 ****  ****    0 ROOT
