@<TRIPOS>MOLECULE
DEG
   36    36     1     0     0
SMALL
bcc


@<TRIPOS>ATOM
      1 C3'         2.7220    0.1740   -3.3270 c3        1 DEG     -0.079400
      2 C4'         4.2350    0.1740   -3.3270 c3        1 DEG     -0.092100
      3 C1'         0.7050    0.2010   -1.9000 c3        1 DEG      0.134400
      4 C2'         2.2180    0.1740   -1.9010 c3        1 DEG     -0.084400
      5 C2         -1.3510    1.5040    0.5990 c3        1 DEG      0.095100
      6 O2         -2.7250    1.7450    0.5340 oh        1 DEG     -0.591800
      7 C3         -0.9970    1.1690    2.0000 c3        1 DEG      0.075100
      8 O3         -1.5010    2.2670    2.8970 oh        1 DEG     -0.594800
      9 C4         -1.5420   -0.0530    2.4370 c3        1 DEG      0.091100
     10 O4         -0.9600   -0.3720    3.8150 oh        1 DEG     -0.591800
     11 C5         -1.2750   -1.1720    1.5600 c3        1 DEG      0.101100
     12 O5         -1.6310   -0.9200    0.1480 os        1 DEG     -0.460600
     13 C6         -2.0780   -2.3850    2.0580 c3        1 DEG      0.141400
     14 O6         -1.9120   -3.4590    1.1590 oh        1 DEG     -0.594800
     15 O1          0.2360    0.2110   -0.5720 os        1 DEG     -0.442600
     16 C1         -0.9800    0.3460   -0.4760 c3        1 DEG      0.302900
     17 H3'1        2.3960   -0.6230   -3.7870 hc        1 DEG      0.040700
     18 H3'2        2.3960    0.9710   -3.7870 hc        1 DEG      0.040700
     19 H4'1        4.5600   -0.6200   -2.8620 hc        1 DEG      0.035700
     20 H4'2        4.5600    0.1680   -4.2470 hc        1 DEG      0.035700
     21 H4'3        4.5600    0.9740   -2.8720 hc        1 DEG      0.035700
     22 H1'1        0.3650   -0.5900   -2.3600 h1        1 DEG      0.036700
     23 H1'2        0.3940    1.0030   -2.3610 h1        1 DEG      0.036700
     24 H2'1        2.5290   -0.6310   -1.4450 hc        1 DEG      0.056200
     25 H2'2        2.5570    0.9620   -1.4350 hc        1 DEG      0.056200
     26 H2         -0.8800    2.3220    0.3480 h1        1 DEG      0.110700
     27 HA         -2.8710    2.5110    0.1100 ho        1 DEG      0.412000
     28 H3         -0.0240    1.1230    2.0750 h1        1 DEG      0.108700
     29 HB         -0.8170    2.7610    3.1730 ho        1 DEG      0.417000
     30 H4         -2.5080    0.0510    2.5240 h1        1 DEG      0.039700
     31 HC         -1.5580   -0.1800    4.4410 ho        1 DEG      0.424000
     32 H5         -0.3240   -1.3860    1.6090 h1        1 DEG      0.085700
     33 H6C1       -1.7560   -2.6470    2.9410 h1        1 DEG      0.062200
     34 H6C2       -3.0230   -2.1490    2.1130 h1        1 DEG      0.062200
     35 H6         -2.3420   -4.1710    1.4670 ho        1 DEG      0.407000
     36 H1         -1.3770    0.5440   -1.3460 h2        1 DEG      0.089700
@<TRIPOS>BOND
     1    1    2 1   
     2    1    4 1   
     3    1   17 1   
     4    1   18 1   
     5    2   19 1   
     6    2   20 1   
     7    2   21 1   
     8    3    4 1   
     9    3   15 1   
    10    3   22 1   
    11    3   23 1   
    12    4   24 1   
    13    4   25 1   
    14    5    6 1   
    15    5    7 1   
    16    5   16 1   
    17    5   26 1   
    18    6   27 1   
    19    7    8 1   
    20    7    9 1   
    21    7   28 1   
    22    8   29 1   
    23    9   10 1   
    24    9   11 1   
    25    9   30 1   
    26   10   31 1   
    27   11   12 1   
    28   11   13 1   
    29   11   32 1   
    30   12   16 1   
    31   13   14 1   
    32   13   33 1   
    33   13   34 1   
    34   14   35 1   
    35   15   16 1   
    36   16   36 1   
@<TRIPOS>SUBSTRUCTURE
     1 DEG         1 TEMP              0 ****  ****    0 ROOT
