@<TRIPOS>MOLECULE
DEH
   42    45     1     0     0
SMALL
bcc


@<TRIPOS>ATOM
      1 C2          0.0260    0.0150    0.0190 ca        1 DEH     -0.105000
      2 C3          1.4230    0.0030    0.0300 ca        1 DEH      0.124100
      3 C5          2.1230   -0.0350    1.2640 ca        1 DEH      0.097100
      4 C8          1.4160   -0.0400    2.4670 ca        1 DEH     -0.160000
      5 C9          0.0200   -0.0220    2.4510 ca        1 DEH     -0.063300
      6 C10        -0.7430   -0.0090    3.7260 c3        1 DEH     -0.052100
      7 C11        -2.0530    0.7560    3.5670 c3        1 DEH      0.001300
      8 N12        -2.8270    0.3310    2.3950 na        1 DEH      0.020900
      9 C14        -2.1440   -0.0610    1.2290 ca        1 DEH      0.042700
     10 C16        -2.8690   -0.4900    0.1280 ca        1 DEH     -0.108000
     11 C17        -4.2900   -0.5120    0.1360 ca        1 DEH      0.019000
     12 C25        -5.0550   -0.9310   -0.9730 ca        1 DEH     -0.127000
     13 C24        -6.4360   -0.9320   -0.9160 ca        1 DEH     -0.083000
     14 C21        -7.1040   -0.5160    0.2550 ca        1 DEH      0.058100
     15 O22        -8.4720   -0.4800    0.4150 os        1 DEH     -0.335900
     16 C23        -9.2590   -0.8890   -0.7040 c3        1 DEH      0.114700
     17 C19        -6.3740   -0.0970    1.3780 ca        1 DEH      0.155100
     18 O20        -6.9470    0.3180    2.5470 oh        1 DEH     -0.490100
     19 C18        -4.9520   -0.0920    1.3270 ca        1 DEH     -0.106000
     20 C1         -0.6790   -0.0180    1.2310 ca        1 DEH     -0.087000
     21 C13        -4.1710    0.3140    2.4400 ca        1 DEH      0.056700
     22 O6          3.4930   -0.0540    1.1450 os        1 DEH     -0.331900
     23 C7          4.2410   -0.1000    2.3600 c3        1 DEH      0.114700
     24 O4          2.0510    0.0300   -1.1870 oh        1 DEH     -0.479100
     25 H2         -0.4880    0.0650   -0.9530 ha        1 DEH      0.163000
     26 H8          1.9500   -0.0550    3.4300 ha        1 DEH      0.158000
     27 H10        -0.9400   -1.0650    4.0570 hc        1 DEH      0.089200
     28 H10A       -0.1540    0.4950    4.5400 hc        1 DEH      0.089200
     29 H11        -1.8360    1.8570    3.4380 h1        1 DEH      0.095200
     30 H11A       -2.6860    0.6150    4.4900 h1        1 DEH      0.095200
     31 H16        -2.3380   -0.8330   -0.7760 ha        1 DEH      0.187000
     32 H25        -4.5390   -1.2570   -1.8910 ha        1 DEH      0.168000
     33 H24        -7.0210   -1.2600   -1.7910 ha        1 DEH      0.170000
     34 H23        -9.0500   -1.9560   -0.9580 h1        1 DEH      0.063367
     35 H23A       -9.0700   -0.2220   -1.5790 h1        1 DEH      0.063367
     36 H23B      -10.3080   -0.7670   -0.3280 h1        1 DEH      0.063367
     37 HO20       -7.9160    0.2730    2.4550 ho        1 DEH      0.471000
     38 H13        -4.6780    0.6290    3.3800 h4        1 DEH      0.214000
     39 H7          4.0440    0.8130    2.9730 h1        1 DEH      0.060033
     40 H7A         3.9980   -1.0270    2.9330 h1        1 DEH      0.060033
     41 H7B         5.3030   -0.1180    2.0020 h1        1 DEH      0.060033
     42 HO4         3.0120    0.0220   -1.0410 ho        1 DEH      0.454000
@<TRIPOS>BOND
     1    1    2 ar  
     2    1   20 ar  
     3    1   25 1   
     4    2    3 ar  
     5    2   24 1   
     6    3    4 ar  
     7    3   22 1   
     8    4    5 ar  
     9    4   26 1   
    10    5    6 1   
    11    5   20 ar  
    12    6    7 1   
    13    6   27 1   
    14    6   28 1   
    15    7    8 1   
    16    7   29 1   
    17    7   30 1   
    18    8    9 1   
    19    8   21 2   
    20    9   10 ar  
    21    9   20 1   
    22   10   11 ar  
    23   10   31 1   
    24   11   12 ar  
    25   11   19 ar  
    26   12   13 ar  
    27   12   32 1   
    28   13   14 ar  
    29   13   33 1   
    30   14   15 1   
    31   14   17 ar  
    32   15   16 1   
    33   16   34 1   
    34   16   35 1   
    35   16   36 1   
    36   17   18 1   
    37   17   19 ar  
    38   18   37 1   
    39   19   21 ar  
    40   21   38 1   
    41   22   23 1   
    42   23   39 1   
    43   23   40 1   
    44   23   41 1   
    45   24   42 1   
@<TRIPOS>SUBSTRUCTURE
     1 DEH         1 TEMP              0 ****  ****    0 ROOT
