@<TRIPOS>MOLECULE
DEH
   42    38     1     0     0
SMALL
bcc


@<TRIPOS>ATOM
      1 C2          2.5240    0.0820   -0.9490 c1        1 DEH     -0.170000
      2 C3          3.9060    0.0120   -0.9250 c1        1 DEH      0.071000
      3 C5          4.5840   -0.0870    0.3000 c1        1 DEH      0.117000
      4 C8          3.8660   -0.1160    1.4930 c1        1 DEH     -0.170000
      5 C9          2.4520   -0.0440    1.4680 c1        1 DEH     -0.067000
      6 C10         1.6950   -0.0180    2.7310 c2        1 DEH     -0.140000
      7 C11         0.2140    0.0680    2.6780 c3        1 DEH     -0.059000
      8 N12        -0.4460   -0.0420    1.4020 n3        1 DEH     -0.049000
      9 C14         0.2920    0.0550    0.2210 c1        1 DEH      0.073000
     10 C16        -0.3690    0.0900   -1.0200 c1        1 DEH     -0.114000
     11 C17        -1.7870    0.0270   -1.0680 c1        1 DEH      0.021000
     12 C25        -2.4640    0.0870   -2.3130 c2        1 DEH     -0.130000
     13 C24        -3.8750    0.0490   -2.3520 c1        1 DEH     -0.082000
     14 C21        -4.6110   -0.0480   -1.1520 c1        1 DEH      0.012000
     15 O22        -6.0000    0.0200   -0.7720 os        1 DEH     -0.219000
     16 C23        -6.8870    0.3780   -1.8560 c3        1 DEH     -0.075000
     17 C19        -3.9560   -0.1060    0.0570 c1        1 DEH      0.111000
     18 O20        -4.7180   -0.1950    1.2790 o         1 DEH     -0.244000
     19 C18        -2.5130   -0.0690    0.1030 c2        1 DEH     -0.107000
     20 C1          1.7900    0.0530    0.2630 c1        1 DEH     -0.067000
     21 C13        -1.8530   -0.1040    1.3480 c2        1 DEH      0.082000
     22 O6          5.8820    0.2960   -0.0880 os        1 DEH     -0.165000
     23 C7          6.9240   -0.5730    0.4160 c3        1 DEH     -0.087000
     24 O4          4.3290    0.5060   -2.2730 oh        1 DEH     -0.207000
     25 H2          2.0660    0.1510   -1.7810 ha        1 DEH      0.152500
     26 H8          4.3340   -0.1850    2.3380 ha        1 DEH      0.152500
     27 H10         1.9990    0.7080    3.2220 ha        1 DEH      0.129500
     28 H10A        1.9240   -0.8330    3.2300 ha        1 DEH      0.129500
     29 H11        -0.0580    0.9650    3.0870 h1        1 DEH      0.135000
     30 H11A       -0.1300   -0.6200    3.2360 h1        1 DEH      0.135000
     31 H16         0.1760    0.0320   -1.8950 ha        1 DEH      0.182000
     32 H25        -1.9450    0.1570   -3.1640 ha        1 DEH      0.166000
     33 H24        -4.3460    0.1340   -3.2130 ha        1 DEH      0.170000
     34 H23        -6.7640    1.3400   -2.0830 h1        1 DEH      0.102667
     35 H23A       -6.6810   -0.1750   -2.6440 h1        1 DEH      0.102667
     36 H23B       -7.8500    0.2180   -1.5730 h1        1 DEH      0.102667
     37 HO20       -5.1540    0.6020    1.4290 ho        1 DEH      0.270000
     38 H13        -2.3650   -0.2830    2.1630 h4        1 DEH      0.214000
     39 H7          7.7470   -0.4270   -0.0950 h1        1 DEH      0.098333
     40 H7A         7.0770   -0.3850    1.3050 h1        1 DEH      0.098333
     41 H7B         6.6430   -1.5070    0.3250 h1        1 DEH      0.098333
     42 HO4         4.3470   -0.2140   -2.8800 ho        1 DEH      0.225000
@<TRIPOS>BOND
     1    1   20 1   
     2    1   25 1   
     3    2    3 1   
     4    2   24 1   
     5    3   22 1   
     6    4    5 1   
     7    4   26 1   
     8    5   20 1   
     9    6    7 1   
    10    6   27 1   
    11    6   28 1   
    12    7    8 1   
    13    7   29 1   
    14    7   30 1   
    15    8    9 1   
    16    8   21 1   
    17    9   10 1   
    18   10   31 1   
    19   11   12 1   
    20   11   19 1   
    21   12   13 1   
    22   12   32 1   
    23   13   33 1   
    24   14   15 1   
    25   14   17 1   
    26   15   16 1   
    27   16   34 1   
    28   16   35 1   
    29   16   36 1   
    30   17   19 1   
    31   18   37 1   
    32   19   21 1   
    33   21   38 1   
    34   22   23 1   
    35   23   39 1   
    36   23   40 1   
    37   23   41 1   
    38   24   42 1   
@<TRIPOS>SUBSTRUCTURE
     1 DEH         1 TEMP              0 ****  ****    0 ROOT
