@<TRIPOS>MOLECULE
DEH
   42    45     1     0     0
SMALL
bcc


@<TRIPOS>ATOM
      1 C2         -2.3780   -1.2980    0.3900 ca        1 DEH     -0.105000
      2 C3         -3.7680   -1.4400    0.3730 ca        1 DEH      0.124100
      3 C5         -4.5920   -0.3220    0.0790 ca        1 DEH      0.097100
      4 C8         -4.0140    0.9230   -0.1750 ca        1 DEH     -0.160000
      5 C9         -2.6240    1.0600   -0.1520 ca        1 DEH     -0.063300
      6 C10        -1.9990    2.3840   -0.4030 c3        1 DEH     -0.052100
      7 C11        -0.6980    2.5270    0.3810 c3        1 DEH      0.001300
      8 N12         0.2040    1.3820    0.2090 na        1 DEH      0.020900
      9 C14        -0.3440    0.0940    0.0680 ca        1 DEH      0.042700
     10 C16         0.5010   -0.9880   -0.1220 ca        1 DEH     -0.108000
     11 C17         1.9140   -0.8330   -0.1430 ca        1 DEH      0.019000
     12 C25         2.7990   -1.9170   -0.3210 ca        1 DEH     -0.127000
     13 C24         4.1660   -1.7140   -0.3320 ca        1 DEH     -0.083000
     14 C21         4.6990   -0.4180   -0.1670 ca        1 DEH      0.058100
     15 O22         6.0420   -0.1090   -0.1630 os        1 DEH     -0.335900
     16 C23         6.9510   -1.1980   -0.3290 c3        1 DEH      0.114700
     17 C19         3.8470    0.6820    0.0090 ca        1 DEH      0.155100
     18 O20         4.2850    1.9660    0.1720 oh        1 DEH     -0.490100
     19 C18         2.4380    0.4830    0.0210 ca        1 DEH     -0.106000
     20 C1         -1.8030   -0.0520    0.1060 ca        1 DEH     -0.087000
     21 C13         1.5360    1.5650    0.1850 ca        1 DEH      0.056700
     22 O6         -5.9410   -0.5870    0.0830 os        1 DEH     -0.331900
     23 C7         -6.8100    0.5050   -0.2160 c3        1 DEH      0.114700
     24 O4         -4.2660   -2.6850    0.6520 oh        1 DEH     -0.479100
     25 H2         -1.7670   -2.1790    0.6410 ha        1 DEH      0.163000
     26 H8         -4.6450    1.7990   -0.3910 ha        1 DEH      0.158000
     27 H10        -1.8130    2.5090   -1.5050 hc        1 DEH      0.089200
     28 H10A       -2.6800    3.2170   -0.0800 hc        1 DEH      0.089200
     29 H11        -0.1610    3.4630    0.0520 h1        1 DEH      0.095200
     30 H11A       -0.9260    2.6060    1.4840 h1        1 DEH      0.095200
     31 H16         0.0760   -1.9950   -0.2700 ha        1 DEH      0.187000
     32 H25         2.3890   -2.9320   -0.4500 ha        1 DEH      0.168000
     33 H24         4.8470   -2.5710   -0.4700 ha        1 DEH      0.170000
     34 H23         7.9520   -0.6950   -0.2860 h1        1 DEH      0.063367
     35 H23A        6.8380   -1.9310    0.5050 h1        1 DEH      0.063367
     36 H23B        6.7950   -1.6880   -1.3210 h1        1 DEH      0.063367
     37 HO20        5.2590    1.9710    0.1490 ho        1 DEH      0.471000
     38 H13         1.9350    2.5990    0.3000 h4        1 DEH      0.214000
     39 H7         -7.8280    0.0400   -0.1610 h1        1 DEH      0.060033
     40 H7A        -6.6990    1.3110    0.5500 h1        1 DEH      0.060033
     41 H7B        -6.6060    0.8960   -1.2410 h1        1 DEH      0.060033
     42 HO4        -5.2370   -2.6470    0.6120 ho        1 DEH      0.454000
@<TRIPOS>BOND
     1    1    2 ar  
     2    1   20 ar  
     3    1   25 1   
     4    2    3 ar  
     5    2   24 1   
     6    3    4 ar  
     7    3   22 1   
     8    4    5 ar  
     9    4   26 1   
    10    5    6 1   
    11    5   20 ar  
    12    6    7 1   
    13    6   27 1   
    14    6   28 1   
    15    7    8 1   
    16    7   29 1   
    17    7   30 1   
    18    8    9 1   
    19    8   21 2   
    20    9   10 ar  
    21    9   20 1   
    22   10   11 ar  
    23   10   31 1   
    24   11   12 ar  
    25   11   19 ar  
    26   12   13 ar  
    27   12   32 1   
    28   13   14 ar  
    29   13   33 1   
    30   14   15 1   
    31   14   17 ar  
    32   15   16 1   
    33   16   34 1   
    34   16   35 1   
    35   16   36 1   
    36   17   18 1   
    37   17   19 ar  
    38   18   37 1   
    39   19   21 ar  
    40   21   38 1   
    41   22   23 1   
    42   23   39 1   
    43   23   40 1   
    44   23   41 1   
    45   24   42 1   
@<TRIPOS>SUBSTRUCTURE
     1 DEH         1 TEMP              0 ****  ****    0 ROOT
