@<TRIPOS>MOLECULE
DEI
   13    12     1     0     0
SMALL
bcc


@<TRIPOS>ATOM
      1 CAA         0.0430    0.0230   -0.0800 c3        1 DEI     -0.050000
      2 SAF         1.7700   -0.2660   -0.1990 ss        1 DEI     -0.254700
      3 CAE         2.2180   -0.3240    1.4310 c2        1 DEI     -0.210400
      4 CAH         3.3870    0.0570    1.9790 ce        1 DEI      0.059900
      5 CAG         3.7160   -0.0980    3.4680 c         1 DEI      0.891800
      6 OAB         4.8670    0.3110    3.8040 o         1 DEI     -0.817300
      7 OAC         2.8620   -0.5960    4.2420 o         1 DEI     -0.817300
      8 OAD         4.3840    0.6070    1.2160 oh        1 DEI     -0.534100
      9 HAA        -0.3670   -0.0740   -1.1100 h1        1 DEI      0.045033
     10 HAAA       -0.4560   -0.7160    0.5860 h1        1 DEI      0.045033
     11 HAAB       -0.1810    1.0420    0.3060 h1        1 DEI      0.045033
     12 HAE         1.4850   -0.7610    2.1280 h4        1 DEI      0.153000
     13 HOAD        5.1270    0.7980    1.8230 ho        1 DEI      0.443000
@<TRIPOS>BOND
     1    1    2 1   
     2    1    9 1   
     3    1   10 1   
     4    1   11 1   
     5    2    3 1   
     6    3    4 2   
     7    3   12 1   
     8    4    5 1   
     9    4    8 1   
    10    5    6 1   
    11    5    7 1   
    12    8   13 1   
@<TRIPOS>SUBSTRUCTURE
     1 DEI         1 TEMP              0 ****  ****    0 ROOT
