@<TRIPOS>MOLECULE
DEI
   13    12     1     0     0
SMALL
bcc


@<TRIPOS>ATOM
      1 CAA         0.0430    0.0020   -0.0800 c3        1 DEI     -0.050000
      2 SAF         1.7740   -0.2620   -0.2010 ss        1 DEI     -0.255700
      3 CAE         2.2240   -0.3260    1.4290 c2        1 DEI     -0.210400
      4 CAH         3.3860    0.0710    1.9790 ce        1 DEI      0.059900
      5 CAG         3.7170   -0.0910    3.4670 c         1 DEI      0.891800
      6 OAB         4.8610    0.3360    3.8060 o         1 DEI     -0.816800
      7 OAC         2.8730   -0.6110    4.2370 o         1 DEI     -0.816800
      8 OAD         4.3730    0.6460    1.2210 oh        1 DEI     -0.534100
      9 HAA        -0.3660   -0.0950   -1.1100 h1        1 DEI      0.045033
     10 HAAA       -0.4450   -0.7470    0.5820 h1        1 DEI      0.045033
     11 HAAB       -0.1950    1.0160    0.3120 h1        1 DEI      0.045033
     12 HAE         1.4990   -0.7820    2.1220 h4        1 DEI      0.153000
     13 HOAD        5.1110    0.8450    1.8310 ho        1 DEI      0.443000
@<TRIPOS>BOND
     1    1    2 1   
     2    1    9 1   
     3    1   10 1   
     4    1   11 1   
     5    2    3 1   
     6    3    4 2   
     7    3   12 1   
     8    4    5 1   
     9    4    8 1   
    10    5    6 1   
    11    5    7 1   
    12    8   13 1   
@<TRIPOS>SUBSTRUCTURE
     1 DEI         1 TEMP              0 ****  ****    0 ROOT
