@<TRIPOS>MOLECULE
DEI
   13    11     1     0     0
SMALL
bcc


@<TRIPOS>ATOM
      1 CAA        -2.3150    0.7290   -1.0830 c3        1 DEI     -0.367000
      2 SAF        -0.6080    0.2490   -1.0990 ss        1 DEI      0.156000
      3 CAE         0.0070    0.1950    0.5630 c2        1 DEI     -0.525000
      4 CAH         1.1770   -0.4180    0.8290 c1        1 DEI      0.082000
      5 CAG         1.9660   -1.0600   -0.2910 c1        1 DEI      0.385000
      6 OAB         2.7040   -0.3530   -1.0260 o         1 DEI     -0.536500
      7 OAC         1.8850   -2.3010   -0.4870 o         1 DEI     -0.536500
      8 OAD         1.6650   -0.4610    2.1480 oh        1 DEI     -0.247000
      9 HAA        -2.3950    1.6390   -0.7260 h1        1 DEI      0.103667
     10 HAAA       -2.8230    0.1100   -0.5170 h1        1 DEI      0.103667
     11 HAAB       -2.6700    0.7040   -1.9960 h1        1 DEI      0.103667
     12 HAE        -0.5030    0.6090    1.2850 h4        1 DEI      0.100000
     13 HOAD        1.9100    0.3560    2.4000 ho        1 DEI      0.179000
@<TRIPOS>BOND
     1    1    2 1   
     2    1    9 1   
     3    1   10 1   
     4    1   11 1   
     5    2    3 1   
     6    3    4 1   
     7    3   12 1   
     8    4    8 1   
     9    5    6 1   
    10    5    7 1   
    11    8   13 1   
@<TRIPOS>SUBSTRUCTURE
     1 DEI         1 TEMP              0 ****  ****    0 ROOT
