@<TRIPOS>MOLECULE
DEI
   13    12     1     0     0
SMALL
bcc


@<TRIPOS>ATOM
      1 CAA         3.1960    0.9740   -0.0000 c3        1 DEI     -0.052000
      2 SAF         2.1560   -0.4380    0.0000 ss        1 DEI     -0.243700
      3 CAE         0.6210    0.2800    0.0000 c2        1 DEI     -0.203400
      4 CAH        -0.5700   -0.3440    0.0000 ce        1 DEI      0.042900
      5 CAG        -1.9110    0.3940    0.0000 c         1 DEI      0.894800
      6 OAB        -2.9330   -0.3550   -0.0000 o         1 DEI     -0.819800
      7 OAC        -1.9260    1.6500    0.0000 o         1 DEI     -0.819800
      8 OAD        -0.6530   -1.7140   -0.0000 oh        1 DEI     -0.539100
      9 HAA         4.2430    0.5960   -0.0000 h1        1 DEI      0.047033
     10 HAAA        3.0360    1.6080   -0.9000 h1        1 DEI      0.047033
     11 HAAB        3.0360    1.6080    0.9000 h1        1 DEI      0.047033
     12 HAE         0.5850    1.3800    0.0000 h4        1 DEI      0.157000
     13 HOAD       -1.6060   -1.9330   -0.0000 ho        1 DEI      0.443000
@<TRIPOS>BOND
     1    1    2 1   
     2    1    9 1   
     3    1   10 1   
     4    1   11 1   
     5    2    3 1   
     6    3    4 2   
     7    3   12 1   
     8    4    5 1   
     9    4    8 1   
    10    5    6 1   
    11    5    7 1   
    12    8   13 1   
@<TRIPOS>SUBSTRUCTURE
     1 DEI         1 TEMP              0 ****  ****    0 ROOT
