@<TRIPOS>MOLECULE
DEL
   44    45     1     0     0
SMALL
bcc


@<TRIPOS>ATOM
      1 C1          0.7570    0.2020    0.7600 c3        1 DEL      0.312900
      2 C2          2.1390    0.8140    0.8600 c3        1 DEL      0.082100
      3 C3          2.6460    0.8390    2.2500 c3        1 DEL      0.153100
      4 C4          1.6820    1.4540    3.1850 c3        1 DEL     -0.111400
      5 C5          0.3010    0.8380    3.0770 c3        1 DEL      0.106100
      6 C6         -0.6400    1.6250    3.9050 c3        1 DEL      0.137400
      7 O1          0.2820    0.3800   -0.5430 os        1 DEL     -0.427600
      8 O2          3.0540    0.0440    0.0410 oh        1 DEL     -0.602800
      9 O3          3.8940    1.6030    2.2850 oh        1 DEL     -0.591800
     10 O5         -0.1950    0.8100    1.6960 os        1 DEL     -0.454600
     11 O6         -0.6030    1.1470    5.2530 oh        1 DEL     -0.595800
     12 C1'        -1.2990   -0.1520   -3.6430 c3        1 DEL      0.295900
     13 C2'        -1.9510    0.5320   -2.4780 c3        1 DEL      0.100100
     14 C3'        -1.9040   -0.2900   -1.2420 c3        1 DEL      0.101100
     15 C4'        -0.5240   -0.7610   -0.9310 c3        1 DEL      0.089100
     16 C5'         0.1330   -1.4440   -2.1160 c3        1 DEL      0.137100
     17 C6'        -0.5720   -2.7530   -2.3800 c3        1 DEL      0.100400
     18 O1'        -2.0740   -1.2300   -4.0200 oh        1 DEL     -0.649800
     19 O2'        -1.2630    1.8010   -2.2290 oh        1 DEL     -0.579800
     20 O3'        -2.7670   -1.4490   -1.4180 oh        1 DEL     -0.596800
     21 O5'         0.0810   -0.6340   -3.3250 os        1 DEL     -0.419600
     22 O6'         0.0070   -3.3810   -3.5140 oh        1 DEL     -0.593800
     23 H1          0.8180   -0.7550    0.9470 h2        1 DEL      0.053700
     24 H2          2.1050    1.7130    0.5270 h1        1 DEL      0.078700
     25 H3          2.8280   -0.0790    2.5390 h1        1 DEL      0.049700
     26 HC41        1.6170    2.4160    2.9870 hc        1 DEL      0.075200
     27 HC42        2.0080    1.3420    4.0920 hc        1 DEL      0.075200
     28 H5          0.3340   -0.0750    3.4200 h1        1 DEL      0.055700
     29 H61        -1.5470    1.5280    3.5490 h1        1 DEL      0.058700
     30 H62        -0.3820    2.5690    3.8860 h1        1 DEL      0.058700
     31 HO2         3.2880    0.5050   -0.6310 ho        1 DEL      0.423000
     32 HO3         4.5020    1.1550    2.7480 ho        1 DEL      0.421000
     33 HO6        -1.2740    1.5070    5.7150 ho        1 DEL      0.417000
     34 H1'        -1.2490    0.4780   -4.3920 h2        1 DEL      0.091700
     35 H2'        -2.8830    0.7140   -2.7000 h1        1 DEL      0.104700
     36 H3'        -2.2320    0.2390   -0.4990 h1        1 DEL      0.109700
     37 H4'        -0.5650   -1.4000   -0.1730 h1        1 DEL      0.075700
     38 H5'         1.0550   -1.6230   -1.9000 h1        1 DEL      0.093700
     39 H6'1       -1.5260   -2.5820   -2.5520 h1        1 DEL      0.037200
     40 H6'2       -0.4790   -3.3440   -1.5930 h1        1 DEL      0.037200
     41 HO1'       -2.3810   -1.1010   -4.8670 ho        1 DEL      0.444000
     42 HO2'       -1.8390    2.4860   -2.3540 ho        1 DEL      0.422000
     43 HO3'       -3.4220   -1.4160   -0.8400 ho        1 DEL      0.423000
     44 HO6'        0.0420   -4.2730   -3.3800 ho        1 DEL      0.405000
@<TRIPOS>BOND
     1    1    2 1   
     2    1    7 1   
     3    1   10 1   
     4    1   23 1   
     5    2    3 1   
     6    2    8 1   
     7    2   24 1   
     8    3    4 1   
     9    3    9 1   
    10    3   25 1   
    11    4    5 1   
    12    4   26 1   
    13    4   27 1   
    14    5    6 1   
    15    5   10 1   
    16    5   28 1   
    17    6   11 1   
    18    6   29 1   
    19    6   30 1   
    20    7   15 1   
    21    8   31 1   
    22    9   32 1   
    23   11   33 1   
    24   12   13 1   
    25   12   18 1   
    26   12   21 1   
    27   12   34 1   
    28   13   14 1   
    29   13   19 1   
    30   13   35 1   
    31   14   15 1   
    32   14   20 1   
    33   14   36 1   
    34   15   16 1   
    35   15   37 1   
    36   16   17 1   
    37   16   21 1   
    38   16   38 1   
    39   17   22 1   
    40   17   39 1   
    41   17   40 1   
    42   18   41 1   
    43   19   42 1   
    44   20   43 1   
    45   22   44 1   
@<TRIPOS>SUBSTRUCTURE
     1 DEL         1 TEMP              0 ****  ****    0 ROOT
