@<TRIPOS>MOLECULE
DEL
   44    45     1     0     0
SMALL
bcc


@<TRIPOS>ATOM
      1 C1         -0.2180   -0.3390   -1.3700 c3        1 DEL      0.348900
      2 C2         -1.2180    0.0750   -2.4720 c3        1 DEL      0.120100
      3 C3         -0.7210   -0.4240   -3.8420 c3        1 DEL      0.105100
      4 C4          0.7280   -0.0150   -4.0780 c3        1 DEL     -0.143400
      5 C5          1.5860   -0.4790   -2.9120 c3        1 DEL      0.105100
      6 C6          3.0320    0.0170   -3.0160 c3        1 DEL      0.145400
      7 O1         -0.4840    0.4580   -0.2350 os        1 DEL     -0.389600
      8 O2         -2.4490   -0.5460   -2.1440 oh        1 DEL     -0.602800
      9 O3         -1.5970    0.1600   -4.7960 oh        1 DEL     -0.604800
     10 O5          1.1040    0.0750   -1.6850 os        1 DEL     -0.425600
     11 O6          3.8070   -0.4700   -1.9430 oh        1 DEL     -0.604800
     12 C1'        -0.1180    0.3640    3.8580 c3        1 DEL      0.310900
     13 C2'         1.1460   -0.0970    3.1080 c3        1 DEL      0.048100
     14 C3'         1.0640    0.2710    1.6170 c3        1 DEL      0.133100
     15 C4'        -0.2800   -0.1870    1.0240 c3        1 DEL      0.121100
     16 C5'        -1.4600    0.2780    1.9050 c3        1 DEL      0.144100
     17 C6'        -2.7720   -0.3350    1.4100 c3        1 DEL      0.127400
     18 O1'        -0.1610   -0.1620    5.1570 oh        1 DEL     -0.597800
     19 O2'         2.2950    0.5560    3.6170 oh        1 DEL     -0.600800
     20 O3'         2.0870   -0.4130    0.9110 oh        1 DEL     -0.596800
     21 O5'        -1.2790   -0.1780    3.2460 os        1 DEL     -0.442600
     22 O6'        -3.8070    0.5600    1.7840 oh        1 DEL     -0.595800
     23 H1         -0.2620   -1.4440   -1.1710 h2        1 DEL      0.060700
     24 H2         -1.3350    1.1930   -2.4860 h1        1 DEL      0.082700
     25 H3         -0.8210   -1.5450   -3.8880 h1        1 DEL      0.048700
     26 HC41        0.7880    1.1000   -4.1770 hc        1 DEL      0.064700
     27 HC42        1.1040   -0.4700   -5.0290 hc        1 DEL      0.064700
     28 H5          1.5720   -1.6030   -2.8380 h1        1 DEL      0.053700
     29 H61         3.0490    1.1390   -3.0280 h1        1 DEL      0.052200
     30 H62         3.5120   -0.3900   -3.9430 h1        1 DEL      0.052200
     31 HO2        -3.0760   -0.2770   -2.8280 ho        1 DEL      0.424000
     32 HO3        -1.2580   -0.0710   -5.6690 ho        1 DEL      0.410000
     33 HO6         3.3300   -0.2620   -1.1250 ho        1 DEL      0.428000
     34 H1'        -0.1650    1.4840    3.9510 h2        1 DEL      0.088700
     35 H2'         1.2660   -1.2110    3.2190 h1        1 DEL      0.059700
     36 H3'         1.1840    1.3810    1.4840 h1        1 DEL      0.072700
     37 H4'        -0.2830   -1.3060    0.9240 h1        1 DEL      0.071700
     38 H5'        -1.5300    1.4010    1.8920 h1        1 DEL      0.084700
     39 H6'1       -2.7320   -0.4340    0.2890 h1        1 DEL      0.051200
     40 H6'2       -2.9370   -1.3390    1.8830 h1        1 DEL      0.051200
     41 HO1'       -0.5500   -1.0470    5.1130 ho        1 DEL      0.429000
     42 HO2'        2.2830    0.4280    4.5760 ho        1 DEL      0.423000
     43 HO3'        2.9230   -0.1160    1.2950 ho        1 DEL      0.420000
     44 HO6'       -4.6310    0.1670    1.4750 ho        1 DEL      0.404000
@<TRIPOS>BOND
     1    1    2 1   
     2    1    7 1   
     3    1   10 1   
     4    1   23 1   
     5    2    3 1   
     6    2    8 1   
     7    2   24 1   
     8    3    4 1   
     9    3    9 1   
    10    3   25 1   
    11    4    5 1   
    12    4   26 1   
    13    4   27 1   
    14    5    6 1   
    15    5   10 1   
    16    5   28 1   
    17    6   11 1   
    18    6   29 1   
    19    6   30 1   
    20    7   15 1   
    21    8   31 1   
    22    9   32 1   
    23   11   33 1   
    24   12   13 1   
    25   12   18 1   
    26   12   21 1   
    27   12   34 1   
    28   13   14 1   
    29   13   19 1   
    30   13   35 1   
    31   14   15 1   
    32   14   20 1   
    33   14   36 1   
    34   15   16 1   
    35   15   37 1   
    36   16   17 1   
    37   16   21 1   
    38   16   38 1   
    39   17   22 1   
    40   17   39 1   
    41   17   40 1   
    42   18   41 1   
    43   19   42 1   
    44   20   43 1   
    45   22   44 1   
@<TRIPOS>SUBSTRUCTURE
     1 DEL         1 TEMP              0 ****  ****    0 ROOT
