@<TRIPOS>MOLECULE
DEM
   37    36     1     0     0
SMALL
bcc


@<TRIPOS>ATOM
      1 CM         -6.0010    0.2840    3.1670 c3        1 DEM      0.321200
      2 C1         -4.0170    0.1980    1.8810 c3        1 DEM      0.130400
      3 C2         -2.5000    0.2720    1.9970 c3        1 DEM     -0.083400
      4 C3         -1.8800    0.0680    0.6350 c3        1 DEM     -0.078400
      5 C4         -0.3640    0.1950    0.7390 c3        1 DEM     -0.078400
      6 C5          0.2660   -0.0980   -0.6210 c3        1 DEM     -0.079400
      7 C6          1.7830    0.0600   -0.5260 c3        1 DEM     -0.079400
      8 C7          2.4170   -0.2950   -1.8630 c3        1 DEM     -0.079400
      9 C8          3.9130   -0.0980   -1.7800 c3        1 DEM     -0.079400
     10 C9          4.5440   -0.4870   -3.0880 c3        1 DEM     -0.080400
     11 C10         6.0520   -0.2790   -3.0060 c3        1 DEM     -0.092100
     12 O1         -4.5900    0.2840    3.1670 os        1 DEM     -0.461600
     13 O5         -6.4800    0.2840    4.5220 oh        1 DEM     -0.628800
     14 HCM1       -6.3270   -0.5130    2.7070 h2        1 DEM      0.060200
     15 HCM2       -6.3270    1.0810    2.7070 h2        1 DEM      0.060200
     16 HC11       -4.3380    0.9380    1.3320 h1        1 DEM      0.034700
     17 HC12       -4.2710   -0.6490    1.4680 h1        1 DEM      0.034700
     18 HC21       -2.1850   -0.4240    2.6040 hc        1 DEM      0.053200
     19 HC22       -2.2420    1.1470    2.3440 hc        1 DEM      0.053200
     20 HC31       -2.2210    0.7440    0.0180 hc        1 DEM      0.041200
     21 HC32       -2.1100   -0.8200    0.3020 hc        1 DEM      0.041200
     22 HC41       -0.0280   -0.4430    1.3980 hc        1 DEM      0.041700
     23 HC42       -0.1310    1.1010    1.0170 hc        1 DEM      0.041700
     24 HC51       -0.0860    0.5270   -1.2840 hc        1 DEM      0.039700
     25 HC52        0.0500   -1.0120   -0.8900 hc        1 DEM      0.039700
     26 HC61        2.1300   -0.5350    0.1660 hc        1 DEM      0.039700
     27 HC62        2.0000    0.9840   -0.2990 hc        1 DEM      0.039700
     28 HC71        2.0510    0.2820   -2.5600 hc        1 DEM      0.039700
     29 HC72        2.2230   -1.2270   -2.0780 hc        1 DEM      0.039700
     30 HC81        4.2760   -0.6560   -1.0650 hc        1 DEM      0.039700
     31 HC82        4.1080    0.8400   -1.5910 hc        1 DEM      0.039700
     32 HC91        4.3550   -1.4270   -3.2740 hc        1 DEM      0.038700
     33 HC92        4.1770    0.0660   -3.8040 hc        1 DEM      0.038700
     34 H101        6.4170   -0.8290   -2.2870 hc        1 DEM      0.032700
     35 H102        6.2410    0.6610   -2.8260 hc        1 DEM      0.032700
     36 H103        6.4620   -0.5370   -3.8540 hc        1 DEM      0.032700
     37 HO5        -7.3670    0.3130    4.5230 ho        1 DEM      0.415000
@<TRIPOS>BOND
     1    1   12 1   
     2    1   13 1   
     3    1   14 1   
     4    1   15 1   
     5    2    3 1   
     6    2   12 1   
     7    2   16 1   
     8    2   17 1   
     9    3    4 1   
    10    3   18 1   
    11    3   19 1   
    12    4    5 1   
    13    4   20 1   
    14    4   21 1   
    15    5    6 1   
    16    5   22 1   
    17    5   23 1   
    18    6    7 1   
    19    6   24 1   
    20    6   25 1   
    21    7    8 1   
    22    7   26 1   
    23    7   27 1   
    24    8    9 1   
    25    8   28 1   
    26    8   29 1   
    27    9   10 1   
    28    9   30 1   
    29    9   31 1   
    30   10   11 1   
    31   10   32 1   
    32   10   33 1   
    33   11   34 1   
    34   11   35 1   
    35   11   36 1   
    36   13   37 1   
@<TRIPOS>SUBSTRUCTURE
     1 DEM         1 TEMP              0 ****  ****    0 ROOT
