@<TRIPOS>MOLECULE
DEM
   37    36     1     0     0
SMALL
bcc


@<TRIPOS>ATOM
      1 CM         -0.0070    0.4080   -6.1090 c3        1 DEM      0.321200
      2 C1          0.2310    0.4940   -3.7430 c3        1 DEM      0.130400
      3 C2         -0.5190    0.0680   -2.4940 c3        1 DEM     -0.083400
      4 C3          0.2930    0.3870   -1.2580 c3        1 DEM     -0.078400
      5 C4         -0.4400   -0.0350   -0.0020 c3        1 DEM     -0.078400
      6 C5          0.3690    0.2830    1.2380 c3        1 DEM     -0.079400
      7 C6         -0.3630   -0.1390    2.4940 c3        1 DEM     -0.079400
      8 C7          0.4450    0.1790    3.7330 c3        1 DEM     -0.079400
      9 C8         -0.2870   -0.2430    4.9890 c3        1 DEM     -0.079400
     10 C9          0.5200    0.0740    6.2300 c3        1 DEM     -0.080400
     11 C10        -0.2050   -0.3440    7.4830 c3        1 DEM     -0.092100
     12 O1         -0.6090    0.1760   -4.8550 os        1 DEM     -0.461600
     13 O5          0.9460   -0.6060   -6.2890 oh        1 DEM     -0.628800
     14 HCM1       -0.8470    0.3500   -6.8530 h2        1 DEM      0.060200
     15 HCM2        0.5530    1.3780   -6.1640 h2        1 DEM      0.060200
     16 HC11        0.4290    1.5990   -3.7390 h1        1 DEM      0.034700
     17 HC12        1.2040   -0.0550   -3.8420 h1        1 DEM      0.034700
     18 HC21       -0.7320   -1.0310   -2.5460 hc        1 DEM      0.053200
     19 HC22       -1.5070    0.5960   -2.4560 hc        1 DEM      0.053200
     20 HC31        0.5050    1.4880   -1.2180 hc        1 DEM      0.041200
     21 HC32        1.2830   -0.1390   -1.3100 hc        1 DEM      0.041200
     22 HC41       -0.6510   -1.1360   -0.0420 hc        1 DEM      0.041700
     23 HC42       -1.4300    0.4910    0.0500 hc        1 DEM      0.041700
     24 HC51        0.5810    1.3840    1.2770 hc        1 DEM      0.039700
     25 HC52        1.3590   -0.2420    1.1850 hc        1 DEM      0.039700
     26 HC61       -0.5750   -1.2400    2.4540 hc        1 DEM      0.039700
     27 HC62       -1.3530    0.3870    2.5460 hc        1 DEM      0.039700
     28 HC71        0.6570    1.2800    3.7730 hc        1 DEM      0.039700
     29 HC72        1.4350   -0.3460    3.6810 hc        1 DEM      0.039700
     30 HC81       -0.4990   -1.3440    4.9500 hc        1 DEM      0.039700
     31 HC82       -1.2770    0.2820    5.0420 hc        1 DEM      0.039700
     32 HC91        0.7320    1.1750    6.2670 hc        1 DEM      0.038700
     33 HC92        1.5110   -0.4510    6.1750 hc        1 DEM      0.038700
     34 H101        0.4070   -0.1010    8.3850 hc        1 DEM      0.032700
     35 H102       -1.1830    0.1870    7.5680 hc        1 DEM      0.032700
     36 H103       -0.4030   -1.4430    7.4760 hc        1 DEM      0.032700
     37 HO5         0.5040   -1.4550   -6.1590 ho        1 DEM      0.415000
@<TRIPOS>BOND
     1    1   12 1   
     2    1   13 1   
     3    1   14 1   
     4    1   15 1   
     5    2    3 1   
     6    2   12 1   
     7    2   16 1   
     8    2   17 1   
     9    3    4 1   
    10    3   18 1   
    11    3   19 1   
    12    4    5 1   
    13    4   20 1   
    14    4   21 1   
    15    5    6 1   
    16    5   22 1   
    17    5   23 1   
    18    6    7 1   
    19    6   24 1   
    20    6   25 1   
    21    7    8 1   
    22    7   26 1   
    23    7   27 1   
    24    8    9 1   
    25    8   28 1   
    26    8   29 1   
    27    9   10 1   
    28    9   30 1   
    29    9   31 1   
    30   10   11 1   
    31   10   32 1   
    32   10   33 1   
    33   11   34 1   
    34   11   35 1   
    35   11   36 1   
    36   13   37 1   
@<TRIPOS>SUBSTRUCTURE
     1 DEM         1 TEMP              0 ****  ****    0 ROOT
