@<TRIPOS>MOLECULE
DEM
   37    36     1     0     0
SMALL
bcc


@<TRIPOS>ATOM
      1 CM         -0.0330    0.0990   -0.0300 c3        1 DEM      0.321200
      2 C1          1.7320   -1.4960   -0.0890 c3        1 DEM      0.130400
      3 C2          3.2490   -1.5350   -0.0770 c3        1 DEM     -0.083400
      4 C3          3.7390   -2.9660   -0.0560 c3        1 DEM     -0.078400
      5 C4          5.2520   -3.0240   -0.0400 c3        1 DEM     -0.078400
      6 C5          5.7460   -4.4550   -0.0190 c3        1 DEM     -0.079400
      7 C6          7.2580   -4.5130   -0.0040 c3        1 DEM     -0.079400
      8 C7          7.7530   -5.9430    0.0170 c3        1 DEM     -0.079400
      9 C8          9.2650   -6.0010    0.0330 c3        1 DEM     -0.079400
     10 C9          9.7620   -7.4320    0.0530 c3        1 DEM     -0.080400
     11 C10        11.2670   -7.4940    0.0690 c3        1 DEM     -0.092100
     12 O1          1.3580   -0.1170   -0.1270 os        1 DEM     -0.461600
     13 O5         -0.3850   -0.1610    1.3040 oh        1 DEM     -0.628800
     14 HCM1       -0.1830    1.1750   -0.3150 h2        1 DEM      0.060200
     15 HCM2       -0.6400   -0.6040   -0.6570 h2        1 DEM      0.060200
     16 HC11        1.3040   -1.9730    0.8310 h1        1 DEM      0.034700
     17 HC12        1.3220   -2.0110   -0.9980 h1        1 DEM      0.034700
     18 HC21        3.6280   -0.9830    0.8220 hc        1 DEM      0.053200
     19 HC22        3.6430   -1.0040   -0.9820 hc        1 DEM      0.053200
     20 HC31        3.3520   -3.5120   -0.9560 hc        1 DEM      0.041200
     21 HC32        3.3340   -3.4910    0.8500 hc        1 DEM      0.041200
     22 HC41        5.6570   -2.4990   -0.9450 hc        1 DEM      0.041700
     23 HC42        5.6400   -2.4790    0.8610 hc        1 DEM      0.041700
     24 HC51        5.3400   -4.9800    0.8850 hc        1 DEM      0.039700
     25 HC52        5.3580   -5.0000   -0.9200 hc        1 DEM      0.039700
     26 HC61        7.6460   -3.9670    0.8970 hc        1 DEM      0.039700
     27 HC62        7.6640   -3.9870   -0.9080 hc        1 DEM      0.039700
     28 HC71        7.3650   -6.4880   -0.8830 hc        1 DEM      0.039700
     29 HC72        7.3470   -6.4680    0.9210 hc        1 DEM      0.039700
     30 HC81        9.6720   -5.4760   -0.8720 hc        1 DEM      0.039700
     31 HC82        9.6540   -5.4560    0.9330 hc        1 DEM      0.039700
     32 HC91        9.3530   -7.9560    0.9580 hc        1 DEM      0.038700
     33 HC92        9.3710   -7.9750   -0.8470 hc        1 DEM      0.038700
     34 H101       11.6920   -6.9990   -0.8370 hc        1 DEM      0.032700
     35 H102       11.6110   -8.5570    0.0840 hc        1 DEM      0.032700
     36 H103       11.6740   -6.9790    0.9720 hc        1 DEM      0.032700
     37 HO5         0.1880    0.3710    1.8710 ho        1 DEM      0.415000
@<TRIPOS>BOND
     1    1   12 1   
     2    1   13 1   
     3    1   14 1   
     4    1   15 1   
     5    2    3 1   
     6    2   12 1   
     7    2   16 1   
     8    2   17 1   
     9    3    4 1   
    10    3   18 1   
    11    3   19 1   
    12    4    5 1   
    13    4   20 1   
    14    4   21 1   
    15    5    6 1   
    16    5   22 1   
    17    5   23 1   
    18    6    7 1   
    19    6   24 1   
    20    6   25 1   
    21    7    8 1   
    22    7   26 1   
    23    7   27 1   
    24    8    9 1   
    25    8   28 1   
    26    8   29 1   
    27    9   10 1   
    28    9   30 1   
    29    9   31 1   
    30   10   11 1   
    31   10   32 1   
    32   10   33 1   
    33   11   34 1   
    34   11   35 1   
    35   11   36 1   
    36   13   37 1   
@<TRIPOS>SUBSTRUCTURE
     1 DEM         1 TEMP              0 ****  ****    0 ROOT
