@<TRIPOS>MOLECULE
DEM
   37    36     1     0     0
SMALL
bcc


@<TRIPOS>ATOM
      1 CM         -0.0360    0.0930   -0.0400 c3        1 DEM      0.321200
      2 C1          1.7300   -1.5000   -0.0940 c3        1 DEM      0.130400
      3 C2          3.2470   -1.5380   -0.0800 c3        1 DEM     -0.083400
      4 C3          3.7390   -2.9680   -0.0560 c3        1 DEM     -0.078400
      5 C4          5.2510   -3.0250   -0.0400 c3        1 DEM     -0.078400
      6 C5          5.7470   -4.4550   -0.0170 c3        1 DEM     -0.079400
      7 C6          7.2590   -4.5110   -0.0010 c3        1 DEM     -0.079400
      8 C7          7.7550   -5.9410    0.0220 c3        1 DEM     -0.079400
      9 C8          9.2680   -5.9980    0.0370 c3        1 DEM     -0.079400
     10 C9          9.7650   -7.4270    0.0600 c3        1 DEM     -0.080400
     11 C10        11.2710   -7.4890    0.0740 c3        1 DEM     -0.092100
     12 O1          1.3540   -0.1210   -0.1340 os        1 DEM     -0.461600
     13 O5         -0.3910   -0.1650    1.2940 oh        1 DEM     -0.628800
     14 HCM1       -0.1880    1.1690   -0.3270 h2        1 DEM      0.060200
     15 HCM2       -0.6420   -0.6110   -0.6670 h2        1 DEM      0.060200
     16 HC11        1.3010   -1.9760    0.8260 h1        1 DEM      0.034700
     17 HC12        1.3210   -2.0170   -1.0030 h1        1 DEM      0.034700
     18 HC21        3.6240   -0.9840    0.8180 hc        1 DEM      0.053200
     19 HC22        3.6410   -1.0070   -0.9860 hc        1 DEM      0.053200
     20 HC31        3.3520   -3.5160   -0.9570 hc        1 DEM      0.041200
     21 HC32        3.3330   -3.4920    0.8490 hc        1 DEM      0.041200
     22 HC41        5.6570   -2.5000   -0.9450 hc        1 DEM      0.041700
     23 HC42        5.6380   -2.4770    0.8600 hc        1 DEM      0.041700
     24 HC51        5.3410   -4.9790    0.8890 hc        1 DEM      0.039700
     25 HC52        5.3590   -5.0020   -0.9160 hc        1 DEM      0.039700
     26 HC61        7.6470   -3.9640    0.8980 hc        1 DEM      0.039700
     27 HC62        7.6650   -3.9870   -0.9070 hc        1 DEM      0.039700
     28 HC71        7.3670   -6.4880   -0.8770 hc        1 DEM      0.039700
     29 HC72        7.3510   -6.4650    0.9280 hc        1 DEM      0.039700
     30 HC81        9.6730   -5.4740   -0.8690 hc        1 DEM      0.039700
     31 HC82        9.6560   -5.4500    0.9360 hc        1 DEM      0.039700
     32 HC91        9.3580   -7.9500    0.9660 hc        1 DEM      0.038700
     33 HC92        9.3740   -7.9740   -0.8390 hc        1 DEM      0.038700
     34 H101       11.6940   -6.9950   -0.8330 hc        1 DEM      0.032700
     35 H102       11.6160   -8.5510    0.0920 hc        1 DEM      0.032700
     36 H103       11.6780   -6.9710    0.9760 hc        1 DEM      0.032700
     37 HO5         0.1810    0.3680    1.8610 ho        1 DEM      0.415000
@<TRIPOS>BOND
     1    1   12 1   
     2    1   13 1   
     3    1   14 1   
     4    1   15 1   
     5    2    3 1   
     6    2   12 1   
     7    2   16 1   
     8    2   17 1   
     9    3    4 1   
    10    3   18 1   
    11    3   19 1   
    12    4    5 1   
    13    4   20 1   
    14    4   21 1   
    15    5    6 1   
    16    5   22 1   
    17    5   23 1   
    18    6    7 1   
    19    6   24 1   
    20    6   25 1   
    21    7    8 1   
    22    7   26 1   
    23    7   27 1   
    24    8    9 1   
    25    8   28 1   
    26    8   29 1   
    27    9   10 1   
    28    9   30 1   
    29    9   31 1   
    30   10   11 1   
    31   10   32 1   
    32   10   33 1   
    33   11   34 1   
    34   11   35 1   
    35   11   36 1   
    36   13   37 1   
@<TRIPOS>SUBSTRUCTURE
     1 DEM         1 TEMP              0 ****  ****    0 ROOT
