@<TRIPOS>MOLECULE
DEN
   17    18     1     0     0
SMALL
bcc


@<TRIPOS>ATOM
      1 C1         -0.0400   -0.0620   -0.0120 c3        1 DEN     -0.019900
      2 C2          1.4710   -0.0350    0.0110 c2        1 DEN     -0.173200
      3 C3          1.9360    0.0100    1.2860 ce        1 DEN     -0.117200
      4 C4          0.7500    0.0580    3.5990 ca        1 DEN     -0.107000
      5 C5         -0.5060    0.0540    4.2210 ca        1 DEN     -0.133000
      6 C6         -1.6780    0.0120    3.4690 ca        1 DEN     -0.129000
      7 C7         -1.6350   -0.0280    2.0680 ca        1 DEN     -0.115000
      8 C8         -0.4020   -0.0250    1.4450 ca        1 DEN     -0.094300
      9 C9          0.8010    0.0180    2.2160 ca        1 DEN     -0.071800
     10 H11        -0.4500    0.8250   -0.5590 hc        1 DEN      0.074700
     11 H12        -0.4180   -0.9920   -0.5050 hc        1 DEN      0.074700
     12 H2          2.0500   -0.0520   -0.9110 ha        1 DEN      0.142000
     13 H3          2.9730    0.0380    1.6200 ha        1 DEN      0.144000
     14 H4          1.6690    0.0910    4.1990 ha        1 DEN      0.134000
     15 H5         -0.5630    0.0850    5.3190 ha        1 DEN      0.130000
     16 H6         -2.6530    0.0100    3.9790 ha        1 DEN      0.130000
     17 H7         -2.5670   -0.0610    1.4860 ha        1 DEN      0.132000
@<TRIPOS>BOND
     1    1    2 1   
     2    1    8 1   
     3    1   10 1   
     4    1   11 1   
     5    2    3 2   
     6    2   12 1   
     7    3    9 1   
     8    3   13 1   
     9    4    5 ar  
    10    4    9 ar  
    11    4   14 1   
    12    5    6 ar  
    13    5   15 1   
    14    6    7 ar  
    15    6   16 1   
    16    7    8 ar  
    17    7   17 1   
    18    8    9 ar  
@<TRIPOS>SUBSTRUCTURE
     1 DEN         1 TEMP              0 ****  ****    0 ROOT
