@<TRIPOS>MOLECULE
DEN
   17    15     1     0     0
SMALL
bcc


@<TRIPOS>ATOM
      1 C1         -0.2280    0.0110   -2.0580 c3        1 DEN     -0.110000
      2 C2          1.1900    0.0110   -2.0580 c2        1 DEN     -0.169000
      3 C3          1.7390    0.0110   -0.8660 c1        1 DEN     -0.129000
      4 C4          0.8880    0.0110    1.6130 c1        1 DEN     -0.107000
      5 C5         -0.2830    0.0110    2.4010 c1        1 DEN     -0.131000
      6 C6         -1.5800    0.0110    1.7700 c1        1 DEN     -0.131000
      7 C7         -1.6830    0.0110    0.3570 c1        1 DEN     -0.115000
      8 C8         -0.5500    0.0110   -0.4110 c2        1 DEN     -0.087000
      9 C9          0.7930    0.0110    0.2420 c1        1 DEN     -0.060000
     10 H11        -0.5950    0.6520   -2.6970 hc        1 DEN      0.114000
     11 H12        -0.6040   -0.8240   -2.3960 hc        1 DEN      0.114000
     12 H2          1.6780    0.3770   -2.8200 ha        1 DEN      0.142000
     13 H3          2.6360   -0.3530   -0.7420 ha        1 DEN      0.144000
     14 H4          1.7650    0.0110    2.0410 ha        1 DEN      0.134000
     15 H5         -0.2150    0.0110    3.3750 ha        1 DEN      0.130000
     16 H6         -2.3880    0.0110    2.3170 ha        1 DEN      0.130000
     17 H7         -2.5610    0.0110   -0.0680 ha        1 DEN      0.132000
@<TRIPOS>BOND
     1    1    2 1   
     2    1    8 1   
     3    1   10 1   
     4    1   11 1   
     5    2    3 1   
     6    2   12 1   
     7    3   13 1   
     8    4    9 1   
     9    4   14 1   
    10    5    6 1   
    11    5   15 1   
    12    6   16 1   
    13    7    8 1   
    14    7   17 1   
    15    8    9 1   
@<TRIPOS>SUBSTRUCTURE
     1 DEN         1 TEMP              0 ****  ****    0 ROOT
