@<TRIPOS>MOLECULE
DEN
   17    18     1     0     0
SMALL
bcc


@<TRIPOS>ATOM
      1 C1          1.1900   -0.0000   -1.6480 c3        1 DEN     -0.019900
      2 C2         -0.0920   -0.0000   -2.4490 c2        1 DEN     -0.173200
      3 C3         -1.1750   -0.0000   -1.6310 ce        1 DEN     -0.117200
      4 C4         -1.4370    0.0000    0.9560 ca        1 DEN     -0.107000
      5 C5         -0.7200    0.0000    2.1600 ca        1 DEN     -0.133000
      6 C6          0.6720    0.0000    2.1660 ca        1 DEN     -0.129000
      7 C7          1.3990    0.0000    0.9660 ca        1 DEN     -0.115000
      8 C8          0.7020    0.0000   -0.2270 ca        1 DEN     -0.094300
      9 C9         -0.7280    0.0000   -0.2340 ca        1 DEN     -0.071800
     10 H11         1.8040   -0.9090   -1.8700 hc        1 DEN      0.074700
     11 H12         1.8040    0.9090   -1.8700 hc        1 DEN      0.074700
     12 H2         -0.0770   -0.0000   -3.5380 ha        1 DEN      0.142000
     13 H3         -2.2280   -0.0000   -1.9140 ha        1 DEN      0.144000
     14 H4         -2.5350    0.0000    0.9600 ha        1 DEN      0.134000
     15 H5         -1.2700    0.0000    3.1130 ha        1 DEN      0.130000
     16 H6          1.2140    0.0000    3.1230 ha        1 DEN      0.130000
     17 H7          2.4970    0.0000    0.9830 ha        1 DEN      0.132000
@<TRIPOS>BOND
     1    1    2 1   
     2    1    8 1   
     3    1   10 1   
     4    1   11 1   
     5    2    3 2   
     6    2   12 1   
     7    3    9 1   
     8    3   13 1   
     9    4    5 ar  
    10    4    9 ar  
    11    4   14 1   
    12    5    6 ar  
    13    5   15 1   
    14    6    7 ar  
    15    6   16 1   
    16    7    8 ar  
    17    7   17 1   
    18    8    9 ar  
@<TRIPOS>SUBSTRUCTURE
     1 DEN         1 TEMP              0 ****  ****    0 ROOT
