@<TRIPOS>MOLECULE
DEO
   59    62     1     0     0
SMALL
bcc


@<TRIPOS>ATOM
      1 N1          0.1060    0.3640   -0.3960 n         1 DEO     -0.494400
      2 C1          0.8380    1.2970    0.3820 c         1 DEO      0.715100
      3 C2          0.4160    1.0980    1.8140 ca        1 DEO     -0.137600
      4 C3         -0.5640    0.0690    1.8360 ca        1 DEO     -0.137600
      5 C4         -1.1430   -0.3380    3.0190 ca        1 DEO     -0.074500
      6 C5         -0.7330    0.3010    4.2040 ca        1 DEO     -0.130000
      7 C6          0.2260    1.3070    4.1830 ca        1 DEO     -0.130000
      8 C7          0.8190    1.7220    2.9750 ca        1 DEO     -0.074500
      9 C8         -0.7690   -0.3950    0.4190 c         1 DEO      0.715100
     10 O1         -1.5380   -1.2820    0.0380 o         1 DEO     -0.570000
     11 O2          1.6660    2.1130   -0.0310 o         1 DEO     -0.570000
     12 C9          0.1760    0.2540   -1.8360 c3        1 DEO      0.086000
     13 C10        -0.3370    1.4780   -2.5930 c3        1 DEO     -0.069400
     14 C11        -0.4100    1.1870   -4.0810 c3        1 DEO     -0.181700
     15 C12        -1.0550    2.3490   -4.8120 c3        1 DEO     -0.158400
     16 C13        -2.5340    2.4740   -4.6360 c         1 DEO      0.572700
     17 O3         -3.2600    1.5920   -4.1570 o         1 DEO     -0.551100
     18 C14        -3.1370    3.7590   -5.0900 ca        1 DEO     -0.159600
     19 C15        -4.4040    4.1240   -4.6170 ca        1 DEO     -0.089000
     20 C16        -4.9940    5.3190   -5.0190 ca        1 DEO     -0.140000
     21 C17        -4.3260    6.1740   -5.9080 cp        1 DEO     -0.031000
     22 C18        -3.0600    5.8050   -6.3840 ca        1 DEO     -0.140000
     23 C19        -2.4710    4.6100   -5.9790 ca        1 DEO     -0.089000
     24 C20        -4.9430    7.4280   -6.3320 cp        1 DEO     -0.059000
     25 C21        -4.1690    8.5940   -6.4630 ca        1 DEO     -0.087500
     26 C22        -4.7450    9.7910   -6.8650 ca        1 DEO     -0.183000
     27 C23        -6.1240    9.8320   -7.1470 ca        1 DEO      0.120100
     28 C24        -6.9090    8.6810   -7.0240 ca        1 DEO     -0.183000
     29 C25        -6.3120    7.4890   -6.6160 ca        1 DEO     -0.087500
     30 O4         -6.5960   11.0700   -7.5390 os        1 DEO     -0.334900
     31 C26        -7.9940   11.1370   -7.8460 c3        1 DEO      0.129400
     32 C27        -8.2650   12.5670   -8.2520 c3        1 DEO     -0.099100
     33 C28         0.9940    0.9130   -4.6920 c         1 DEO      0.915600
     34 O5          1.6320   -0.0910   -4.2680 o         1 DEO     -0.839800
     35 O6          1.4120    1.6860   -5.5990 o         1 DEO     -0.839800
     36 H4         -1.9010   -1.1330    3.0370 ha        1 DEO      0.152500
     37 H5         -1.1820   -0.0060    5.1600 ha        1 DEO      0.130000
     38 H6          0.5320    1.7920    5.1220 ha        1 DEO      0.130000
     39 H7          1.5780    2.5170    2.9600 ha        1 DEO      0.152500
     40 H91         1.2540    0.0760   -2.1360 h1        1 DEO      0.100200
     41 H92        -0.4260   -0.6520   -2.1330 h1        1 DEO      0.100200
     42 H101        0.3510    2.3440   -2.4070 hc        1 DEO      0.032200
     43 H102       -1.3600    1.7630   -2.2290 hc        1 DEO      0.032200
     44 H11        -1.0270    0.2610   -4.2420 hc        1 DEO      0.056700
     45 H121       -0.5590    3.3040   -4.4930 hc        1 DEO      0.083200
     46 H122       -0.8410    2.2240   -5.9130 hc        1 DEO      0.083200
     47 H15        -4.9290    3.4470   -3.9240 ha        1 DEO      0.155000
     48 H16        -5.9840    5.5990   -4.6310 ha        1 DEO      0.128500
     49 H18        -2.5300    6.4620   -7.0900 ha        1 DEO      0.128500
     50 H19        -1.4750    4.3360   -6.3650 ha        1 DEO      0.155000
     51 H21        -3.0910    8.5570   -6.2380 ha        1 DEO      0.139500
     52 H22        -4.1450   10.7050   -6.9670 ha        1 DEO      0.138500
     53 H24        -7.9850    8.6990   -7.2430 ha        1 DEO      0.138500
     54 H25        -6.9270    6.5800   -6.5230 ha        1 DEO      0.139500
     55 H261       -8.2270   10.4260   -8.6820 h1        1 DEO      0.036700
     56 H262       -8.5890   10.8540   -6.9380 h1        1 DEO      0.036700
     57 H271       -9.3470   12.6770   -8.5030 hc        1 DEO      0.046033
     58 H272       -8.0080   13.2640   -7.4200 hc        1 DEO      0.046033
     59 H273       -7.6520   12.8430   -9.1430 hc        1 DEO      0.046033
@<TRIPOS>BOND
     1    1    2 1   
     2    1    9 1   
     3    1   12 1   
     4    2    3 1   
     5    2   11 2   
     6    3    4 ar  
     7    3    8 ar  
     8    4    5 ar  
     9    4    9 1   
    10    5    6 ar  
    11    5   36 1   
    12    6    7 ar  
    13    6   37 1   
    14    7    8 ar  
    15    7   38 1   
    16    8   39 1   
    17    9   10 2   
    18   12   13 1   
    19   12   40 1   
    20   12   41 1   
    21   13   14 1   
    22   13   42 1   
    23   13   43 1   
    24   14   15 1   
    25   14   33 1   
    26   14   44 1   
    27   15   16 1   
    28   15   45 1   
    29   15   46 1   
    30   16   17 2   
    31   16   18 1   
    32   18   19 ar  
    33   18   23 ar  
    34   19   20 ar  
    35   19   47 1   
    36   20   21 ar  
    37   20   48 1   
    38   21   22 ar  
    39   21   24 1   
    40   22   23 ar  
    41   22   49 1   
    42   23   50 1   
    43   24   25 ar  
    44   24   29 ar  
    45   25   26 ar  
    46   25   51 1   
    47   26   27 ar  
    48   26   52 1   
    49   27   28 ar  
    50   27   30 1   
    51   28   29 ar  
    52   28   53 1   
    53   29   54 1   
    54   30   31 1   
    55   31   32 1   
    56   31   55 1   
    57   31   56 1   
    58   32   57 1   
    59   32   58 1   
    60   32   59 1   
    61   33   34 1   
    62   33   35 1   
@<TRIPOS>SUBSTRUCTURE
     1 DEO         1 TEMP              0 ****  ****    0 ROOT
