@<TRIPOS>MOLECULE
DEO
   59    62     1     0     0
SMALL
bcc


@<TRIPOS>ATOM
      1 N1          0.0620    0.3380   -0.3900 n         1 DEO     -0.494400
      2 C1          0.8260    1.2630    0.3650 c         1 DEO      0.715100
      3 C2          0.4220    1.0910    1.8060 ca        1 DEO     -0.137600
      4 C3         -0.5810    0.0840    1.8550 ca        1 DEO     -0.137600
      5 C4         -1.1510   -0.2940    3.0510 ca        1 DEO     -0.074500
      6 C5         -0.7080    0.3490    4.2220 ca        1 DEO     -0.130000
      7 C6          0.2730    1.3330    4.1740 ca        1 DEO     -0.130000
      8 C7          0.8560    1.7190    2.9530 ca        1 DEO     -0.074500
      9 C8         -0.8180   -0.3910    0.4470 c         1 DEO      0.715100
     10 O1         -1.6130   -1.2650    0.0890 o         1 DEO     -0.570000
     11 O2          1.6660    2.0540   -0.0700 o         1 DEO     -0.570000
     12 C9          0.1070    0.2080   -1.8300 c3        1 DEO      0.086000
     13 C10        -0.3900    1.4340   -2.5940 c3        1 DEO     -0.069400
     14 C11        -0.4920    1.1270   -4.0770 c3        1 DEO     -0.181700
     15 C12        -1.1210    2.2950   -4.8130 c3        1 DEO     -0.158400
     16 C13        -2.5940    2.4550   -4.6160 c         1 DEO      0.572700
     17 O3         -3.3330    1.5960   -4.1160 o         1 DEO     -0.551100
     18 C14        -3.1750    3.7490   -5.0770 ca        1 DEO     -0.159600
     19 C15        -4.4260    4.1490   -4.5890 ca        1 DEO     -0.089000
     20 C16        -4.9940    5.3520   -4.9970 ca        1 DEO     -0.140000
     21 C17        -4.3210    6.1800   -5.9060 cp        1 DEO     -0.031000
     22 C18        -3.0720    5.7770   -6.3960 ca        1 DEO     -0.140000
     23 C19        -2.5030    4.5740   -5.9860 ca        1 DEO     -0.089000
     24 C20        -4.9150    7.4440   -6.3370 cp        1 DEO     -0.059000
     25 C21        -4.1170    8.5890   -6.4930 ca        1 DEO     -0.087500
     26 C22        -4.6720    9.7940   -6.9010 ca        1 DEO     -0.183000
     27 C23        -6.0540    9.8640   -7.1630 ca        1 DEO      0.120100
     28 C24        -6.8630    8.7330   -7.0130 ca        1 DEO     -0.183000
     29 C25        -6.2870    7.5320   -6.6000 ca        1 DEO     -0.087500
     30 O4         -6.5040   11.1080   -7.5620 os        1 DEO     -0.334900
     31 C26        -7.9040   11.2030   -7.8490 c3        1 DEO      0.129400
     32 C27        -8.1490   12.6340   -8.2690 c3        1 DEO     -0.099100
     33 C28         0.8960    0.8140   -4.7050 c         1 DEO      0.915600
     34 O5          1.5180   -0.2000   -4.2790 o         1 DEO     -0.839800
     35 O6          1.3170    1.5660   -5.6280 o         1 DEO     -0.839800
     36 H4         -1.9270   -1.0720    3.0910 ha        1 DEO      0.152500
     37 H5         -1.1510    0.0640    5.1880 ha        1 DEO      0.130000
     38 H6          0.6040    1.8220    5.1020 ha        1 DEO      0.130000
     39 H7          1.6320    2.4970    2.9170 ha        1 DEO      0.152500
     40 H91         1.1760    0.0030   -2.1440 h1        1 DEO      0.100200
     41 H92        -0.5200   -0.6870   -2.1070 h1        1 DEO      0.100200
     42 H101        0.3200    2.2870   -2.4290 hc        1 DEO      0.032200
     43 H102       -1.4010    1.7470   -2.2180 hc        1 DEO      0.032200
     44 H11        -1.1320    0.2140   -4.2180 hc        1 DEO      0.056700
     45 H121       -0.9270    2.1520   -5.9150 hc        1 DEO      0.083200
     46 H122       -0.5990    3.2430   -4.5130 hc        1 DEO      0.083200
     47 H15        -4.9560    3.4910   -3.8810 ha        1 DEO      0.155000
     48 H16        -5.9730    5.6590   -4.5980 ha        1 DEO      0.128500
     49 H18        -2.5370    6.4130   -7.1180 ha        1 DEO      0.128500
     50 H19        -1.5190    4.2730   -6.3830 ha        1 DEO      0.155000
     51 H21        -3.0380    8.5300   -6.2830 ha        1 DEO      0.139500
     52 H22        -4.0530   10.6940   -7.0230 ha        1 DEO      0.138500
     53 H24        -7.9410    8.7730   -7.2160 ha        1 DEO      0.138500
     54 H25        -6.9220    6.6390   -6.4860 ha        1 DEO      0.139500
     55 H261       -8.4920   10.9450   -6.9290 h1        1 DEO      0.036700
     56 H262       -8.1660   10.4880   -8.6730 h1        1 DEO      0.036700
     57 H271       -7.5430   12.8840   -9.1720 hc        1 DEO      0.046033
     58 H272       -7.8630   13.3350   -7.4490 hc        1 DEO      0.046033
     59 H273       -9.2320   12.7660   -8.5050 hc        1 DEO      0.046033
@<TRIPOS>BOND
     1    1    2 1   
     2    1    9 1   
     3    1   12 1   
     4    2    3 1   
     5    2   11 2   
     6    3    4 ar  
     7    3    8 ar  
     8    4    5 ar  
     9    4    9 1   
    10    5    6 ar  
    11    5   36 1   
    12    6    7 ar  
    13    6   37 1   
    14    7    8 ar  
    15    7   38 1   
    16    8   39 1   
    17    9   10 2   
    18   12   13 1   
    19   12   40 1   
    20   12   41 1   
    21   13   14 1   
    22   13   42 1   
    23   13   43 1   
    24   14   15 1   
    25   14   33 1   
    26   14   44 1   
    27   15   16 1   
    28   15   45 1   
    29   15   46 1   
    30   16   17 2   
    31   16   18 1   
    32   18   19 ar  
    33   18   23 ar  
    34   19   20 ar  
    35   19   47 1   
    36   20   21 ar  
    37   20   48 1   
    38   21   22 ar  
    39   21   24 1   
    40   22   23 ar  
    41   22   49 1   
    42   23   50 1   
    43   24   25 ar  
    44   24   29 ar  
    45   25   26 ar  
    46   25   51 1   
    47   26   27 ar  
    48   26   52 1   
    49   27   28 ar  
    50   27   30 1   
    51   28   29 ar  
    52   28   53 1   
    53   29   54 1   
    54   30   31 1   
    55   31   32 1   
    56   31   55 1   
    57   31   56 1   
    58   32   57 1   
    59   32   58 1   
    60   32   59 1   
    61   33   34 1   
    62   33   35 1   
@<TRIPOS>SUBSTRUCTURE
     1 DEO         1 TEMP              0 ****  ****    0 ROOT
