@<TRIPOS>MOLECULE
DEO
   59    54     1     0     0
SMALL
bcc


@<TRIPOS>ATOM
      1 N1          2.9970   -4.4780    3.0750 n         1 DEO     -0.325000
      2 C1          2.3580   -4.3980    4.3550 c2        1 DEO      0.352000
      3 C2          3.4220   -4.5830    5.4260 c2        1 DEO     -0.117000
      4 C3          4.6370   -4.7560    4.7940 c2        1 DEO     -0.117000
      5 C4          5.8240   -4.9070    5.5630 c1        1 DEO     -0.073500
      6 C5          5.7600   -4.8800    6.9630 c1        1 DEO     -0.126250
      7 C6          4.5410   -4.7060    7.5980 c1        1 DEO     -0.126250
      8 C7          3.3590   -4.5560    6.8320 c1        1 DEO     -0.073500
      9 C8          4.3950   -4.7070    3.2890 c2        1 DEO      0.352000
     10 O1          5.2070   -4.8340    2.4560 o         1 DEO     -0.293500
     11 O2          1.1920   -4.2780    4.5460 o         1 DEO     -0.293500
     12 C9          2.3250   -4.4350    1.7850 c3        1 DEO     -0.030000
     13 C10         2.4120   -3.0690    1.2250 c3        1 DEO     -0.149000
     14 C11         1.5470   -2.9860   -0.0530 c3        1 DEO     -0.171000
     15 C12         1.0450   -1.6100   -0.2170 c3        1 DEO     -0.194000
     16 C13        -0.0010   -1.5680   -1.3790 c2        1 DEO      0.274000
     17 O3         -0.3370   -2.6650   -1.9930 o         1 DEO     -0.342000
     18 C14        -0.6820   -0.1940   -1.7790 c2        1 DEO     -0.149000
     19 C15        -1.8860    0.1670   -1.2140 c2        1 DEO     -0.089000
     20 C16        -2.5110    1.3420   -1.6050 c1        1 DEO     -0.156000
     21 C17        -1.9260    2.1520   -2.5610 c1        1 DEO     -0.041500
     22 C18        -0.7220    1.7910   -3.1280 c1        1 DEO     -0.114000
     23 C19        -0.0960    0.6180   -2.7380 c1        1 DEO     -0.082000
     24 C20        -2.5320    3.3190   -2.9280 c1        1 DEO     -0.041500
     25 C21        -2.2480    4.4880   -2.2460 c1        1 DEO     -0.126250
     26 C22        -2.9040    5.6680   -2.5860 c1        1 DEO     -0.126250
     27 C23        -3.8450    5.6710   -3.6130 c1        1 DEO      0.070000
     28 C24        -4.1270    4.4960   -4.2950 c1        1 DEO     -0.207000
     29 C25        -3.4730    3.3220   -3.9550 c1        1 DEO     -0.114000
     30 O4         -4.4380    6.9160   -4.0450 os        1 DEO     -0.219000
     31 C26        -5.6320    7.1650   -3.4820 c3        1 DEO     -0.021000
     32 C27        -6.1420    8.6050   -3.9200 c3        1 DEO     -0.217000
     33 C28         2.3860   -3.3670   -1.2500 c2        1 DEO      0.334000
     34 O5          2.1240   -4.3810   -1.8800 o         1 DEO     -0.570000
     35 O6          3.3250   -2.6010   -1.6380 o         1 DEO     -0.570000
     36 H4          6.6910   -5.0310    5.1110 ha        1 DEO      0.152500
     37 H5          6.5640   -4.9830    7.4830 ha        1 DEO      0.137500
     38 H6          4.4950   -4.6870    8.6300 ha        1 DEO      0.137500
     39 H7          2.5080   -4.4030    7.2770 ha        1 DEO      0.152500
     40 H91         2.7480   -5.0600    1.1780 h1        1 DEO      0.135500
     41 H92         1.4100   -4.6720    1.8980 h1        1 DEO      0.135500
     42 H101        3.4010   -2.8530    0.9890 hc        1 DEO      0.078500
     43 H102        2.0880   -2.4310    1.8780 hc        1 DEO      0.078500
     44 H11         0.8000   -3.5940    0.0240 hc        1 DEO      0.083000
     45 H121        0.6250   -1.3230    0.6010 hc        1 DEO      0.115500
     46 H122        1.8280   -0.9830   -0.4380 hc        1 DEO      0.115500
     47 H15        -2.2800   -0.3780   -0.5680 ha        1 DEO      0.144000
     48 H16        -3.3750    1.6240   -1.1640 ha        1 DEO      0.121000
     49 H18        -0.3160    2.3540   -3.7930 ha        1 DEO      0.137500
     50 H19         0.7380    0.3680   -3.1300 ha        1 DEO      0.224000
     51 H21        -1.6520    4.4680   -1.4770 ha        1 DEO      0.137500
     52 H22        -2.7020    6.5010   -2.1020 ha        1 DEO      0.137500
     53 H24        -4.7360    4.5040   -5.0100 ha        1 DEO      0.130000
     54 H25        -3.6780    2.4750   -4.4480 ha        1 DEO      0.137500
     55 H261       -6.2530    6.5140   -3.7630 h1        1 DEO      0.075000
     56 H262       -5.5440    7.1330   -2.5080 h1        1 DEO      0.075000
     57 H271       -6.1570    8.6670   -4.9260 hc        1 DEO      0.084333
     58 H272       -5.5450    9.2830   -3.5620 hc        1 DEO      0.084333
     59 H273       -7.0130    8.7450   -3.5820 hc        1 DEO      0.084333
@<TRIPOS>BOND
     1    1    2 1   
     2    1    9 1   
     3    1   12 1   
     4    2    3 1   
     5    2   11 1   
     6    3    4 1   
     7    3    8 1   
     8    4    5 1   
     9    4    9 1   
    10    5   36 1   
    11    6    7 1   
    12    6   37 1   
    13    7   38 1   
    14    8   39 1   
    15    9   10 1   
    16   12   13 1   
    17   12   40 1   
    18   12   41 1   
    19   13   14 1   
    20   13   42 1   
    21   13   43 1   
    22   14   15 1   
    23   14   33 1   
    24   14   44 1   
    25   15   16 1   
    26   15   45 1   
    27   15   46 1   
    28   16   17 1   
    29   16   18 1   
    30   18   19 1   
    31   18   23 1   
    32   19   20 1   
    33   19   47 1   
    34   20   48 1   
    35   21   22 1   
    36   22   49 1   
    37   23   50 1   
    38   24   29 1   
    39   25   26 1   
    40   25   51 1   
    41   26   52 1   
    42   27   28 1   
    43   27   30 1   
    44   28   53 1   
    45   29   54 1   
    46   30   31 1   
    47   31   32 1   
    48   31   55 1   
    49   31   56 1   
    50   32   57 1   
    51   32   58 1   
    52   32   59 1   
    53   33   34 1   
    54   33   35 1   
@<TRIPOS>SUBSTRUCTURE
     1 DEO         1 TEMP              0 ****  ****    0 ROOT
