@<TRIPOS>MOLECULE
DEO
   59    62     1     0     0
SMALL
bcc


@<TRIPOS>ATOM
      1 N1         -5.1760    0.1870   -0.1090 n         1 DEO     -0.494400
      2 C1         -5.3930   -1.0830   -0.7000 c         1 DEO      0.714600
      3 C2         -6.1670   -1.9030    0.2990 ca        1 DEO     -0.137600
      4 C3         -6.3660   -1.0990    1.4540 ca        1 DEO     -0.137600
      5 C4         -7.0480   -1.5840    2.5490 ca        1 DEO     -0.074500
      6 C5         -7.5400   -2.9010    2.4860 ca        1 DEO     -0.130000
      7 C6         -7.3460   -3.6870    1.3560 ca        1 DEO     -0.130000
      8 C7         -6.6490   -3.1920    0.2370 ca        1 DEO     -0.074500
      9 C8         -5.7240    0.2370    1.1960 c         1 DEO      0.714600
     10 O1         -5.6950    1.2020    1.9660 o         1 DEO     -0.570000
     11 O2         -5.0250   -1.4490   -1.8190 o         1 DEO     -0.570000
     12 C9         -4.4260    1.2650   -0.7170 c3        1 DEO      0.086000
     13 C10        -2.9420    0.9680   -0.9230 c3        1 DEO     -0.069400
     14 C11        -2.2110    2.2190   -1.3740 c3        1 DEO     -0.181700
     15 C12        -0.7170    1.9600   -1.4380 c3        1 DEO     -0.158400
     16 C13        -0.0260    1.8800   -0.1150 c         1 DEO      0.572700
     17 O3         -0.5240    2.2390    0.9600 o         1 DEO     -0.551100
     18 C14         1.3620    1.3350   -0.1390 ca        1 DEO     -0.159600
     19 C15         1.9300    0.8580    1.0500 ca        1 DEO     -0.089000
     20 C16         3.2210    0.3400    1.0610 ca        1 DEO     -0.140000
     21 C17         3.9750    0.2930   -0.1200 cp        1 DEO     -0.031000
     22 C18         3.4080    0.7750   -1.3080 ca        1 DEO     -0.140000
     23 C19         2.1140    1.2910   -1.3180 ca        1 DEO     -0.089000
     24 C20         5.3320   -0.2490   -0.1120 cp        1 DEO     -0.059000
     25 C21         5.7830   -1.0550   -1.1710 ca        1 DEO     -0.087500
     26 C22         7.0700   -1.5750   -1.1710 ca        1 DEO     -0.183000
     27 C23         7.9310   -1.2860   -0.0970 ca        1 DEO      0.120100
     28 C24         7.4990   -0.4840    0.9650 ca        1 DEO     -0.183000
     29 C25         6.2020    0.0270    0.9490 ca        1 DEO     -0.087500
     30 O4          9.1890   -1.8530   -0.1950 os        1 DEO     -0.334900
     31 C26        10.0900   -1.5620    0.8790 c3        1 DEO      0.129400
     32 C27        11.3820   -2.2730    0.5450 c3        1 DEO     -0.099100
     33 C28        -2.7040    2.7150   -2.7630 c         1 DEO      0.915600
     34 O5         -3.9100    3.0770   -2.8630 o         1 DEO     -0.839800
     35 O6         -1.8710    2.7610   -3.7120 o         1 DEO     -0.839800
     36 H4         -7.2040   -0.9640    3.4440 ha        1 DEO      0.152500
     37 H5         -8.0870   -3.3090    3.3490 ha        1 DEO      0.130000
     38 H6         -7.7390   -4.7140    1.3290 ha        1 DEO      0.130000
     39 H7         -6.4970   -3.8150   -0.6560 ha        1 DEO      0.152500
     40 H91        -4.5410    2.1690   -0.0540 h1        1 DEO      0.100200
     41 H92        -4.8850    1.5040   -1.7250 h1        1 DEO      0.100200
     42 H101       -2.8280    0.1610   -1.6940 hc        1 DEO      0.032200
     43 H102       -2.4790    0.6020    0.0320 hc        1 DEO      0.032200
     44 H11        -2.4110    3.0450   -0.6380 hc        1 DEO      0.056700
     45 H121       -0.2480    2.7980   -2.0300 hc        1 DEO      0.083200
     46 H122       -0.5330    1.0140   -2.0140 hc        1 DEO      0.083200
     47 H15         1.3370    0.9030    1.9780 ha        1 DEO      0.155000
     48 H16         3.6500   -0.0410    1.9990 ha        1 DEO      0.128500
     49 H18         3.9920    0.7530   -2.2410 ha        1 DEO      0.128500
     50 H19         1.6850    1.6670   -2.2620 ha        1 DEO      0.155000
     51 H21         5.1030   -1.2820   -2.0070 ha        1 DEO      0.139500
     52 H22         7.4270   -2.2090   -1.9950 ha        1 DEO      0.138500
     53 H24         8.1620   -0.2490    1.8080 ha        1 DEO      0.138500
     54 H25         5.8610    0.6630    1.7810 ha        1 DEO      0.139500
     55 H261        9.6570   -1.9410    1.8420 h1        1 DEO      0.036700
     56 H262       10.2440   -0.4530    0.9490 h1        1 DEO      0.036700
     57 H271       12.1250   -2.0800    1.3540 hc        1 DEO      0.046033
     58 H272       11.2110   -3.3720    0.4560 hc        1 DEO      0.046033
     59 H273       11.7900   -1.9020   -0.4250 hc        1 DEO      0.046033
@<TRIPOS>BOND
     1    1    2 1   
     2    1    9 1   
     3    1   12 1   
     4    2    3 1   
     5    2   11 2   
     6    3    4 ar  
     7    3    8 ar  
     8    4    5 ar  
     9    4    9 1   
    10    5    6 ar  
    11    5   36 1   
    12    6    7 ar  
    13    6   37 1   
    14    7    8 ar  
    15    7   38 1   
    16    8   39 1   
    17    9   10 2   
    18   12   13 1   
    19   12   40 1   
    20   12   41 1   
    21   13   14 1   
    22   13   42 1   
    23   13   43 1   
    24   14   15 1   
    25   14   33 1   
    26   14   44 1   
    27   15   16 1   
    28   15   45 1   
    29   15   46 1   
    30   16   17 2   
    31   16   18 1   
    32   18   19 ar  
    33   18   23 ar  
    34   19   20 ar  
    35   19   47 1   
    36   20   21 ar  
    37   20   48 1   
    38   21   22 ar  
    39   21   24 1   
    40   22   23 ar  
    41   22   49 1   
    42   23   50 1   
    43   24   25 ar  
    44   24   29 ar  
    45   25   26 ar  
    46   25   51 1   
    47   26   27 ar  
    48   26   52 1   
    49   27   28 ar  
    50   27   30 1   
    51   28   29 ar  
    52   28   53 1   
    53   29   54 1   
    54   30   31 1   
    55   31   32 1   
    56   31   55 1   
    57   31   56 1   
    58   32   57 1   
    59   32   58 1   
    60   32   59 1   
    61   33   34 1   
    62   33   35 1   
@<TRIPOS>SUBSTRUCTURE
     1 DEO         1 TEMP              0 ****  ****    0 ROOT
