@<TRIPOS>MOLECULE
DEO
   59    62     1     0     0
SMALL
bcc


@<TRIPOS>ATOM
      1 N1          0.0870    0.3390   -0.4080 n         1 DEO     -0.494400
      2 C1          0.8240    1.2650    0.3720 c         1 DEO      0.715600
      3 C2          0.4030    1.0620    1.8040 ca        1 DEO     -0.137600
      4 C3         -0.5820    0.0380    1.8230 ca        1 DEO     -0.137600
      5 C4         -1.1620   -0.3700    3.0050 ca        1 DEO     -0.074500
      6 C5         -0.7470    0.2620    4.1920 ca        1 DEO     -0.130000
      7 C6          0.2170    1.2630    4.1740 ca        1 DEO     -0.130000
      8 C7          0.8100    1.6790    2.9670 ca        1 DEO     -0.074500
      9 C8         -0.7910   -0.4190    0.4050 c         1 DEO      0.715600
     10 O1         -1.5660   -1.3010    0.0220 o         1 DEO     -0.570000
     11 O2          1.6550    2.0780   -0.0380 o         1 DEO     -0.570000
     12 C9          0.1540    0.2330   -1.8490 c3        1 DEO      0.086000
     13 C10        -0.3530    1.4620   -2.6010 c3        1 DEO     -0.069400
     14 C11        -0.4290    1.1770   -4.0900 c3        1 DEO     -0.181700
     15 C12        -1.0680    2.3450   -4.8160 c3        1 DEO     -0.158400
     16 C13        -2.5460    2.4780   -4.6380 c         1 DEO      0.572700
     17 O3         -3.2770    1.5990   -4.1600 o         1 DEO     -0.551100
     18 C14        -3.1420    3.7680   -5.0890 ca        1 DEO     -0.159600
     19 C15        -4.4080    4.1380   -4.6160 ca        1 DEO     -0.089000
     20 C16        -4.9910    5.3370   -5.0150 ca        1 DEO     -0.140000
     21 C17        -4.3190    6.1910   -5.9020 cp        1 DEO     -0.031000
     22 C18        -3.0550    5.8170   -6.3780 ca        1 DEO     -0.140000
     23 C19        -2.4710    4.6170   -5.9760 ca        1 DEO     -0.089000
     24 C20        -4.9290    7.4490   -6.3240 cp        1 DEO     -0.059000
     25 C21        -4.1490    8.6110   -6.4520 ca        1 DEO     -0.087500
     26 C22        -4.7190    9.8120   -6.8510 ca        1 DEO     -0.183000
     27 C23        -6.0970    9.8610   -7.1330 ca        1 DEO      0.120100
     28 C24        -6.8880    8.7130   -7.0120 ca        1 DEO     -0.183000
     29 C25        -6.2980    7.5170   -6.6070 ca        1 DEO     -0.087500
     30 O4         -6.5630   11.1030   -7.5220 os        1 DEO     -0.334900
     31 C26        -7.9600   11.1770   -7.8290 c3        1 DEO      0.129400
     32 C27        -8.2250   12.6090   -8.2320 c3        1 DEO     -0.099100
     33 C28         0.9720    0.8970   -4.7030 c         1 DEO      0.915600
     34 O5          1.6050   -0.1120   -4.2840 o         1 DEO     -0.839800
     35 O6          1.3940    1.6710   -5.6080 o         1 DEO     -0.839800
     36 H4         -1.9240   -1.1620    3.0220 ha        1 DEO      0.152500
     37 H5         -1.1970   -0.0470    5.1470 ha        1 DEO      0.130000
     38 H6          0.5260    1.7430    5.1140 ha        1 DEO      0.130000
     39 H7          1.5730    2.4710    2.9540 ha        1 DEO      0.152500
     40 H91         1.2310    0.0510   -2.1510 h1        1 DEO      0.100200
     41 H92        -0.4530   -0.6680   -2.1480 h1        1 DEO      0.100200
     42 H101       -1.3740    1.7520   -2.2350 hc        1 DEO      0.032200
     43 H102        0.3400    2.3240   -2.4130 hc        1 DEO      0.032200
     44 H11        -1.0520    0.2560   -4.2540 hc        1 DEO      0.056700
     45 H121       -0.5660    3.2970   -4.4940 hc        1 DEO      0.083200
     46 H122       -0.8560    2.2230   -5.9180 hc        1 DEO      0.083200
     47 H15        -4.9370    3.4620   -3.9250 ha        1 DEO      0.155000
     48 H16        -5.9800    5.6210   -4.6270 ha        1 DEO      0.128500
     49 H18        -2.5210    6.4720   -7.0820 ha        1 DEO      0.128500
     50 H19        -1.4760    4.3400   -6.3620 ha        1 DEO      0.155000
     51 H21        -3.0720    8.5680   -6.2250 ha        1 DEO      0.139500
     52 H22        -4.1140   10.7240   -6.9500 ha        1 DEO      0.138500
     53 H24        -7.9640    8.7370   -7.2320 ha        1 DEO      0.138500
     54 H25        -6.9180    6.6120   -6.5170 ha        1 DEO      0.139500
     55 H261       -8.5570   10.8940   -6.9220 h1        1 DEO      0.036700
     56 H262       -8.1970   10.4700   -8.6680 h1        1 DEO      0.036700
     57 H271       -7.9640   13.3030   -7.3980 hc        1 DEO      0.046033
     58 H272       -7.6090   12.8840   -9.1220 hc        1 DEO      0.046033
     59 H273       -9.3060   12.7250   -8.4830 hc        1 DEO      0.046033
@<TRIPOS>BOND
     1    1    2 1   
     2    1    9 1   
     3    1   12 1   
     4    2    3 1   
     5    2   11 2   
     6    3    4 ar  
     7    3    8 ar  
     8    4    5 ar  
     9    4    9 1   
    10    5    6 ar  
    11    5   36 1   
    12    6    7 ar  
    13    6   37 1   
    14    7    8 ar  
    15    7   38 1   
    16    8   39 1   
    17    9   10 2   
    18   12   13 1   
    19   12   40 1   
    20   12   41 1   
    21   13   14 1   
    22   13   42 1   
    23   13   43 1   
    24   14   15 1   
    25   14   33 1   
    26   14   44 1   
    27   15   16 1   
    28   15   45 1   
    29   15   46 1   
    30   16   17 2   
    31   16   18 1   
    32   18   19 ar  
    33   18   23 ar  
    34   19   20 ar  
    35   19   47 1   
    36   20   21 ar  
    37   20   48 1   
    38   21   22 ar  
    39   21   24 1   
    40   22   23 ar  
    41   22   49 1   
    42   23   50 1   
    43   24   25 ar  
    44   24   29 ar  
    45   25   26 ar  
    46   25   51 1   
    47   26   27 ar  
    48   26   52 1   
    49   27   28 ar  
    50   27   30 1   
    51   28   29 ar  
    52   28   53 1   
    53   29   54 1   
    54   30   31 1   
    55   31   32 1   
    56   31   55 1   
    57   31   56 1   
    58   32   57 1   
    59   32   58 1   
    60   32   59 1   
    61   33   34 1   
    62   33   35 1   
@<TRIPOS>SUBSTRUCTURE
     1 DEO         1 TEMP              0 ****  ****    0 ROOT
