@<TRIPOS>MOLECULE
DEP
   19    18     1     0     0
SMALL
bcc


@<TRIPOS>ATOM
      1 C1         -0.1900    0.0970   -0.1720 c3        1 DEP      0.171400
      2 C2          1.2750    0.1050    0.2050 c3        1 DEP     -0.120600
      3 C3         -0.9020    1.1980    3.6760 c3        1 DEP      0.171400
      4 C4         -1.7060    1.5180    4.9180 c3        1 DEP     -0.120600
      5 O1         -0.9460    0.8250    0.7760 os        1 DEP     -0.586200
      6 O2         -1.3500   -0.0070    3.0950 os        1 DEP     -0.586200
      7 O3         -2.4050   -1.2580    1.1190 o         1 DEP     -0.795300
      8 P          -2.0450    0.0450    1.6490 p5        1 DEP      1.502500
      9 H11        -0.3280    0.6190   -1.1610 h1        1 DEP      0.052200
     10 H12        -0.5900   -0.9540   -0.2430 h1        1 DEP      0.052200
     11 H21         1.8670   -0.3590   -0.6190 hc        1 DEP      0.047533
     12 H22         1.6280    1.1520    0.3630 hc        1 DEP      0.047533
     13 H23         1.4540   -0.4720    1.1440 hc        1 DEP      0.047533
     14 H31         0.1790    1.0420    3.9540 h1        1 DEP      0.052200
     15 H32        -0.9710    2.0290    2.9210 h1        1 DEP      0.052200
     16 H41        -1.2290    2.3720    5.4560 hc        1 DEP      0.047533
     17 H42        -1.7340    0.6300    5.5950 hc        1 DEP      0.047533
     18 H43        -2.7560    1.7970    4.6620 hc        1 DEP      0.047533
     19 HP1        -2.9540    0.9440    1.7770 hp        1 DEP     -0.131400
@<TRIPOS>BOND
     1    1    2 1   
     2    1    5 1   
     3    1    9 1   
     4    1   10 1   
     5    2   11 1   
     6    2   12 1   
     7    2   13 1   
     8    3    4 1   
     9    3    6 1   
    10    3   14 1   
    11    3   15 1   
    12    4   16 1   
    13    4   17 1   
    14    4   18 1   
    15    5    8 1   
    16    6    8 1   
    17    7    8 2   
    18    8   19 1   
@<TRIPOS>SUBSTRUCTURE
     1 DEP         1 TEMP              0 ****  ****    0 ROOT
