@<TRIPOS>MOLECULE
DEP
   19    18     1     0     0
SMALL
bcc


@<TRIPOS>ATOM
      1 C1         -0.2230    0.1040   -0.1810 c3        1 DEP      0.171400
      2 C2          1.2460    0.0800    0.1810 c3        1 DEP     -0.120600
      3 C3         -0.8740    1.1890    3.6820 c3        1 DEP      0.171400
      4 C4         -1.6580    1.5140    4.9360 c3        1 DEP     -0.120600
      5 O1         -0.9540    0.8390    0.7800 os        1 DEP     -0.586200
      6 O2         -1.3510   -0.0030    3.0960 os        1 DEP     -0.586200
      7 O3         -2.4520   -1.2160    1.1220 o         1 DEP     -0.795300
      8 P          -2.0610    0.0760    1.6580 p5        1 DEP      1.502500
      9 H11        -0.3610    0.6360   -1.1650 h1        1 DEP      0.051950
     10 H12        -0.6440   -0.9380   -0.2560 h1        1 DEP      0.051950
     11 H21         1.6210    1.1190    0.3420 hc        1 DEP      0.047533
     12 H22         1.8200   -0.3900   -0.6520 hc        1 DEP      0.047533
     13 H23         1.4230   -0.5060    1.1140 hc        1 DEP      0.047533
     14 H31         0.2070    1.0090    3.9470 h1        1 DEP      0.051950
     15 H32        -0.9340    2.0270    2.9340 h1        1 DEP      0.051950
     16 H41        -1.1590    2.3540    5.4740 hc        1 DEP      0.047533
     17 H42        -2.7050    1.8150    4.6930 hc        1 DEP      0.047533
     18 H43        -1.6960    0.6210    5.6050 hc        1 DEP      0.047533
     19 HP1        -2.9490    0.9920    1.8020 hp        1 DEP     -0.131400
@<TRIPOS>BOND
     1    1    2 1   
     2    1    5 1   
     3    1    9 1   
     4    1   10 1   
     5    2   11 1   
     6    2   12 1   
     7    2   13 1   
     8    3    4 1   
     9    3    6 1   
    10    3   14 1   
    11    3   15 1   
    12    4   16 1   
    13    4   17 1   
    14    4   18 1   
    15    5    8 1   
    16    6    8 1   
    17    7    8 2   
    18    8   19 1   
@<TRIPOS>SUBSTRUCTURE
     1 DEP         1 TEMP              0 ****  ****    0 ROOT
