@<TRIPOS>MOLECULE
DEP
   19    18     1     0     0
SMALL
bcc


@<TRIPOS>ATOM
      1 C1          1.5940   -0.5370   -1.8520 c3        1 DEP      0.163400
      2 C2          3.1070   -0.5300   -1.8860 c3        1 DEP     -0.096100
      3 C3         -2.0200    0.6580    1.3060 c3        1 DEP      0.163400
      4 C4         -2.1880    1.1290    2.7340 c3        1 DEP     -0.096100
      5 O1          1.1540   -0.4770   -0.5160 os        1 DEP     -0.575200
      6 O2         -0.7380    0.0980    1.1440 os        1 DEP     -0.575200
      7 O3         -0.7640   -2.0740   -0.1410 o         1 DEP     -0.823300
      8 P          -0.3940   -0.6120   -0.2260 p5        1 DEP      1.470500
      9 H11         1.2530    0.2390   -2.3440 h1        1 DEP      0.042700
     10 H12         1.2620   -1.3590   -2.2690 h1        1 DEP      0.042700
     11 H21         3.4150   -0.7810   -2.7820 hc        1 DEP      0.047700
     12 H22         3.4510   -1.1720   -1.2300 hc        1 DEP      0.047700
     13 H23         3.4340    0.3680   -1.6670 hc        1 DEP      0.047700
     14 H31        -2.1240    1.4190    0.6970 h1        1 DEP      0.042700
     15 H32        -2.6990   -0.0180    1.1030 h1        1 DEP      0.042700
     16 H41        -1.6340    1.9240    2.8830 hc        1 DEP      0.047700
     17 H42        -3.1280    1.3500    2.8970 hc        1 DEP      0.047700
     18 H43        -1.9090    0.4170    3.3470 hc        1 DEP      0.047700
     19 HP1        -1.0750   -0.0420   -1.2000 hp        1 DEP     -0.088400
@<TRIPOS>BOND
     1    1    2 1   
     2    1    5 1   
     3    1    9 1   
     4    1   10 1   
     5    2   11 1   
     6    2   12 1   
     7    2   13 1   
     8    3    4 1   
     9    3    6 1   
    10    3   14 1   
    11    3   15 1   
    12    4   16 1   
    13    4   17 1   
    14    4   18 1   
    15    5    8 1   
    16    6    8 1   
    17    7    8 2   
    18    8   19 1   
@<TRIPOS>SUBSTRUCTURE
     1 DEP         1 TEMP              0 ****  ****    0 ROOT
