@<TRIPOS>MOLECULE
DEP
   19    18     1     0     0
SMALL
bcc


@<TRIPOS>ATOM
      1 C1          0.4850   -1.0400   -0.5740 c3        1 DEP      0.171400
      2 C2          0.1570    0.2490    0.1470 c3        1 DEP     -0.120600
      3 C3          4.0450    0.6990   -1.4860 c3        1 DEP      0.171400
      4 C4          5.4010    0.8610   -2.1380 c3        1 DEP     -0.120600
      5 O1          1.8790   -1.1390   -0.7940 os        1 DEP     -0.586200
      6 O2          3.0830    0.3010   -2.4380 os        1 DEP     -0.586200
      7 O3          1.3990   -1.4330   -3.2980 o         1 DEP     -0.795300
      8 P           2.4220   -1.1560   -2.3050 p5        1 DEP      1.502500
      9 H11        -0.0560   -1.1090   -1.5590 h1        1 DEP      0.052200
     10 H12         0.2000   -1.9180    0.0730 h1        1 DEP      0.052200
     11 H21        -0.9240    0.2460    0.4260 hc        1 DEP      0.047533
     12 H22         0.7730    0.3420    1.0730 hc        1 DEP      0.047533
     13 H23         0.3580    1.1360   -0.4990 hc        1 DEP      0.047533
     14 H31         3.7010    1.6900   -1.0740 h1        1 DEP      0.052200
     15 H32         4.0800   -0.0530   -0.6500 h1        1 DEP      0.052200
     16 H41         6.1020    1.3400   -1.4130 hc        1 DEP      0.047533
     17 H42         5.8230   -0.1240   -2.4470 hc        1 DEP      0.047533
     18 H43         5.3150    1.5070   -3.0440 hc        1 DEP      0.047533
     19 HP1         3.4310   -1.9440   -2.2050 hp        1 DEP     -0.131400
@<TRIPOS>BOND
     1    1    2 1   
     2    1    5 1   
     3    1    9 1   
     4    1   10 1   
     5    2   11 1   
     6    2   12 1   
     7    2   13 1   
     8    3    4 1   
     9    3    6 1   
    10    3   14 1   
    11    3   15 1   
    12    4   16 1   
    13    4   17 1   
    14    4   18 1   
    15    5    8 1   
    16    6    8 1   
    17    7    8 2   
    18    8   19 1   
@<TRIPOS>SUBSTRUCTURE
     1 DEP         1 TEMP              0 ****  ****    0 ROOT
