@<TRIPOS>MOLECULE
DEQ
   74    77     1     0     0
SMALL
bcc


@<TRIPOS>ATOM
      1 C1          6.9380   -1.7660   -0.4280 ca        1 DEQ     -0.169000
      2 C2          7.6490   -2.9290   -0.2180 ca        1 DEQ     -0.043000
      3 C3          8.9910   -2.8830    0.1970 ca        1 DEQ     -0.121000
      4 C4          9.6010   -1.6650    0.4080 ca        1 DEQ     -0.074000
      5 C5          7.5500   -0.4930   -0.2380 ca        1 DEQ      0.075700
      6 C6          8.9060   -0.4490    0.2050 ca        1 DEQ     -0.136000
      7 C7          9.5290    0.8420    0.4460 ca        1 DEQ      0.335600
      8 C8          8.7200    1.9970    0.2630 ca        1 DEQ     -0.311000
      9 C9          7.4070    1.9050   -0.1880 ca        1 DEQ      0.128400
     10 N1          6.8360    0.6910   -0.4810 na        1 DEQ     -0.061100
     11 C10        -8.9060    0.4490   -0.2040 ca        1 DEQ     -0.136000
     12 C11        -7.5490    0.4930    0.2390 ca        1 DEQ      0.075700
     13 N2         -6.8350   -0.6920    0.4800 na        1 DEQ     -0.061100
     14 C12        -7.4060   -1.9050    0.1840 ca        1 DEQ      0.128400
     15 C13        -8.7200   -1.9970   -0.2670 ca        1 DEQ     -0.311000
     16 C14        -9.5280   -0.8420   -0.4470 ca        1 DEQ      0.335600
     17 C15        -9.6010    1.6650   -0.4050 ca        1 DEQ     -0.074000
     18 C16        -8.9920    2.8830   -0.1920 ca        1 DEQ     -0.121000
     19 C17        -7.6490    2.9290    0.2230 ca        1 DEQ     -0.043000
     20 C18        -6.9380    1.7650    0.4300 ca        1 DEQ     -0.169000
     21 C19        -5.4910   -0.6300    1.0530 c3        1 DEQ      0.003300
     22 C20        -4.3720   -0.4190    0.0340 c3        1 DEQ     -0.102400
     23 C21        -3.0400   -0.3470    0.7540 c3        1 DEQ     -0.081400
     24 C22        -1.9020   -0.1590   -0.2280 c3        1 DEQ     -0.078400
     25 C23        -0.5700   -0.0920    0.4890 c3        1 DEQ     -0.079400
     26 C24         0.5700    0.0920   -0.4910 c3        1 DEQ     -0.079400
     27 C25         1.9030    0.1600    0.2270 c3        1 DEQ     -0.078400
     28 C26         3.0410    0.3470   -0.7550 c3        1 DEQ     -0.081400
     29 C27         4.3720    0.4190   -0.0350 c3        1 DEQ     -0.102400
     30 C28         5.4920    0.6290   -1.0540 c3        1 DEQ      0.003300
     31 C30         6.6390    3.1780   -0.3640 c3        1 DEQ     -0.092800
     32 C29        -6.6380   -3.1780    0.3590 c3        1 DEQ     -0.092800
     33 N4         10.8140    0.9680    0.8320 nh        1 DEQ     -0.795200
     34 N3        -10.8130   -0.9670   -0.8330 nh        1 DEQ     -0.795200
     35 H11         5.8810   -1.8430   -0.7310 ha        1 DEQ      0.160000
     36 H21         7.1610   -3.9070   -0.3730 ha        1 DEQ      0.168000
     37 H31         9.5470   -3.8220    0.3550 ha        1 DEQ      0.172000
     38 H41        10.6500   -1.6630    0.7450 ha        1 DEQ      0.149000
     39 H81         9.1320    2.9980    0.4720 ha        1 DEQ      0.182000
     40 H131       -9.1310   -2.9980   -0.4780 ha        1 DEQ      0.182000
     41 H151      -10.6500    1.6640   -0.7420 ha        1 DEQ      0.149000
     42 H161       -9.5480    3.8230   -0.3490 ha        1 DEQ      0.172000
     43 H171       -7.1620    3.9060    0.3800 ha        1 DEQ      0.168000
     44 H181       -5.8810    1.8420    0.7340 ha        1 DEQ      0.160000
     45 H191       -5.2990   -1.5880    1.6180 h1        1 DEQ      0.084700
     46 H192       -5.4730    0.1990    1.8190 h1        1 DEQ      0.084700
     47 H201       -4.5420    0.5280   -0.5440 hc        1 DEQ      0.061200
     48 H202       -4.3570   -1.2630   -0.7050 hc        1 DEQ      0.061200
     49 H211       -2.8760   -1.2880    1.3430 hc        1 DEQ      0.049700
     50 H212       -3.0500    0.5050    1.4850 hc        1 DEQ      0.049700
     51 H221       -2.0620    0.7840   -0.8150 hc        1 DEQ      0.047700
     52 H222       -1.8930   -1.0080   -0.9610 hc        1 DEQ      0.047700
     53 H231       -0.4110   -1.0330    1.0780 hc        1 DEQ      0.045700
     54 H232       -0.5780    0.7590    1.2200 hc        1 DEQ      0.045700
     55 H241        0.4120    1.0340   -1.0800 hc        1 DEQ      0.045700
     56 H242        0.5790   -0.7590   -1.2220 hc        1 DEQ      0.045700
     57 H251        2.0620   -0.7830    0.8140 hc        1 DEQ      0.047700
     58 H252        1.8930    1.0100    0.9590 hc        1 DEQ      0.047700
     59 H261        2.8760    1.2880   -1.3450 hc        1 DEQ      0.049700
     60 H262        3.0510   -0.5060   -1.4850 hc        1 DEQ      0.049700
     61 H271        4.5420   -0.5260    0.5440 hc        1 DEQ      0.061200
     62 H272        4.3580    1.2640    0.7030 hc        1 DEQ      0.061200
     63 H281        5.3000    1.5860   -1.6210 h1        1 DEQ      0.084700
     64 H282        5.4740   -0.2020   -1.8190 h1        1 DEQ      0.084700
     65 H301        6.5440    3.4220   -1.4540 hc        1 DEQ      0.087700
     66 H302        5.6150    3.1030    0.0830 hc        1 DEQ      0.087700
     67 H303        7.1770    4.0210    0.1360 hc        1 DEQ      0.087700
     68 H291       -6.5430   -3.4250    1.4480 hc        1 DEQ      0.087700
     69 H292       -7.1760   -4.0210   -0.1440 hc        1 DEQ      0.087700
     70 H293       -5.6140   -3.1030   -0.0890 hc        1 DEQ      0.087700
     71 HN41       11.2030    1.8700    0.9890 hn        1 DEQ      0.465800
     72 HN42       11.4000    0.1770    0.9630 hn        1 DEQ      0.465800
     73 HN31      -11.2030   -1.8690   -0.9910 hn        1 DEQ      0.465800
     74 HN32      -11.4000   -0.1760   -0.9630 hn        1 DEQ      0.465800
@<TRIPOS>BOND
     1    1    2 ar  
     2    1    5 ar  
     3    1   35 1   
     4    2    3 ar  
     5    2   36 1   
     6    3    4 ar  
     7    3   37 1   
     8    4    6 ar  
     9    4   38 1   
    10    5    6 ar  
    11    5   10 1   
    12    6    7 ar  
    13    7    8 ar  
    14    7   33 1   
    15    8    9 ar  
    16    8   39 1   
    17    9   10 2   
    18    9   31 1   
    19   10   30 1   
    20   11   12 ar  
    21   11   16 ar  
    22   11   17 ar  
    23   12   13 1   
    24   12   20 ar  
    25   13   14 2   
    26   13   21 1   
    27   14   15 ar  
    28   14   32 1   
    29   15   16 ar  
    30   15   40 1   
    31   16   34 1   
    32   17   18 ar  
    33   17   41 1   
    34   18   19 ar  
    35   18   42 1   
    36   19   20 ar  
    37   19   43 1   
    38   20   44 1   
    39   21   22 1   
    40   21   45 1   
    41   21   46 1   
    42   22   23 1   
    43   22   47 1   
    44   22   48 1   
    45   23   24 1   
    46   23   49 1   
    47   23   50 1   
    48   24   25 1   
    49   24   51 1   
    50   24   52 1   
    51   25   26 1   
    52   25   53 1   
    53   25   54 1   
    54   26   27 1   
    55   26   55 1   
    56   26   56 1   
    57   27   28 1   
    58   27   57 1   
    59   27   58 1   
    60   28   29 1   
    61   28   59 1   
    62   28   60 1   
    63   29   30 1   
    64   29   61 1   
    65   29   62 1   
    66   30   63 1   
    67   30   64 1   
    68   31   65 1   
    69   31   66 1   
    70   31   67 1   
    71   32   68 1   
    72   32   69 1   
    73   32   70 1   
    74   33   71 1   
    75   33   72 1   
    76   34   73 1   
    77   34   74 1   
@<TRIPOS>SUBSTRUCTURE
     1 DEQ         1 TEMP              0 ****  ****    0 ROOT
