@<TRIPOS>MOLECULE
DEQ
   76    79     1     0     0
SMALL
bcc


@<TRIPOS>ATOM
      1 C1          0.2630   -0.6410    0.1990 ca        1 DEQ     -0.131000
      2 C2          1.6370   -0.7480    0.2190 ca        1 DEQ     -0.027000
      3 C3          2.3620   -0.5130    1.4080 ca        1 DEQ     -0.041000
      4 C4          1.6930   -0.1910    2.5690 ca        1 DEQ     -0.129000
      5 C5         -0.4580   -0.2830    1.3750 ca        1 DEQ      0.031700
      6 C6          0.2810   -0.0760    2.5920 ca        1 DEQ     -0.066000
      7 C7         -0.4610    0.2350    3.7780 ca        1 DEQ      0.085600
      8 C8         -1.8380    0.3090    3.7420 ca        1 DEQ     -0.146000
      9 C9         -2.5350    0.1160    2.5030 ca        1 DEQ      0.111400
     10 N1         -1.8560   -0.1340    1.3580 na        1 DEQ      0.053900
     11 C10       -10.6290   -6.7920  -10.0570 ca        1 DEQ     -0.066000
     12 C11        -9.8910   -6.5850   -8.8400 ca        1 DEQ      0.031700
     13 N2         -8.4930   -6.7330   -8.8220 na        1 DEQ      0.053900
     14 C12        -7.8140   -6.9840   -9.9670 ca        1 DEQ      0.111400
     15 C13        -8.5100   -7.1770  -11.2060 ca        1 DEQ     -0.146000
     16 C14        -9.8870   -7.1030  -11.2430 ca        1 DEQ      0.085600
     17 C15       -12.0410   -6.6760  -10.0340 ca        1 DEQ     -0.129000
     18 C16       -12.7110   -6.3530   -8.8740 ca        1 DEQ     -0.041000
     19 C17       -11.9870   -6.1180   -7.6850 ca        1 DEQ     -0.027000
     20 C18       -10.6120   -6.2260   -7.6640 ca        1 DEQ     -0.131000
     21 C19        -7.7690   -6.6710   -7.5350 c3        1 DEQ     -0.024700
     22 C20        -7.3650   -5.2670   -7.0850 c3        1 DEQ     -0.098400
     23 C21        -6.6180   -5.3690   -5.7660 c3        1 DEQ     -0.082400
     24 C22        -6.1640   -4.0040   -5.2840 c3        1 DEQ     -0.078400
     25 C23        -5.4070   -4.1130   -3.9740 c3        1 DEQ     -0.079400
     26 C24        -4.9430   -2.7540   -3.4890 c3        1 DEQ     -0.079400
     27 C25        -4.1850   -2.8640   -2.1790 c3        1 DEQ     -0.078400
     28 C26        -3.7320   -1.4990   -1.6980 c3        1 DEQ     -0.082400
     29 C27        -2.9840   -1.6010   -0.3790 c3        1 DEQ     -0.098400
     30 C28        -2.5810   -0.1960    0.0710 c3        1 DEQ     -0.024700
     31 C30        -4.0220    0.2330    2.5420 c3        1 DEQ     -0.111800
     32 C29        -6.3260   -7.1010  -10.0050 c3        1 DEQ     -0.111800
     33 N4          0.2490    0.4720    5.0390 n4        1 DEQ     -0.725000
     34 N3        -10.5960   -7.3400  -12.5040 n4        1 DEQ     -0.725000
     35 H11        -0.2690   -0.8530   -0.7470 ha        1 DEQ      0.183000
     36 H21         2.1850   -1.0220   -0.7040 ha        1 DEQ      0.202000
     37 H31         3.4670   -0.5960    1.3990 ha        1 DEQ      0.206000
     38 H41         2.2880   -0.0250    3.4820 ha        1 DEQ      0.155000
     39 H81        -2.4570    0.5260    4.6350 ha        1 DEQ      0.212000
     40 H131       -7.8900   -7.3950  -12.0980 ha        1 DEQ      0.212000
     41 H151      -12.6360   -6.8410  -10.9470 ha        1 DEQ      0.155000
     42 H161      -13.8160   -6.2700   -8.8660 ha        1 DEQ      0.206000
     43 H171      -12.5350   -5.8440   -6.7620 ha        1 DEQ      0.202000
     44 H181      -10.0810   -6.0140   -6.7180 ha        1 DEQ      0.183000
     45 H191       -8.4220   -7.1580   -6.7510 h1        1 DEQ      0.109200
     46 H192       -6.8430   -7.3130   -7.6280 h1        1 DEQ      0.109200
     47 H201       -6.7080   -4.7830   -7.8540 hc        1 DEQ      0.068700
     48 H202       -8.2720   -4.6190   -6.9580 hc        1 DEQ      0.068700
     49 H211       -5.7240   -6.0360   -5.8880 hc        1 DEQ      0.057700
     50 H212       -7.2820   -5.8370   -4.9900 hc        1 DEQ      0.057700
     51 H221       -7.0550   -3.3360   -5.1480 hc        1 DEQ      0.051700
     52 H222       -5.5060   -3.5300   -6.0600 hc        1 DEQ      0.051700
     53 H231       -4.5190   -4.7860   -4.1100 hc        1 DEQ      0.050700
     54 H232       -6.0660   -4.5840   -3.1980 hc        1 DEQ      0.050700
     55 H241       -5.8310   -2.0810   -3.3540 hc        1 DEQ      0.050700
     56 H242       -4.2840   -2.2830   -4.2660 hc        1 DEQ      0.050700
     57 H251       -3.2940   -3.5310   -2.3150 hc        1 DEQ      0.051700
     58 H252       -4.8430   -3.3380   -1.4040 hc        1 DEQ      0.051700
     59 H261       -3.0680   -1.0310   -2.4730 hc        1 DEQ      0.057700
     60 H262       -4.6260   -0.8320   -1.5750 hc        1 DEQ      0.057700
     61 H271       -2.0770   -2.2480   -0.5060 hc        1 DEQ      0.068700
     62 H272       -3.6410   -2.0850    0.3900 hc        1 DEQ      0.068700
     63 H281       -1.9290    0.2910   -0.7130 h1        1 DEQ      0.109200
     64 H282       -3.5070    0.4450    0.1650 h1        1 DEQ      0.109200
     65 H301       -4.5190   -0.5800    1.9490 hc        1 DEQ      0.115033
     66 H302       -4.3930    0.1640    3.5980 hc        1 DEQ      0.115033
     67 H303       -4.3430    1.2270    2.1260 hc        1 DEQ      0.115033
     68 H291       -5.9550   -7.0340  -11.0610 hc        1 DEQ      0.115033
     69 H292       -6.0060   -8.0960   -9.5880 hc        1 DEQ      0.115033
     70 H293       -5.8300   -6.2880   -9.4120 hc        1 DEQ      0.115033
     71 HN41        0.8960    1.2700    4.9280 hn        1 DEQ      0.493467
     72 HN42        0.7940   -0.3670    5.2950 hn        1 DEQ      0.493467
     73 HN31      -11.2430   -8.1380  -12.3930 hn        1 DEQ      0.493467
     74 HN32      -11.1410   -6.5010  -12.7610 hn        1 DEQ      0.493467
     75 H43        -0.4150    0.6840    5.8000 hn        1 DEQ      0.493467
     76 H33        -9.9320   -7.5530  -13.2640 hn        1 DEQ      0.493467
@<TRIPOS>BOND
     1    1    2 ar  
     2    1    5 ar  
     3    1   35 1   
     4    2    3 ar  
     5    2   36 1   
     6    3    4 ar  
     7    3   37 1   
     8    4    6 ar  
     9    4   38 1   
    10    5    6 ar  
    11    5   10 1   
    12    6    7 ar  
    13    7    8 ar  
    14    7   33 1   
    15    8    9 ar  
    16    8   39 1   
    17    9   10 2   
    18    9   31 1   
    19   10   30 1   
    20   11   12 ar  
    21   11   16 ar  
    22   11   17 ar  
    23   12   13 1   
    24   12   20 ar  
    25   13   14 2   
    26   13   21 1   
    27   14   15 ar  
    28   14   32 1   
    29   15   16 ar  
    30   15   40 1   
    31   16   34 1   
    32   17   18 ar  
    33   17   41 1   
    34   18   19 ar  
    35   18   42 1   
    36   19   20 ar  
    37   19   43 1   
    38   20   44 1   
    39   21   22 1   
    40   21   45 1   
    41   21   46 1   
    42   22   23 1   
    43   22   47 1   
    44   22   48 1   
    45   23   24 1   
    46   23   49 1   
    47   23   50 1   
    48   24   25 1   
    49   24   51 1   
    50   24   52 1   
    51   25   26 1   
    52   25   53 1   
    53   25   54 1   
    54   26   27 1   
    55   26   55 1   
    56   26   56 1   
    57   27   28 1   
    58   27   57 1   
    59   27   58 1   
    60   28   29 1   
    61   28   59 1   
    62   28   60 1   
    63   29   30 1   
    64   29   61 1   
    65   29   62 1   
    66   30   63 1   
    67   30   64 1   
    68   31   65 1   
    69   31   66 1   
    70   31   67 1   
    71   32   68 1   
    72   32   69 1   
    73   32   70 1   
    74   33   71 1   
    75   33   72 1   
    76   33   75 1   
    77   34   73 1   
    78   34   74 1   
    79   34   76 1   
@<TRIPOS>SUBSTRUCTURE
     1 DEQ         1 TEMP              0 ****  ****    0 ROOT
