@<TRIPOS>MOLECULE
DEQ
   74    77     1     0     0
SMALL
bcc


@<TRIPOS>ATOM
      1 C1          0.1760   -0.5970    0.1080 ca        1 DEQ     -0.169000
      2 C2          1.5490   -0.7310    0.0920 ca        1 DEQ     -0.043000
      3 C3          2.3010   -0.5430    1.2660 ca        1 DEQ     -0.121000
      4 C4          1.6600   -0.2340    2.4460 ca        1 DEQ     -0.074000
      5 C5         -0.5090   -0.2550    1.3090 ca        1 DEQ      0.075700
      6 C6          0.2530   -0.0880    2.5050 ca        1 DEQ     -0.136000
      7 C7         -0.4370    0.2150    3.7470 ca        1 DEQ      0.335600
      8 C8         -1.8560    0.2840    3.7000 ca        1 DEQ     -0.311000
      9 C9         -2.5560    0.1320    2.5060 ca        1 DEQ      0.128400
     10 N1         -1.9030   -0.0880    1.3190 na        1 DEQ     -0.061100
     11 C10       -10.5880   -6.7910   -9.9760 ca        1 DEQ     -0.136000
     12 C11        -9.8310   -6.6230   -8.7780 ca        1 DEQ      0.075700
     13 N2         -8.4380   -6.7980   -8.7810 na        1 DEQ     -0.061100
     14 C12        -7.7800   -7.0260   -9.9650 ca        1 DEQ      0.128400
     15 C13        -8.4760   -7.1790  -11.1610 ca        1 DEQ     -0.311000
     16 C14        -9.8940   -7.1030  -11.2140 ca        1 DEQ      0.335600
     17 C15       -11.9950   -6.6370   -9.9250 ca        1 DEQ     -0.074000
     18 C16       -12.6390   -6.3190   -8.7490 ca        1 DEQ     -0.121000
     19 C17       -11.8920   -6.1320   -7.5720 ca        1 DEQ     -0.043000
     20 C18       -10.5200   -6.2740   -7.5810 ca        1 DEQ     -0.169000
     21 C19        -7.6930   -6.7470   -7.5230 c3        1 DEQ      0.003300
     22 C20        -7.2980   -5.3410   -7.0720 c3        1 DEQ     -0.102400
     23 C21        -6.5580   -5.4240   -5.7520 c3        1 DEQ     -0.081400
     24 C22        -6.1320   -4.0480   -5.2820 c3        1 DEQ     -0.078400
     25 C23        -5.3860   -4.1300   -3.9660 c3        1 DEQ     -0.079400
     26 C24        -4.9570   -2.7560   -3.4950 c3        1 DEQ     -0.079400
     27 C25        -4.2100   -2.8370   -2.1790 c3        1 DEQ     -0.078400
     28 C26        -3.7870   -1.4610   -1.7080 c3        1 DEQ     -0.081400
     29 C27        -3.0430   -1.5450   -0.3900 c3        1 DEQ     -0.102400
     30 C28        -2.6530   -0.1390    0.0640 c3        1 DEQ      0.003300
     31 C30        -4.0490    0.2360    2.5540 c3        1 DEQ     -0.092800
     32 C29        -6.2880   -7.1380  -10.0060 c3        1 DEQ     -0.092800
     33 N4          0.2140    0.4220    4.9080 nv        1 DEQ     -0.795200
     34 N3        -10.5410   -7.3110  -12.3780 nv        1 DEQ     -0.795200
     35 H11        -0.3800   -0.7730   -0.8280 ha        1 DEQ      0.160000
     36 H21         2.0660   -0.9920   -0.8480 ha        1 DEQ      0.168000
     37 H31         3.3980   -0.6500    1.2350 ha        1 DEQ      0.172000
     38 H41         2.2760   -0.1060    3.3510 ha        1 DEQ      0.149000
     39 H81        -2.4310    0.4700    4.6220 ha        1 DEQ      0.182000
     40 H131       -7.8980   -7.3720  -12.0800 ha        1 DEQ      0.182000
     41 H151      -12.6080   -6.7650  -10.8320 ha        1 DEQ      0.149000
     42 H161      -13.7360   -6.2070   -8.7230 ha        1 DEQ      0.172000
     43 H171      -12.4110   -5.8640   -6.6360 ha        1 DEQ      0.168000
     44 H181       -9.9670   -6.0970   -6.6440 ha        1 DEQ      0.160000
     45 H191       -8.3170   -7.2440   -6.7240 h1        1 DEQ      0.084700
     46 H192       -6.7610   -7.3740   -7.6340 h1        1 DEQ      0.084700
     47 H201       -8.2090   -4.6970   -6.9570 hc        1 DEQ      0.061200
     48 H202       -6.6420   -4.8570   -7.8430 hc        1 DEQ      0.061200
     49 H211       -5.6530   -6.0780   -5.8650 hc        1 DEQ      0.049700
     50 H212       -7.2170   -5.8990   -4.9780 hc        1 DEQ      0.049700
     51 H221       -5.4760   -3.5710   -6.0570 hc        1 DEQ      0.047700
     52 H222       -7.0360   -3.3940   -5.1630 hc        1 DEQ      0.047700
     53 H231       -4.4840   -4.7850   -4.0850 hc        1 DEQ      0.045700
     54 H232       -6.0430   -4.6060   -3.1900 hc        1 DEQ      0.045700
     55 H241       -5.8600   -2.1000   -3.3750 hc        1 DEQ      0.045700
     56 H242       -4.3020   -2.2790   -4.2710 hc        1 DEQ      0.045700
     57 H251       -3.3060   -3.4900   -2.3000 hc        1 DEQ      0.047700
     58 H252       -4.8650   -3.3160   -1.4040 hc        1 DEQ      0.047700
     59 H261       -3.1310   -0.9840   -2.4830 hc        1 DEQ      0.049700
     60 H262       -4.6930   -0.8090   -1.5920 hc        1 DEQ      0.049700
     61 H271       -3.6940   -2.0340    0.3820 hc        1 DEQ      0.061200
     62 H272       -2.1290   -2.1840   -0.5100 hc        1 DEQ      0.061200
     63 H281       -2.0350    0.3650   -0.7350 h1        1 DEQ      0.084700
     64 H282       -3.5870    0.4840    0.1820 h1        1 DEQ      0.084700
     65 H301       -4.4020    0.1820    3.6150 hc        1 DEQ      0.087700
     66 H302       -4.5350   -0.5950    1.9830 hc        1 DEQ      0.087700
     67 H303       -4.3800    1.2170    2.1260 hc        1 DEQ      0.087700
     68 H291       -5.8000   -6.3080   -9.4350 hc        1 DEQ      0.087700
     69 H292       -5.9640   -8.1190   -9.5720 hc        1 DEQ      0.087700
     70 H293       -5.9310   -7.0900  -11.0650 hc        1 DEQ      0.087700
     71 HN41       -0.2960    0.6250    5.7390 hn        1 DEQ      0.465800
     72 HN42        1.2040    0.3820    4.9660 hn        1 DEQ      0.465800
     73 HN31      -10.0290   -7.5200  -13.2050 hn        1 DEQ      0.465800
     74 HN32      -11.5310   -7.2660  -12.4410 hn        1 DEQ      0.465800
@<TRIPOS>BOND
     1    1    2 ar  
     2    1    5 ar  
     3    1   35 1   
     4    2    3 ar  
     5    2   36 1   
     6    3    4 ar  
     7    3   37 1   
     8    4    6 ar  
     9    4   38 1   
    10    5    6 ar  
    11    5   10 1   
    12    6    7 ar  
    13    7    8 ar  
    14    7   33 1   
    15    8    9 ar  
    16    8   39 1   
    17    9   10 2   
    18    9   31 1   
    19   10   30 1   
    20   11   12 ar  
    21   11   16 ar  
    22   11   17 ar  
    23   12   13 1   
    24   12   20 ar  
    25   13   14 2   
    26   13   21 1   
    27   14   15 ar  
    28   14   32 1   
    29   15   16 ar  
    30   15   40 1   
    31   16   34 1   
    32   17   18 ar  
    33   17   41 1   
    34   18   19 ar  
    35   18   42 1   
    36   19   20 ar  
    37   19   43 1   
    38   20   44 1   
    39   21   22 1   
    40   21   45 1   
    41   21   46 1   
    42   22   23 1   
    43   22   47 1   
    44   22   48 1   
    45   23   24 1   
    46   23   49 1   
    47   23   50 1   
    48   24   25 1   
    49   24   51 1   
    50   24   52 1   
    51   25   26 1   
    52   25   53 1   
    53   25   54 1   
    54   26   27 1   
    55   26   55 1   
    56   26   56 1   
    57   27   28 1   
    58   27   57 1   
    59   27   58 1   
    60   28   29 1   
    61   28   59 1   
    62   28   60 1   
    63   29   30 1   
    64   29   61 1   
    65   29   62 1   
    66   30   63 1   
    67   30   64 1   
    68   31   65 1   
    69   31   66 1   
    70   31   67 1   
    71   32   68 1   
    72   32   69 1   
    73   32   70 1   
    74   33   71 1   
    75   33   72 1   
    76   34   73 1   
    77   34   74 1   
@<TRIPOS>SUBSTRUCTURE
     1 DEQ         1 TEMP              0 ****  ****    0 ROOT
