@<TRIPOS>MOLECULE
DER
   19    18     1     0     0
SMALL
bcc


@<TRIPOS>ATOM
      1 OH2         0.0450    0.9760    0.4810 o         1 DER     -0.881300
      2 C1          1.1190    0.3800    0.1640 c         1 DER      0.892600
      3 OH1         1.3900    0.0800   -1.0420 o         1 DER     -0.881300
      4 C2          2.1760    0.0790    1.2480 c3        1 DER      0.034100
      5 O2          3.4540   -0.0280    0.6330 oh        1 DER     -0.634800
      6 C3          1.8770   -1.1700    2.0990 c3        1 DER      0.108100
      7 O3          2.2750   -2.3140    1.3500 oh        1 DER     -0.655800
      8 C4          2.5990   -1.1160    3.4720 c3        1 DER      0.182400
      9 O4          2.7940   -2.3900    3.9550 os        1 DER     -0.586200
     10 P           2.8040   -2.5670    5.6800 p5        1 DER      1.325900
     11 O1P         1.6590   -1.6980    6.1360 o         1 DER     -0.942833
     12 O2P         2.6000   -4.0530    5.8300 o         1 DER     -0.942833
     13 O3P         4.1710   -2.0640    6.0710 o         1 DER     -0.942833
     14 H2          2.2580    0.9660    1.9330 h1        1 DER      0.044700
     15 HO2         3.3420   -0.6940   -0.0590 ho        1 DER      0.408000
     16 H3          0.7650   -1.2420    2.2560 h1        1 DER      0.031700
     17 HO3         2.6590   -2.9370    1.9870 ho        1 DER      0.429000
     18 H41         3.5910   -0.6010    3.2970 h1        1 DER      0.005200
     19 H42         1.9870   -0.5090    4.1940 h1        1 DER      0.005200
@<TRIPOS>BOND
     1    1    2 1   
     2    2    3 1   
     3    2    4 1   
     4    4    5 1   
     5    4    6 1   
     6    4   14 1   
     7    5   15 1   
     8    6    7 1   
     9    6    8 1   
    10    6   16 1   
    11    7   17 1   
    12    8    9 1   
    13    8   18 1   
    14    8   19 1   
    15    9   10 1   
    16   10   11 1   
    17   10   12 1   
    18   10   13 1   
@<TRIPOS>SUBSTRUCTURE
     1 DER         1 TEMP              0 ****  ****    0 ROOT
