@<TRIPOS>MOLECULE
DER
   19    18     1     0     0
SMALL
bcc


@<TRIPOS>ATOM
      1 OH2         0.0570    0.9830    0.4750 o         1 DER     -0.881300
      2 C1          1.1360    0.3940    0.1640 c         1 DER      0.892600
      3 OH1         1.4200    0.1040   -1.0410 o         1 DER     -0.881300
      4 C2          2.1830    0.0890    1.2560 c3        1 DER      0.034100
      5 O2          3.4690   -0.0080    0.6520 oh        1 DER     -0.634800
      6 C3          1.8820   -1.1680    2.0940 c3        1 DER      0.108100
      7 O3          2.2930   -2.3050    1.3410 oh        1 DER     -0.655800
      8 C4          2.5910   -1.1210    3.4740 c3        1 DER      0.182400
      9 O4          2.7870   -2.3980    3.9500 os        1 DER     -0.586200
     10 P           2.7810   -2.5880    5.6740 p5        1 DER      1.325900
     11 O1P         1.6260   -1.7300    6.1250 o         1 DER     -0.942833
     12 O2P         2.5840   -4.0770    5.8100 o         1 DER     -0.942833
     13 O3P         4.1410   -2.0800    6.0820 o         1 DER     -0.942833
     14 H2          2.2560    0.9710    1.9490 h1        1 DER      0.044700
     15 HO2         3.3660   -0.6690   -0.0450 ho        1 DER      0.408000
     16 H3          0.7690   -1.2470    2.2400 h1        1 DER      0.031700
     17 HO3         2.6740   -2.9300    1.9770 ho        1 DER      0.429000
     18 H41         3.5820   -0.6000    3.3140 h1        1 DER      0.005200
     19 H42         1.9680   -0.5230    4.1960 h1        1 DER      0.005200
@<TRIPOS>BOND
     1    1    2 1   
     2    2    3 1   
     3    2    4 1   
     4    4    5 1   
     5    4    6 1   
     6    4   14 1   
     7    5   15 1   
     8    6    7 1   
     9    6    8 1   
    10    6   16 1   
    11    7   17 1   
    12    8    9 1   
    13    8   18 1   
    14    8   19 1   
    15    9   10 1   
    16   10   11 1   
    17   10   12 1   
    18   10   13 1   
@<TRIPOS>SUBSTRUCTURE
     1 DER         1 TEMP              0 ****  ****    0 ROOT
