@<TRIPOS>MOLECULE
DER
   19    18     1     0     0
SMALL
bcc


@<TRIPOS>ATOM
      1 OH2        -1.2580   -1.3030    3.7430 o         1 DER     -0.881300
      2 C1         -0.3510   -0.4410    3.5400 c         1 DER      0.892600
      3 OH1        -0.0340    0.4200    4.4200 o         1 DER     -0.881300
      4 C2          0.4610   -0.4790    2.2280 c3        1 DER      0.034100
      5 O2          1.7280    0.1310    2.4470 oh        1 DER     -0.634800
      6 C3         -0.2490    0.1640    1.0210 c3        1 DER      0.108100
      7 O3         -0.0830    1.5750    1.1180 oh        1 DER     -0.655800
      8 C4          0.3030   -0.3770   -0.3250 c3        1 DER      0.182400
      9 O4          0.1010    0.5470   -1.3250 os        1 DER     -0.586200
     10 P          -0.1310   -0.0850   -2.9240 p5        1 DER      1.325900
     11 O1P        -1.0510   -1.2600   -2.7140 o         1 DER     -0.942833
     12 O2P        -0.7330    1.1020   -3.6310 o         1 DER     -0.942833
     13 O3P         1.2670   -0.4490   -3.3570 o         1 DER     -0.942833
     14 H2          0.6960   -1.5490    1.9750 h1        1 DER      0.044700
     15 HO2         1.5230    1.0060    2.8050 ho        1 DER      0.408000
     16 H3         -1.3510   -0.0500    1.0950 h1        1 DER      0.031700
     17 HO3         0.0490    1.8970    0.2130 ho        1 DER      0.429000
     18 H41         1.4090   -0.5620   -0.1730 h1        1 DER      0.005200
     19 H42        -0.2060   -1.3480   -0.5770 h1        1 DER      0.005200
@<TRIPOS>BOND
     1    1    2 1   
     2    2    3 1   
     3    2    4 1   
     4    4    5 1   
     5    4    6 1   
     6    4   14 1   
     7    5   15 1   
     8    6    7 1   
     9    6    8 1   
    10    6   16 1   
    11    7   17 1   
    12    8    9 1   
    13    8   18 1   
    14    8   19 1   
    15    9   10 1   
    16   10   11 1   
    17   10   12 1   
    18   10   13 1   
@<TRIPOS>SUBSTRUCTURE
     1 DER         1 TEMP              0 ****  ****    0 ROOT
