@<TRIPOS>MOLECULE
DER
   19    18     1     0     0
SMALL
bcc


@<TRIPOS>ATOM
      1 OH2        -0.4240    1.3330   -3.5240 o         1 DER     -0.881300
      2 C1         -1.0210    1.3660   -2.4160 c         1 DER      0.892600
      3 OH1        -2.2780    1.4330   -2.3810 o         1 DER     -0.881300
      4 C2         -0.2300    1.3260   -1.1290 c3        1 DER      0.034100
      5 O2          1.0180    1.9480   -1.3250 oh        1 DER     -0.634800
      6 C3         -0.0160   -0.1110   -0.7130 c3        1 DER      0.108100
      7 O3          1.2220   -0.5630   -1.2070 oh        1 DER     -0.655800
      8 C4         -0.0220   -0.2050    0.7960 c3        1 DER      0.182400
      9 O4          0.3790   -1.4970    1.1870 os        1 DER     -0.586200
     10 P           0.2740   -1.8890    2.7150 p5        1 DER      1.325900
     11 O1P         1.0240   -0.8760    3.5470 o         1 DER     -0.942833
     12 O2P         0.8740   -3.2580    2.9270 o         1 DER     -0.942833
     13 O3P        -1.1780   -1.9060    3.1310 o         1 DER     -0.942833
     14 H2         -0.7220    1.7980   -0.4290 h1        1 DER      0.044700
     15 HO2         1.0150    2.7490   -0.9380 ho        1 DER      0.408000
     16 H3         -0.7350   -0.6650   -1.0770 h1        1 DER      0.031700
     17 HO3         1.1470   -1.4110   -1.4640 ho        1 DER      0.429000
     18 H41        -0.9250   -0.0280    1.1310 h1        1 DER      0.005200
     19 H42         0.5990    0.4560    1.1670 h1        1 DER      0.005200
@<TRIPOS>BOND
     1    1    2 1   
     2    2    3 1   
     3    2    4 1   
     4    4    5 1   
     5    4    6 1   
     6    4   14 1   
     7    5   15 1   
     8    6    7 1   
     9    6    8 1   
    10    6   16 1   
    11    7   17 1   
    12    8    9 1   
    13    8   18 1   
    14    8   19 1   
    15    9   10 1   
    16   10   11 1   
    17   10   12 1   
    18   10   13 1   
@<TRIPOS>SUBSTRUCTURE
     1 DER         1 TEMP              0 ****  ****    0 ROOT
