@<TRIPOS>MOLECULE
DES
   40    41     1     0     0
SMALL
bcc


@<TRIPOS>ATOM
      1 CP9         2.7520    0.9900    0.0870 c3        1 DES     -0.087100
      2 CP8         1.9080   -0.2600    0.1620 c3        1 DES     -0.043200
      3 CP7         0.5290   -0.0370   -0.3690 ce        1 DES     -0.052400
      4 CP6         0.4500    0.0270   -1.8350 ca        1 DES     -0.082800
      5 CP1         0.2300    1.2460   -2.4880 ca        1 DES     -0.085500
      6 CP2         0.1840    1.3070   -3.8780 ca        1 DES     -0.185500
      7 CP3         0.3610    0.1330   -4.6230 ca        1 DES      0.122100
      8 OP3         0.3270    0.1130   -5.9990 oh        1 DES     -0.498100
      9 CP4         0.5850   -1.0970   -3.9840 ca        1 DES     -0.185500
     10 CP5         0.6300   -1.1380   -2.5950 ca        1 DES     -0.085500
     11 C7         -0.5550    0.0860    0.4250 cf        1 DES     -0.052400
     12 C6         -0.4760    0.0220    1.8910 ca        1 DES     -0.082800
     13 C5         -0.6560    1.1870    2.6510 ca        1 DES     -0.085500
     14 C4         -0.6100    1.1460    4.0400 ca        1 DES     -0.185500
     15 C3         -0.3870   -0.0840    4.6790 ca        1 DES      0.122100
     16 O3         -0.3530   -0.0640    6.0550 oh        1 DES     -0.498100
     17 C2         -0.2100   -1.2580    3.9340 ca        1 DES     -0.185500
     18 C1         -0.2550   -1.1960    2.5440 ca        1 DES     -0.085500
     19 C8         -1.9340    0.3090   -0.1060 c3        1 DES     -0.043200
     20 C9         -2.7780   -0.9410   -0.0320 c3        1 DES     -0.087100
     21 HP91        2.3400    1.7850    0.7540 hc        1 DES      0.035700
     22 HP92        3.7970    0.7640    0.4100 hc        1 DES      0.035700
     23 HP93        2.7780    1.3840   -0.9570 hc        1 DES      0.035700
     24 HP81        2.3960   -1.0760   -0.4390 hc        1 DES      0.049200
     25 HP82        1.8610   -0.6140    1.2270 hc        1 DES      0.049200
     26 HP1         0.0930    2.1640   -1.8970 ha        1 DES      0.137000
     27 HP2         0.0130    2.2670   -4.3860 ha        1 DES      0.142000
     28 HOP3        0.1700    1.0180   -6.3060 ho        1 DES      0.419000
     29 HP4         0.7210   -2.0060   -4.5870 ha        1 DES      0.142000
     30 HP5         0.8090   -2.0970   -2.0850 ha        1 DES      0.137000
     31 H5         -0.8350    2.1460    2.1410 ha        1 DES      0.137000
     32 H4         -0.7470    2.0540    4.6430 ha        1 DES      0.142000
     33 HO3        -0.1960   -0.9690    6.3620 ho        1 DES      0.419000
     34 H2         -0.0380   -2.2170    4.4420 ha        1 DES      0.142000
     35 H1         -0.1190   -2.1150    1.9530 ha        1 DES      0.137000
     36 H81        -2.4220    1.1250    0.4950 hc        1 DES      0.049200
     37 H82        -1.8870    0.6640   -1.1710 hc        1 DES      0.049200
     38 H91        -3.8230   -0.7150   -0.3550 hc        1 DES      0.035700
     39 H92        -2.3650   -1.7360   -0.6990 hc        1 DES      0.035700
     40 H93        -2.8040   -1.3360    1.0130 hc        1 DES      0.035700
@<TRIPOS>BOND
     1    1    2 1   
     2    1   21 1   
     3    1   22 1   
     4    1   23 1   
     5    2    3 1   
     6    2   24 1   
     7    2   25 1   
     8    3    4 1   
     9    3   11 2   
    10    4    5 ar  
    11    4   10 ar  
    12    5    6 ar  
    13    5   26 1   
    14    6    7 ar  
    15    6   27 1   
    16    7    8 1   
    17    7    9 ar  
    18    8   28 1   
    19    9   10 ar  
    20    9   29 1   
    21   10   30 1   
    22   11   12 1   
    23   11   19 1   
    24   12   13 ar  
    25   12   18 ar  
    26   13   14 ar  
    27   13   31 1   
    28   14   15 ar  
    29   14   32 1   
    30   15   16 1   
    31   15   17 ar  
    32   16   33 1   
    33   17   18 ar  
    34   17   34 1   
    35   18   35 1   
    36   19   20 1   
    37   19   36 1   
    38   19   37 1   
    39   20   38 1   
    40   20   39 1   
    41   20   40 1   
@<TRIPOS>SUBSTRUCTURE
     1 DES         1 TEMP              0 ****  ****    0 ROOT
