@<TRIPOS>MOLECULE
DES
   40    41     1     0     0
SMALL
bcc


@<TRIPOS>ATOM
      1 CP9         0.3810   -0.9200   -0.0820 c3        1 DES     -0.087100
      2 CP8         1.5670    0.0010    0.0750 c3        1 DES     -0.043700
      3 CP7         2.0220    0.0900    1.4970 ce        1 DES     -0.052400
      4 CP6         2.7670   -1.0860    1.9670 ca        1 DES     -0.082800
      5 CP1         2.1820   -1.9940    2.8630 ca        1 DES     -0.085250
      6 CP2         2.8730   -3.1220    3.2870 ca        1 DES     -0.185500
      7 CP3         4.1750   -3.3460    2.8080 ca        1 DES      0.122100
      8 OP3         4.8110   -4.4780    3.2650 oh        1 DES     -0.498100
      9 CP4         4.7730   -2.4500    1.9120 ca        1 DES     -0.185500
     10 CP5         4.0630   -1.3270    1.4940 ca        1 DES     -0.085250
     11 C7          1.7790    1.1600    2.2820 cf        1 DES     -0.052400
     12 C6          1.0320    2.3350    1.8120 ca        1 DES     -0.082800
     13 C5         -0.2670    2.5720    2.2860 ca        1 DES     -0.085250
     14 C4         -0.9830    3.6900    1.8740 ca        1 DES     -0.185500
     15 C3         -0.3850    4.5920    0.9780 ca        1 DES      0.122100
     16 O3         -1.1400    5.6810    0.6070 oh        1 DES     -0.498100
     17 C2          0.9140    4.3720    0.5000 ca        1 DES     -0.185500
     18 C1          1.6140    3.2440    0.9200 ca        1 DES     -0.085250
     19 C8          2.2320    1.2490    3.7030 c3        1 DES     -0.043700
     20 C9          3.4170    2.1710    3.8620 c3        1 DES     -0.087100
     21 HP91       -0.5090   -0.5110    0.4530 hc        1 DES      0.035867
     22 HP92        0.6100   -1.9310    0.3360 hc        1 DES      0.035867
     23 HP93        0.1250   -1.0300   -1.1630 hc        1 DES      0.035867
     24 HP81        1.3000    1.0210   -0.3110 hc        1 DES      0.049450
     25 HP82        2.4210   -0.3800   -0.5500 hc        1 DES      0.049450
     26 HP1         1.1610   -1.8100    3.2310 ha        1 DES      0.137500
     27 HP2         2.4220   -3.8390    3.9870 ha        1 DES      0.142000
     28 HOP3        5.6890   -4.5090    2.8590 ho        1 DES      0.418000
     29 HP4         5.7910   -2.6320    1.5410 ha        1 DES      0.142000
     30 HP5         4.5260   -0.6220    0.7880 ha        1 DES      0.137500
     31 H5         -0.7260    1.8620    2.9910 ha        1 DES      0.137500
     32 H4         -2.0020    3.8810    2.2370 ha        1 DES      0.142000
     33 HO3        -0.6120    6.2150   -0.0040 ho        1 DES      0.418000
     34 H2          1.3760    5.0840   -0.1990 ha        1 DES      0.142000
     35 H1          2.6350    3.0670    0.5500 ha        1 DES      0.137500
     36 H81         2.5000    0.2280    4.0900 hc        1 DES      0.049450
     37 H82         1.3780    1.6280    4.3290 hc        1 DES      0.049450
     38 H91         4.3080    1.7640    3.3270 hc        1 DES      0.035867
     39 H92         3.6730    2.2800    4.9440 hc        1 DES      0.035867
     40 H93         3.1870    3.1820    3.4460 hc        1 DES      0.035867
@<TRIPOS>BOND
     1    1    2 1   
     2    1   21 1   
     3    1   22 1   
     4    1   23 1   
     5    2    3 1   
     6    2   24 1   
     7    2   25 1   
     8    3    4 1   
     9    3   11 2   
    10    4    5 ar  
    11    4   10 ar  
    12    5    6 ar  
    13    5   26 1   
    14    6    7 ar  
    15    6   27 1   
    16    7    8 1   
    17    7    9 ar  
    18    8   28 1   
    19    9   10 ar  
    20    9   29 1   
    21   10   30 1   
    22   11   12 1   
    23   11   19 1   
    24   12   13 ar  
    25   12   18 ar  
    26   13   14 ar  
    27   13   31 1   
    28   14   15 ar  
    29   14   32 1   
    30   15   16 1   
    31   15   17 ar  
    32   16   33 1   
    33   17   18 ar  
    34   17   34 1   
    35   18   35 1   
    36   19   20 1   
    37   19   36 1   
    38   19   37 1   
    39   20   38 1   
    40   20   39 1   
    41   20   40 1   
@<TRIPOS>SUBSTRUCTURE
     1 DES         1 TEMP              0 ****  ****    0 ROOT
