@<TRIPOS>MOLECULE
DES
   40    36     1     0     0
SMALL
bcc


@<TRIPOS>ATOM
      1 CP9        -1.8660    1.4300   -1.7050 c3        1 DES     -0.206000
      2 CP8        -1.2630    0.0460   -1.5420 c3        1 DES     -0.127000
      3 CP7        -0.7190   -0.1090   -0.1260 c2        1 DES     -0.060000
      4 CP6        -1.6620    0.0140    1.0730 c2        1 DES     -0.073000
      5 CP1        -2.4280   -1.0750    1.4670 c1        1 DES     -0.082000
      6 CP2        -3.3420   -0.9430    2.5040 c1        1 DES     -0.214000
      7 CP3        -3.4900    0.2790    3.1480 c1        1 DES      0.078000
      8 OP3        -4.4000    0.4060    4.2230 o         1 DES     -0.252000
      9 CP4        -2.7240    1.3670    2.7550 c2        1 DES     -0.159000
     10 CP5        -1.8090    1.2350    1.7170 c2        1 DES     -0.087000
     11 C7          0.6090   -0.3570    0.0730 c1        1 DES     -0.059000
     12 C6          1.5550   -0.4810   -1.1280 c1        1 DES     -0.073000
     13 C5          1.7020   -1.7030   -1.7690 c2        1 DES     -0.087000
     14 C4          2.6600   -1.8540   -2.7640 c1        1 DES     -0.158000
     15 C3          3.4700   -0.7840   -3.1180 c1        1 DES      0.078000
     16 O3          4.3970   -0.9200   -4.1680 oh        1 DES     -0.252000
     17 C2          3.3230    0.4370   -2.4780 c1        1 DES     -0.215000
     18 C1          2.3650    0.5900   -1.4820 c1        1 DES     -0.082000
     19 C8          1.1490   -0.5100    1.4810 c3        1 DES     -0.128000
     20 C9          2.1500    0.5850    1.7590 c3        1 DES     -0.205000
     21 HP91       -2.6580    1.5120   -1.1270 hc        1 DES      0.074333
     22 HP92       -2.1300    1.5650   -2.6420 hc        1 DES      0.074333
     23 HP93       -1.2070    2.1060   -1.4510 hc        1 DES      0.074333
     24 HP81       -1.9540   -0.6330   -1.7030 hc        1 DES      0.090000
     25 HP82       -0.5380   -0.0700   -2.1830 hc        1 DES      0.090000
     26 HP1        -2.3240   -1.9350    1.0140 ha        1 DES      0.137000
     27 HP2        -3.8800   -1.7080    2.7810 ha        1 DES      0.134000
     28 HOP3       -5.2340    0.2930    3.9230 ho        1 DES      0.218000
     29 HP4        -2.8280    2.2260    3.2070 ha        1 DES      0.151000
     30 HP5        -1.2690    2.0020    1.4400 ha        1 DES      0.140000
     31 H5          1.1330   -2.4560   -1.5200 ha        1 DES      0.138000
     32 H4          2.7630   -2.7170   -3.2160 ha        1 DES      0.151000
     33 HO3         5.1970   -1.1170   -3.8340 ho        1 DES      0.218000
     34 H2          3.8930    1.1910   -2.7270 ha        1 DES      0.134000
     35 H1          2.2620    1.4490   -1.0320 ha        1 DES      0.138000
     36 H81         1.5850   -1.3800    1.5710 hc        1 DES      0.090000
     37 H82         0.4100   -0.4480    2.1220 hc        1 DES      0.090000
     38 H91         1.7860    1.1980    2.4310 hc        1 DES      0.074333
     39 H92         2.3320    1.0790    0.9320 hc        1 DES      0.074333
     40 H93         2.9810    0.1900    2.0930 hc        1 DES      0.074333
@<TRIPOS>BOND
     1    1    2 1   
     2    1   21 1   
     3    1   22 1   
     4    1   23 1   
     5    2    3 1   
     6    2   24 1   
     7    2   25 1   
     8    3    4 1   
     9    3   11 1   
    10    4    5 1   
    11    4   10 1   
    12    5   26 1   
    13    6    7 1   
    14    6   27 1   
    15    7    9 1   
    16    8   28 1   
    17    9   10 1   
    18    9   29 1   
    19   10   30 1   
    20   11   19 1   
    21   12   13 1   
    22   12   18 1   
    23   13   14 1   
    24   13   31 1   
    25   14   32 1   
    26   15   16 1   
    27   15   17 1   
    28   16   33 1   
    29   17   34 1   
    30   18   35 1   
    31   19   20 1   
    32   19   36 1   
    33   19   37 1   
    34   20   38 1   
    35   20   39 1   
    36   20   40 1   
@<TRIPOS>SUBSTRUCTURE
     1 DES         1 TEMP              0 ****  ****    0 ROOT
