@<TRIPOS>MOLECULE
DES
   40    41     1     0     0
SMALL
bcc


@<TRIPOS>ATOM
      1 CP9         0.3870   -0.9150   -0.0910 c3        1 DES     -0.087100
      2 CP8         1.5710    0.0070    0.0720 c3        1 DES     -0.043700
      3 CP7         2.0220    0.0910    1.4950 ce        1 DES     -0.052400
      4 CP6         2.7680   -1.0850    1.9620 ca        1 DES     -0.082800
      5 CP1         2.1820   -1.9970    2.8520 ca        1 DES     -0.085250
      6 CP2         2.8740   -3.1270    3.2730 ca        1 DES     -0.185500
      7 CP3         4.1770   -3.3470    2.7960 ca        1 DES      0.122100
      8 OP3         4.8130   -4.4800    3.2490 oh        1 DES     -0.498100
      9 CP4         4.7760   -2.4470    1.9050 ca        1 DES     -0.185500
     10 CP5         4.0650   -1.3230    1.4910 ca        1 DES     -0.085250
     11 C7          1.7770    1.1580    2.2840 cf        1 DES     -0.052400
     12 C6          1.0310    2.3350    1.8170 ca        1 DES     -0.082800
     13 C5         -0.2690    2.5690    2.2900 ca        1 DES     -0.085250
     14 C4         -0.9850    3.6880    1.8820 ca        1 DES     -0.185500
     15 C3         -0.3870    4.5930    0.9900 ca        1 DES      0.122100
     16 O3         -1.1420    5.6840    0.6220 oh        1 DES     -0.498100
     17 C2          0.9130    4.3770    0.5120 ca        1 DES     -0.185500
     18 C1          1.6130    3.2470    0.9290 ca        1 DES     -0.085250
     19 C8          2.2280    1.2420    3.7060 c3        1 DES     -0.043700
     20 C9          3.4120    2.1640    3.8710 c3        1 DES     -0.087100
     21 HP91       -0.5060   -0.5100    0.4440 hc        1 DES      0.035867
     22 HP92        0.6160   -1.9270    0.3230 hc        1 DES      0.035867
     23 HP93        0.1320   -1.0210   -1.1730 hc        1 DES      0.035867
     24 HP81        1.3030    1.0290   -0.3100 hc        1 DES      0.049450
     25 HP82        2.4260   -0.3690   -0.5530 hc        1 DES      0.049450
     26 HP1         1.1600   -1.8160    3.2190 ha        1 DES      0.137500
     27 HP2         2.4220   -3.8470    3.9690 ha        1 DES      0.142000
     28 HOP3        5.6930   -4.5090    2.8450 ho        1 DES      0.418000
     29 HP4         5.7950   -2.6270    1.5360 ha        1 DES      0.142000
     30 HP5         4.5290   -0.6140    0.7880 ha        1 DES      0.137500
     31 H5         -0.7290    1.8560    2.9920 ha        1 DES      0.137500
     32 H4         -2.0050    3.8770    2.2440 ha        1 DES      0.142000
     33 HO3        -0.6140    6.2200    0.0130 ho        1 DES      0.418000
     34 H2          1.3750    5.0910   -0.1840 ha        1 DES      0.142000
     35 H1          2.6340    3.0720    0.5590 ha        1 DES      0.137500
     36 H81         2.4960    0.2200    4.0890 hc        1 DES      0.049450
     37 H82         1.3720    1.6180    4.3310 hc        1 DES      0.049450
     38 H91         4.3040    1.7600    3.3360 hc        1 DES      0.035867
     39 H92         3.6660    2.2690    4.9530 hc        1 DES      0.035867
     40 H93         3.1820    3.1770    3.4590 hc        1 DES      0.035867
@<TRIPOS>BOND
     1    1    2 1   
     2    1   21 1   
     3    1   22 1   
     4    1   23 1   
     5    2    3 1   
     6    2   24 1   
     7    2   25 1   
     8    3    4 1   
     9    3   11 2   
    10    4    5 ar  
    11    4   10 ar  
    12    5    6 ar  
    13    5   26 1   
    14    6    7 ar  
    15    6   27 1   
    16    7    8 1   
    17    7    9 ar  
    18    8   28 1   
    19    9   10 ar  
    20    9   29 1   
    21   10   30 1   
    22   11   12 1   
    23   11   19 1   
    24   12   13 ar  
    25   12   18 ar  
    26   13   14 ar  
    27   13   31 1   
    28   14   15 ar  
    29   14   32 1   
    30   15   16 1   
    31   15   17 ar  
    32   16   33 1   
    33   17   18 ar  
    34   17   34 1   
    35   18   35 1   
    36   19   20 1   
    37   19   36 1   
    38   19   37 1   
    39   20   38 1   
    40   20   39 1   
    41   20   40 1   
@<TRIPOS>SUBSTRUCTURE
     1 DES         1 TEMP              0 ****  ****    0 ROOT
