@<TRIPOS>MOLECULE
DET
   44    43     1     0     0
SMALL
bcc


@<TRIPOS>ATOM
      1 N          -5.3720    0.0630    0.0950 n4        1 DET     -0.146600
      2 O          -5.3750    0.6980    1.2000 o         1 DET     -0.646000
      3 CM1        -5.6110    0.9840   -1.0790 c3        1 DET      0.071600
      4 CM2        -6.4570   -0.9910    0.0590 c3        1 DET      0.071600
      5 C1         -4.0520   -0.6700   -0.1410 c3        1 DET      0.093800
      6 C2         -2.8390    0.2440   -0.1060 c3        1 DET     -0.088400
      7 C3         -1.5690   -0.5790   -0.0630 c3        1 DET     -0.077400
      8 C4         -0.3450    0.3120   -0.0800 c3        1 DET     -0.078400
      9 C5          0.9280   -0.5050   -0.0250 c3        1 DET     -0.079400
     10 C6          2.1520    0.3850   -0.0440 c3        1 DET     -0.079400
     11 C7          3.4260   -0.4310    0.0100 c3        1 DET     -0.078400
     12 C8          4.6500    0.4590   -0.0090 c3        1 DET     -0.079400
     13 C9          5.9230   -0.3570    0.0450 c3        1 DET     -0.079400
     14 C10         7.1490    0.5320    0.0250 c3        1 DET     -0.080400
     15 C11         8.4190   -0.2760    0.0790 c3        1 DET     -0.092100
     16 HM11       -5.5470    0.4120   -2.0370 hx        1 DET      0.063867
     17 HM12       -6.6240    1.4440   -0.9640 hx        1 DET      0.063867
     18 HM13       -4.8410    1.7940   -1.0510 hx        1 DET      0.063867
     19 HM21       -6.2870   -1.7020    0.9050 hx        1 DET      0.063867
     20 HM22       -7.4420   -0.4820    0.2070 hx        1 DET      0.063867
     21 HM23       -6.4380   -1.5320   -0.9180 hx        1 DET      0.063867
     22 H11        -4.1150   -1.2000   -1.1290 hx        1 DET      0.059200
     23 H12        -3.9630   -1.4290    0.6840 hx        1 DET      0.059200
     24 H21        -2.9000    0.9090    0.7990 hc        1 DET      0.064700
     25 H22        -2.8280    0.9050   -1.0120 hc        1 DET      0.064700
     26 H31        -1.5380   -1.2780   -0.9410 hc        1 DET      0.039700
     27 H32        -1.5600   -1.2110    0.8650 hc        1 DET      0.039700
     28 H41        -0.3810    1.0140    0.7950 hc        1 DET      0.042700
     29 H42        -0.3490    0.9400   -1.0090 hc        1 DET      0.042700
     30 H51         0.9610   -1.2100   -0.8980 hc        1 DET      0.039200
     31 H52         0.9330   -1.1320    0.9060 hc        1 DET      0.039200
     32 H61         2.1190    1.0890    0.8290 hc        1 DET      0.040700
     33 H62         2.1470    1.0120   -0.9750 hc        1 DET      0.040700
     34 H71         3.4590   -1.1360   -0.8630 hc        1 DET      0.039200
     35 H72         3.4310   -1.0580    0.9410 hc        1 DET      0.039200
     36 H81         4.6170    1.1630    0.8630 hc        1 DET      0.039700
     37 H82         4.6440    1.0860   -0.9400 hc        1 DET      0.039700
     38 H91         5.9570   -1.0620   -0.8280 hc        1 DET      0.039200
     39 H92         5.9290   -0.9840    0.9760 hc        1 DET      0.039200
     40 H101        7.1130    1.2360    0.8980 hc        1 DET      0.038700
     41 H102        7.1400    1.1590   -0.9050 hc        1 DET      0.038700
     42 H111        9.3090    0.3980    0.0640 hc        1 DET      0.032367
     43 H112        8.4570   -0.8890    1.0120 hc        1 DET      0.032367
     44 H113        8.4850   -0.9670   -0.7960 hc        1 DET      0.032367
@<TRIPOS>BOND
     1    1    2 1   
     2    1    3 1   
     3    1    4 1   
     4    1    5 1   
     5    3   16 1   
     6    3   17 1   
     7    3   18 1   
     8    4   19 1   
     9    4   20 1   
    10    4   21 1   
    11    5    6 1   
    12    5   22 1   
    13    5   23 1   
    14    6    7 1   
    15    6   24 1   
    16    6   25 1   
    17    7    8 1   
    18    7   26 1   
    19    7   27 1   
    20    8    9 1   
    21    8   28 1   
    22    8   29 1   
    23    9   10 1   
    24    9   30 1   
    25    9   31 1   
    26   10   11 1   
    27   10   32 1   
    28   10   33 1   
    29   11   12 1   
    30   11   34 1   
    31   11   35 1   
    32   12   13 1   
    33   12   36 1   
    34   12   37 1   
    35   13   14 1   
    36   13   38 1   
    37   13   39 1   
    38   14   15 1   
    39   14   40 1   
    40   14   41 1   
    41   15   42 1   
    42   15   43 1   
    43   15   44 1   
@<TRIPOS>SUBSTRUCTURE
     1 DET         1 TEMP              0 ****  ****    0 ROOT
