@<TRIPOS>MOLECULE
DET
   44    43     1     0     0
SMALL
bcc


@<TRIPOS>ATOM
      1 N          -1.2280   -4.4670    3.4780 n4        1 DET     -0.146600
      2 O          -0.0860   -4.8880    2.8500 o         1 DET     -0.646000
      3 CM1        -0.9940   -4.3900    4.8930 c3        1 DET      0.071600
      4 CM2        -2.2890   -5.4020    3.2200 c3        1 DET      0.071600
      5 C1         -1.6020   -3.1630    2.9820 c3        1 DET      0.093800
      6 C2         -0.6340   -2.7430    1.8450 c3        1 DET     -0.088400
      7 C3         -0.9180   -1.2720    1.4450 c3        1 DET     -0.077400
      8 C4         -0.0910   -0.9110    0.2070 c3        1 DET     -0.078400
      9 C5         -0.1640    0.6170   -0.0360 c3        1 DET     -0.079400
     10 C6          0.4510    0.9500   -1.4000 c3        1 DET     -0.079400
     11 C7          0.5960    2.4830   -1.5380 c3        1 DET     -0.078400
     12 C8          1.0800    2.8330   -2.9710 c3        1 DET     -0.079400
     13 C9          1.5000    4.3310   -3.0290 c3        1 DET     -0.079400
     14 C10         1.7070    4.7520   -4.5050 c3        1 DET     -0.080400
     15 C11         2.3650    6.1520   -4.5570 c3        1 DET     -0.092100
     16 HM11       -1.8020   -4.0810    5.3400 hx        1 DET      0.063867
     17 HM12       -0.7520   -5.2750    5.2310 hx        1 DET      0.063867
     18 HM13       -0.2670   -3.7670    5.0680 hx        1 DET      0.063867
     19 HM21       -2.0370   -6.2820    3.5650 hx        1 DET      0.063867
     20 HM22       -2.4410   -5.4610    2.2600 hx        1 DET      0.063867
     21 HM23       -3.1070   -5.0980    3.6630 hx        1 DET      0.063867
     22 H11        -2.5200   -3.1960    2.6350 hx        1 DET      0.059200
     23 H12        -1.5520   -2.5100    3.7100 hx        1 DET      0.059200
     24 H21         0.2980   -2.8240    2.1580 hc        1 DET      0.064700
     25 H22        -0.7700   -3.3240    1.0670 hc        1 DET      0.064700
     26 H31        -1.8740   -1.1660    1.2440 hc        1 DET      0.039700
     27 H32        -0.6740   -0.6830    2.1820 hc        1 DET      0.039700
     28 H41         0.8430   -1.1740    0.3510 hc        1 DET      0.042700
     29 H42        -0.4460   -1.3820   -0.5710 hc        1 DET      0.042700
     30 H51         0.3320    1.0810    0.6670 hc        1 DET      0.039200
     31 H52        -1.0940    0.9040   -0.0210 hc        1 DET      0.039200
     32 H61        -0.1260    0.6130   -2.1070 hc        1 DET      0.040700
     33 H62         1.3300    0.5320   -1.4710 hc        1 DET      0.040700
     34 H71         1.2480    2.8100   -0.8870 hc        1 DET      0.039200
     35 H72        -0.2680    2.9070   -1.3740 hc        1 DET      0.039200
     36 H81         1.8520    2.2660   -3.2040 hc        1 DET      0.039700
     37 H82         0.3520    2.6730   -3.6100 hc        1 DET      0.039700
     38 H91         0.8050    4.8760   -2.6310 hc        1 DET      0.039200
     39 H92         2.3350    4.4540   -2.5350 hc        1 DET      0.039200
     40 H101        2.2870    4.1010   -4.9510 hc        1 DET      0.038700
     41 H102        0.8400    4.7820   -4.9610 hc        1 DET      0.038700
     42 H111        1.7910    6.7990   -4.0950 hc        1 DET      0.032367
     43 H112        2.4800    6.4250   -5.4940 hc        1 DET      0.032367
     44 H113        3.2440    6.1170   -4.1130 hc        1 DET      0.032367
@<TRIPOS>BOND
     1    1    2 1   
     2    1    3 1   
     3    1    4 1   
     4    1    5 1   
     5    3   16 1   
     6    3   17 1   
     7    3   18 1   
     8    4   19 1   
     9    4   20 1   
    10    4   21 1   
    11    5    6 1   
    12    5   22 1   
    13    5   23 1   
    14    6    7 1   
    15    6   24 1   
    16    6   25 1   
    17    7    8 1   
    18    7   26 1   
    19    7   27 1   
    20    8    9 1   
    21    8   28 1   
    22    8   29 1   
    23    9   10 1   
    24    9   30 1   
    25    9   31 1   
    26   10   11 1   
    27   10   32 1   
    28   10   33 1   
    29   11   12 1   
    30   11   34 1   
    31   11   35 1   
    32   12   13 1   
    33   12   36 1   
    34   12   37 1   
    35   13   14 1   
    36   13   38 1   
    37   13   39 1   
    38   14   15 1   
    39   14   40 1   
    40   14   41 1   
    41   15   42 1   
    42   15   43 1   
    43   15   44 1   
@<TRIPOS>SUBSTRUCTURE
     1 DET         1 TEMP              0 ****  ****    0 ROOT
