@<TRIPOS>MOLECULE
DET
   44    43     1     0     0
SMALL
bcc


@<TRIPOS>ATOM
      1 N           0.0830   -0.0510   -0.0380 n4        1 DET     -0.146600
      2 O           1.3530   -0.0260   -0.1360 o         1 DET     -0.646000
      3 CM1        -0.3630   -0.2540    1.3910 c3        1 DET      0.071600
      4 CM2        -0.5150   -1.1770   -0.8530 c3        1 DET      0.071600
      5 C1         -0.5560    1.2390   -0.5520 c3        1 DET      0.093800
      6 C2         -0.0400    2.4880    0.1430 c3        1 DET     -0.088400
      7 C3         -0.4990    3.7240   -0.6010 c3        1 DET     -0.077400
      8 C4         -0.0360    4.9820    0.1020 c3        1 DET     -0.078400
      9 C5         -0.4840    6.2220   -0.6420 c3        1 DET     -0.079400
     10 C6         -0.0190    7.4800    0.0590 c3        1 DET     -0.079400
     11 C7         -0.4680    8.7200   -0.6840 c3        1 DET     -0.078400
     12 C8         -0.0020    9.9790    0.0160 c3        1 DET     -0.079400
     13 C9         -0.4520   11.2190   -0.7260 c3        1 DET     -0.079400
     14 C10         0.0160   12.4790   -0.0280 c3        1 DET     -0.080400
     15 C11        -0.4310   13.7160   -0.7620 c3        1 DET     -0.092100
     16 HM11        0.0150   -1.2480    1.7400 hx        1 DET      0.063867
     17 HM12        0.0970    0.5480    2.0200 hx        1 DET      0.063867
     18 HM13       -1.4780   -0.2150    1.4570 hx        1 DET      0.063867
     19 HM21       -1.6270   -1.1800   -0.7500 hx        1 DET      0.063867
     20 HM22       -0.2190   -1.0340   -1.9220 hx        1 DET      0.063867
     21 HM23       -0.0830   -2.1410   -0.4840 hx        1 DET      0.063867
     22 H11        -0.3050    1.2990   -1.6460 hx        1 DET      0.059200
     23 H12        -1.6690    1.1540   -0.4290 hx        1 DET      0.059200
     24 H21         1.0830    2.4550    0.1810 hc        1 DET      0.064700
     25 H22        -0.4140    2.5250    1.2000 hc        1 DET      0.064700
     26 H31        -1.6180    3.7270   -0.6790 hc        1 DET      0.039700
     27 H32        -0.0930    3.7080   -1.6470 hc        1 DET      0.039700
     28 H41        -0.4440    5.0030    1.1470 hc        1 DET      0.042700
     29 H42         1.0830    4.9750    0.1840 hc        1 DET      0.042700
     30 H51        -1.6020    6.2280   -0.7250 hc        1 DET      0.039200
     31 H52        -0.0750    6.2020   -1.6870 hc        1 DET      0.039200
     32 H61        -0.4260    7.5000    1.1040 hc        1 DET      0.040700
     33 H62         1.1000    7.4750    0.1400 hc        1 DET      0.040700
     34 H71        -0.0630    8.7000   -1.7300 hc        1 DET      0.039200
     35 H72        -1.5870    8.7270   -0.7630 hc        1 DET      0.039200
     36 H81        -0.4050    9.9990    1.0620 hc        1 DET      0.039700
     37 H82         1.1170    9.9730    0.0930 hc        1 DET      0.039700
     38 H91        -0.0500   11.1990   -1.7730 hc        1 DET      0.039200
     39 H92        -1.5710   11.2260   -0.8020 hc        1 DET      0.039200
     40 H101        1.1350   12.4700    0.0480 hc        1 DET      0.038700
     41 H102       -0.3860   12.4970    1.0200 hc        1 DET      0.038700
     42 H111       -0.0210   13.7290   -1.8010 hc        1 DET      0.032367
     43 H112       -1.5460   13.7560   -0.8270 hc        1 DET      0.032367
     44 H113       -0.0750   14.6330   -0.2320 hc        1 DET      0.032367
@<TRIPOS>BOND
     1    1    2 1   
     2    1    3 1   
     3    1    4 1   
     4    1    5 1   
     5    3   16 1   
     6    3   17 1   
     7    3   18 1   
     8    4   19 1   
     9    4   20 1   
    10    4   21 1   
    11    5    6 1   
    12    5   22 1   
    13    5   23 1   
    14    6    7 1   
    15    6   24 1   
    16    6   25 1   
    17    7    8 1   
    18    7   26 1   
    19    7   27 1   
    20    8    9 1   
    21    8   28 1   
    22    8   29 1   
    23    9   10 1   
    24    9   30 1   
    25    9   31 1   
    26   10   11 1   
    27   10   32 1   
    28   10   33 1   
    29   11   12 1   
    30   11   34 1   
    31   11   35 1   
    32   12   13 1   
    33   12   36 1   
    34   12   37 1   
    35   13   14 1   
    36   13   38 1   
    37   13   39 1   
    38   14   15 1   
    39   14   40 1   
    40   14   41 1   
    41   15   42 1   
    42   15   43 1   
    43   15   44 1   
@<TRIPOS>SUBSTRUCTURE
     1 DET         1 TEMP              0 ****  ****    0 ROOT
