@<TRIPOS>MOLECULE
DET
   44    43     1     0     0
SMALL
bcc


@<TRIPOS>ATOM
      1 N           0.0840   -0.0510   -0.0430 n4        1 DET     -0.146600
      2 O           1.3540   -0.0280   -0.1530 o         1 DET     -0.646000
      3 CM1        -0.3470   -0.2530    1.3910 c3        1 DET      0.071600
      4 CM2        -0.5230   -1.1770   -0.8510 c3        1 DET      0.071600
      5 C1         -0.5580    1.2390   -0.5510 c3        1 DET      0.093800
      6 C2         -0.0350    2.4880    0.1390 c3        1 DET     -0.088400
      7 C3         -0.4990    3.7240   -0.6020 c3        1 DET     -0.077400
      8 C4         -0.0320    4.9820    0.0990 c3        1 DET     -0.078400
      9 C5         -0.4830    6.2220   -0.6430 c3        1 DET     -0.079400
     10 C6         -0.0190    7.4800    0.0580 c3        1 DET     -0.079400
     11 C7         -0.4690    8.7200   -0.6840 c3        1 DET     -0.078400
     12 C8         -0.0040    9.9790    0.0170 c3        1 DET     -0.079400
     13 C9         -0.4540   11.2190   -0.7250 c3        1 DET     -0.079400
     14 C10         0.0100   12.4790   -0.0240 c3        1 DET     -0.080400
     15 C11        -0.4360   13.7160   -0.7590 c3        1 DET     -0.092100
     16 HM11        0.1210    0.5490    2.0150 hx        1 DET      0.063867
     17 HM12        0.0330   -1.2470    1.7360 hx        1 DET      0.063867
     18 HM13       -1.4610   -0.2120    1.4690 hx        1 DET      0.063867
     19 HM21       -0.0880   -2.1410   -0.4860 hx        1 DET      0.063867
     20 HM22       -1.6340   -1.1800   -0.7350 hx        1 DET      0.063867
     21 HM23       -0.2390   -1.0350   -1.9230 hx        1 DET      0.063867
     22 H11        -0.3170    1.2980   -1.6480 hx        1 DET      0.059200
     23 H12        -1.6700    1.1550   -0.4190 hx        1 DET      0.059200
     24 H21        -0.4020    2.5250    1.1990 hc        1 DET      0.064700
     25 H22         1.0880    2.4540    0.1690 hc        1 DET      0.064700
     26 H31        -0.0990    3.7080   -1.6500 hc        1 DET      0.039700
     27 H32        -1.6190    3.7270   -0.6730 hc        1 DET      0.039700
     28 H41        -0.4350    5.0030    1.1450 hc        1 DET      0.042700
     29 H42         1.0870    4.9750    0.1750 hc        1 DET      0.042700
     30 H51        -1.6020    6.2270   -0.7230 hc        1 DET      0.039200
     31 H52        -0.0770    6.2020   -1.6890 hc        1 DET      0.039200
     32 H61         1.1010    7.4750    0.1370 hc        1 DET      0.040700
     33 H62        -0.4240    7.5000    1.1040 hc        1 DET      0.040700
     34 H71        -1.5880    8.7260   -0.7640 hc        1 DET      0.039200
     35 H72        -0.0630    8.7010   -1.7300 hc        1 DET      0.039200
     36 H81         1.1150    9.9740    0.0970 hc        1 DET      0.039700
     37 H82        -0.4100    9.9980    1.0630 hc        1 DET      0.039700
     38 H91        -1.5730   11.2250   -0.8040 hc        1 DET      0.039200
     39 H92        -0.0490   11.2000   -1.7700 hc        1 DET      0.039200
     40 H101        1.1290   12.4710    0.0560 hc        1 DET      0.038700
     41 H102       -0.3950   12.4950    1.0220 hc        1 DET      0.038700
     42 H111       -1.5500   13.7550   -0.8270 hc        1 DET      0.032367
     43 H112       -0.0220   13.7300   -1.7960 hc        1 DET      0.032367
     44 H113       -0.0840   14.6330   -0.2260 hc        1 DET      0.032367
@<TRIPOS>BOND
     1    1    2 1   
     2    1    3 1   
     3    1    4 1   
     4    1    5 1   
     5    3   16 1   
     6    3   17 1   
     7    3   18 1   
     8    4   19 1   
     9    4   20 1   
    10    4   21 1   
    11    5    6 1   
    12    5   22 1   
    13    5   23 1   
    14    6    7 1   
    15    6   24 1   
    16    6   25 1   
    17    7    8 1   
    18    7   26 1   
    19    7   27 1   
    20    8    9 1   
    21    8   28 1   
    22    8   29 1   
    23    9   10 1   
    24    9   30 1   
    25    9   31 1   
    26   10   11 1   
    27   10   32 1   
    28   10   33 1   
    29   11   12 1   
    30   11   34 1   
    31   11   35 1   
    32   12   13 1   
    33   12   36 1   
    34   12   37 1   
    35   13   14 1   
    36   13   38 1   
    37   13   39 1   
    38   14   15 1   
    39   14   40 1   
    40   14   41 1   
    41   15   42 1   
    42   15   43 1   
    43   15   44 1   
@<TRIPOS>SUBSTRUCTURE
     1 DET         1 TEMP              0 ****  ****    0 ROOT
