@<TRIPOS>MOLECULE
DEX
   57    57     1     0     0
SMALL
bcc


@<TRIPOS>ATOM
      1 C1          2.8570   -0.4190   -1.2040 c1        1 DEX     -0.157500
      2 C2          4.3750   -0.1720   -1.3050 c1        1 DEX     -0.157500
      3 C3          5.2580   -0.2390   -0.0040 c1        1 DEX      0.285000
      4 C4          4.5750   -0.4600    1.3800 c2        1 DEX     -0.223000
      5 C5          3.0780   -0.5590    1.4520 c1        1 DEX     -0.041000
      6 C6          2.3100   -1.0170    2.8770 c2        1 DEX     -0.135000
      7 C7          0.8150   -0.3770    2.8890 c3        1 DEX     -0.153000
      8 C8          0.0260   -0.6710    1.6060 c3        1 DEX     -0.124000
      9 C9          0.8200   -0.2500    0.2270 c3        1 DEX      0.144000
     10 C10         2.2500   -0.8570    0.1500 c2        1 DEX     -0.004000
     11 C11         0.0950   -0.5910   -0.9600 c3        1 DEX      0.004000
     12 C12        -1.0330   -0.8290   -0.7130 c3        1 DEX     -0.191000
     13 C13        -1.7530   -0.1980    0.2160 c3        1 DEX     -0.025000
     14 C14        -0.9380    0.0850    1.4500 c3        1 DEX     -0.094000
     15 C15        -0.5830    0.8790    1.3570 c3        1 DEX     -0.158000
     16 C16        -1.5950    1.7960    0.2590 c3        1 DEX     -0.122000
     17 C17        -2.3300    1.0350   -0.2040 c3        1 DEX      0.046000
     18 C18        -2.9010   -1.1340    0.6230 c3        1 DEX     -0.197000
     19 C19         2.0810   -2.3790    0.0820 c3        1 DEX     -0.204000
     20 C20        -2.5210    1.1890   -1.9960 c2        1 DEX      0.179000
     21 C21        -3.8980    1.6190   -2.5990 c3        1 DEX     -0.067000
     22 C22        -0.7030    2.4610   -0.8810 c3        1 DEX     -0.218000
     23 F1          0.9560    1.0880    0.2400 f         1 DEX     -0.160000
     24 O1          6.4800   -0.2030   -0.0890 o         1 DEX     -0.296000
     25 O2          0.7830   -1.9160   -1.6370 oh        1 DEX     -0.329000
     26 O3         -3.6490    1.2040    0.2540 oh        1 DEX     -0.318000
     27 O4         -1.5750    0.9870   -2.7270 o         1 DEX     -0.292000
     28 O5         -3.7350    1.9350   -3.9770 oh        1 DEX     -0.314000
     29 H1          2.2970   -0.3810   -2.0050 ha        1 DEX      0.156500
     30 H2          4.7980   -0.0330   -2.1870 ha        1 DEX      0.156500
     31 H4          5.1190   -0.5940    2.1830 ha        1 DEX      0.148000
     32 H61         2.7500   -0.8800    3.7380 ha        1 DEX      0.095500
     33 H62         2.2730   -1.9940    2.8520 ha        1 DEX      0.095500
     34 H71         0.3230   -0.7420    3.6510 hc        1 DEX      0.096500
     35 H72         0.8880    0.5900    2.9970 hc        1 DEX      0.096500
     36 H8         -0.2580   -1.6090    1.5730 hc        1 DEX      0.104000
     37 H11         0.1390    0.1590   -1.5950 h1        1 DEX      0.118000
     38 H211       -1.0660   -1.7830   -0.4810 hc        1 DEX      0.099500
     39 H221       -1.5270   -0.7230   -1.5610 hc        1 DEX      0.099500
     40 H14        -1.5140    0.0660    2.2480 hc        1 DEX      0.099000
     41 H511        0.3010    0.7980    0.9930 hc        1 DEX      0.104500
     42 H521       -0.5440    1.3320    2.2310 hc        1 DEX      0.104500
     43 H16        -2.0860    2.4840    0.7490 hc        1 DEX      0.099000
     44 H811       -3.3960   -0.7370    1.3700 hc        1 DEX      0.084333
     45 H821       -3.5090   -1.2620   -0.1430 hc        1 DEX      0.084333
     46 H831       -2.5360   -1.9980    0.8980 hc        1 DEX      0.084333
     47 H911        2.6330   -2.8030    0.7780 hc        1 DEX      0.091000
     48 H921        1.1340   -2.6110    0.2270 hc        1 DEX      0.091000
     49 H931        2.3650   -2.7020   -0.8030 hc        1 DEX      0.091000
     50 H112       -4.2350    2.4100   -2.1190 h1        1 DEX      0.117000
     51 H122       -4.5420    0.8810   -2.5060 h1        1 DEX      0.117000
     52 H212       -1.2390    3.1160   -1.3750 hc        1 DEX      0.085667
     53 H222       -0.3870    1.7670   -1.4950 hc        1 DEX      0.085667
     54 H232        0.0760    2.9160   -0.4670 hc        1 DEX      0.085667
     55 HO2         0.5550   -1.9640   -2.4890 ho        1 DEX      0.213000
     56 H3         -3.8400    2.0570    0.2850 ho        1 DEX      0.204000
     57 H5         -4.5170    2.2350   -4.3110 ho        1 DEX      0.215000
@<TRIPOS>BOND
     1    1    2 1   
     2    1   29 1   
     3    2   30 1   
     4    3    4 1   
     5    3   24 1   
     6    4    5 1   
     7    4   31 1   
     8    5   10 1   
     9    6    7 1   
    10    6   32 1   
    11    6   33 1   
    12    7    8 1   
    13    7   34 1   
    14    7   35 1   
    15    8    9 1   
    16    8   14 1   
    17    8   36 1   
    18    9   10 1   
    19    9   11 1   
    20    9   23 1   
    21   10   19 1   
    22   11   12 1   
    23   11   25 1   
    24   11   37 1   
    25   12   13 1   
    26   12   38 1   
    27   12   39 1   
    28   13   14 1   
    29   13   17 1   
    30   13   18 1   
    31   14   15 1   
    32   14   40 1   
    33   15   16 1   
    34   15   41 1   
    35   15   42 1   
    36   16   17 1   
    37   16   22 1   
    38   16   43 1   
    39   17   20 1   
    40   17   26 1   
    41   18   44 1   
    42   18   45 1   
    43   18   46 1   
    44   19   47 1   
    45   19   48 1   
    46   19   49 1   
    47   20   21 1   
    48   20   27 1   
    49   21   28 1   
    50   21   50 1   
    51   21   51 1   
    52   22   52 1   
    53   22   53 1   
    54   22   54 1   
    55   25   55 1   
    56   26   56 1   
    57   28   57 1   
@<TRIPOS>SUBSTRUCTURE
     1 DEX         1 TEMP              0 ****  ****    0 ROOT
