@<TRIPOS>MOLECULE
DEX
   57    60     1     0     0
SMALL
bcc


@<TRIPOS>ATOM
      1 C1          0.1040   -0.0870    0.0260 c2        1 DEX     -0.099200
      2 C2          1.4270    0.1010    0.0200 ce        1 DEX     -0.235200
      3 C3          2.1920    0.3070    1.2610 c         1 DEX      0.563500
      4 C4          1.3930    0.3510    2.4940 ce        1 DEX     -0.241200
      5 C5          0.0630    0.1660    2.5080 c2        1 DEX     -0.044400
      6 C6         -0.7160    0.2350    3.7770 c3        1 DEX     -0.052200
      7 C7         -1.8390    1.2460    3.6640 c3        1 DEX     -0.073400
      8 C8         -2.7280    0.9440    2.4710 c3        1 DEX     -0.069700
      9 C9         -1.8970    0.9170    1.1520 c3        1 DEX      0.208300
     10 C10        -0.7390   -0.1450    1.2670 c3        1 DEX     -0.006600
     11 C11        -2.8380    0.6710   -0.0790 c3        1 DEX      0.126100
     12 C12        -4.0270    1.6380   -0.1130 c3        1 DEX     -0.104400
     13 C13        -4.8010    1.6480    1.1930 c3        1 DEX     -0.025000
     14 C14        -3.8070    1.9960    2.3220 c3        1 DEX     -0.070700
     15 C15        -4.6940    2.3270    3.5130 c3        1 DEX     -0.065400
     16 C16        -5.9350    3.0040    2.9050 c3        1 DEX     -0.088700
     17 C17        -5.8370    2.8120    1.3590 c3        1 DEX      0.061800
     18 C18        -5.5330    0.3340    1.4030 c3        1 DEX     -0.112100
     19 C19        -1.2520   -1.5830    1.3890 c3        1 DEX     -0.072100
     20 C20        -7.1860    2.4660    0.7430 c         1 DEX      0.512100
     21 C21        -7.3960    2.9220   -0.6830 c3        1 DEX      0.036400
     22 C22        -6.0420    4.4470    3.3270 c3        1 DEX     -0.098100
     23 F1         -1.3130    2.1700    0.9430 f         1 DEX     -0.231300
     24 O1          3.4240    0.4390    1.2660 o         1 DEX     -0.533100
     25 O2         -3.2410   -0.6880   -0.0840 oh        1 DEX     -0.600800
     26 O3         -5.2940    3.9400    0.6890 oh        1 DEX     -0.584800
     27 O4         -8.0740    1.8630    1.3520 o         1 DEX     -0.523100
     28 O5         -8.4020    2.1900   -1.3440 oh        1 DEX     -0.586800
     29 H1         -0.4520   -0.2490   -0.9130 ha        1 DEX      0.136000
     30 H2          2.0120    0.1130   -0.9140 ha        1 DEX      0.151000
     31 H4          1.9580    0.5580    3.4180 ha        1 DEX      0.150000
     32 H61        -1.1400   -0.7830    3.9970 hc        1 DEX      0.057700
     33 H62        -0.0490    0.5150    4.6350 hc        1 DEX      0.057700
     34 H71        -1.4100    2.2770    3.5560 hc        1 DEX      0.055700
     35 H72        -2.4580    1.2280    4.5990 hc        1 DEX      0.055700
     36 H8         -3.1940   -0.0690    2.6050 hc        1 DEX      0.076700
     37 H11        -2.2250    0.8550   -1.0110 h1        1 DEX      0.049700
     38 H211       -4.7040    1.3540   -0.9610 hc        1 DEX      0.068200
     39 H221       -3.6310    2.6690   -0.3180 hc        1 DEX      0.068200
     40 H14        -3.2930    2.9600    2.0210 hc        1 DEX      0.078700
     41 H511       -4.9870    1.4000    4.0660 hc        1 DEX      0.050700
     42 H521       -4.1680    3.0040    4.2290 hc        1 DEX      0.050700
     43 H16        -6.8550    2.4570    3.2550 hc        1 DEX      0.080700
     44 H811       -6.1740    0.1080    0.5150 hc        1 DEX      0.052033
     45 H821       -6.1920    0.3900    2.3050 hc        1 DEX      0.052033
     46 H831       -4.8170   -0.5120    1.5410 hc        1 DEX      0.052033
     47 H911       -1.5350   -1.9850    0.3850 hc        1 DEX      0.051367
     48 H921       -2.1470   -1.6380    2.0500 hc        1 DEX      0.051367
     49 H931       -0.4490   -2.2320    1.8150 hc        1 DEX      0.051367
     50 H112       -7.6540    4.0170   -0.6720 h1        1 DEX      0.074200
     51 H122       -6.4610    2.7680   -1.2870 h1        1 DEX      0.074200
     52 H212       -6.1490    4.5080    4.4380 hc        1 DEX      0.042033
     53 H222       -6.9370    4.9300    2.8640 hc        1 DEX      0.042033
     54 H232       -5.1290    5.0190    3.0310 hc        1 DEX      0.042033
     55 HO2        -4.0490   -0.7460   -0.6100 ho        1 DEX      0.411000
     56 H3         -5.8310    4.7060    0.9280 ho        1 DEX      0.408000
     57 H5         -9.1400    2.0770   -0.7270 ho        1 DEX      0.418000
@<TRIPOS>BOND
     1    1    2 2   
     2    1   10 1   
     3    1   29 1   
     4    2    3 1   
     5    2   30 1   
     6    3    4 1   
     7    3   24 2   
     8    4    5 2   
     9    4   31 1   
    10    5    6 1   
    11    5   10 1   
    12    6    7 1   
    13    6   32 1   
    14    6   33 1   
    15    7    8 1   
    16    7   34 1   
    17    7   35 1   
    18    8    9 1   
    19    8   14 1   
    20    8   36 1   
    21    9   10 1   
    22    9   11 1   
    23    9   23 1   
    24   10   19 1   
    25   11   12 1   
    26   11   25 1   
    27   11   37 1   
    28   12   13 1   
    29   12   38 1   
    30   12   39 1   
    31   13   14 1   
    32   13   17 1   
    33   13   18 1   
    34   14   15 1   
    35   14   40 1   
    36   15   16 1   
    37   15   41 1   
    38   15   42 1   
    39   16   17 1   
    40   16   22 1   
    41   16   43 1   
    42   17   20 1   
    43   17   26 1   
    44   18   44 1   
    45   18   45 1   
    46   18   46 1   
    47   19   47 1   
    48   19   48 1   
    49   19   49 1   
    50   20   21 1   
    51   20   27 2   
    52   21   28 1   
    53   21   50 1   
    54   21   51 1   
    55   22   52 1   
    56   22   53 1   
    57   22   54 1   
    58   25   55 1   
    59   26   56 1   
    60   28   57 1   
@<TRIPOS>SUBSTRUCTURE
     1 DEX         1 TEMP              0 ****  ****    0 ROOT
