@<TRIPOS>MOLECULE
DEX
   57    60     1     0     0
SMALL
bcc


@<TRIPOS>ATOM
      1 C1         -1.5750    0.3990   -3.4290 c2        1 DEX     -0.099200
      2 C2         -1.3750    0.9430   -4.6340 ce        1 DEX     -0.235200
      3 C3         -0.1140    0.7640   -5.3720 c         1 DEX      0.563500
      4 C4          0.9260   -0.0010   -4.6680 ce        1 DEX     -0.241200
      5 C5          0.7340   -0.5480   -3.4560 c2        1 DEX     -0.044400
      6 C6          1.8190   -1.3010   -2.7660 c3        1 DEX     -0.052200
      7 C7          2.0790   -0.7280   -1.3880 c3        1 DEX     -0.073400
      8 C8          0.8060   -0.6870   -0.5630 c3        1 DEX     -0.069700
      9 C9         -0.2990    0.1410   -1.2880 c3        1 DEX      0.208300
     10 C10        -0.5790   -0.4680   -2.7140 c3        1 DEX     -0.006600
     11 C11        -1.5850    0.2300   -0.3940 c3        1 DEX      0.126100
     12 C12        -1.2810    0.7120    1.0290 c3        1 DEX     -0.103400
     13 C13        -0.1900   -0.1070    1.6950 c3        1 DEX     -0.025000
     14 C14         1.0580   -0.0490    0.7870 c3        1 DEX     -0.070700
     15 C15         2.1830   -0.5790    1.6620 c3        1 DEX     -0.065400
     16 C16         1.8430   -0.0900    3.0820 c3        1 DEX     -0.088700
     17 C17         0.3960    0.4920    3.0200 c3        1 DEX      0.061800
     18 C18        -0.6700   -1.5180    1.9890 c3        1 DEX     -0.112100
     19 C19        -1.1740   -1.8770   -2.6600 c3        1 DEX     -0.072100
     20 C20        -0.4290    0.0960    4.2370 c         1 DEX      0.512100
     21 C21        -1.5010    1.0750    4.6540 c3        1 DEX      0.036400
     22 C22         2.8660    0.8940    3.5900 c3        1 DEX     -0.098100
     23 F1          0.1410    1.4570   -1.4590 f         1 DEX     -0.231300
     24 O1          0.0610    1.2290   -6.5060 o         1 DEX     -0.533100
     25 O2         -2.2470   -1.0240   -0.4150 oh        1 DEX     -0.600800
     26 O3          0.3660    1.9050    2.8770 oh        1 DEX     -0.584800
     27 O4         -0.2450   -0.9490    4.8690 o         1 DEX     -0.523100
     28 O5         -2.5110    0.4750    5.4330 oh        1 DEX     -0.586800
     29 H1         -2.5300    0.5360   -2.8940 ha        1 DEX      0.136000
     30 H2         -2.1440    1.5540   -5.1340 ha        1 DEX      0.151000
     31 H4          1.8890   -0.0900   -5.1970 ha        1 DEX      0.150000
     32 H61         2.7660   -1.2700   -3.3670 hc        1 DEX      0.057700
     33 H62         1.5100   -2.3790   -2.6780 hc        1 DEX      0.057700
     34 H71         2.4930    0.3110   -1.4840 hc        1 DEX      0.055700
     35 H72         2.8430   -1.3540   -0.8580 hc        1 DEX      0.055700
     36 H8          0.4200   -1.7330   -0.4290 hc        1 DEX      0.076700
     37 H11        -2.2710    0.9930   -0.8700 h1        1 DEX      0.049700
     38 H211       -2.2220    0.6700    1.6370 hc        1 DEX      0.068200
     39 H221       -0.9560    1.7860    0.9710 hc        1 DEX      0.068200
     40 H14         1.2780    1.0470    0.6020 hc        1 DEX      0.078700
     41 H511        3.1730   -0.1890    1.3220 hc        1 DEX      0.050700
     42 H521        2.2230   -1.6960    1.6340 hc        1 DEX      0.050700
     43 H16         1.8200   -0.9770    3.7760 hc        1 DEX      0.080700
     44 H811       -0.8700   -2.0830    1.0470 hc        1 DEX      0.052033
     45 H821        0.0950   -2.0790    2.5820 hc        1 DEX      0.052033
     46 H831       -1.6160   -1.4830    2.5830 hc        1 DEX      0.052033
     47 H911       -1.0200   -2.3850   -3.6440 hc        1 DEX      0.051367
     48 H921       -0.6940   -2.4880   -1.8610 hc        1 DEX      0.051367
     49 H931       -2.2710   -1.8320   -2.4530 hc        1 DEX      0.051367
     50 H112       -2.0230    1.4960    3.7520 h1        1 DEX      0.074200
     51 H122       -1.0140    1.9130    5.2250 h1        1 DEX      0.074200
     52 H212        3.8670    0.4010    3.6460 hc        1 DEX      0.042033
     53 H222        2.9480    1.7750    2.9070 hc        1 DEX      0.042033
     54 H232        2.5960    1.2530    4.6120 hc        1 DEX      0.042033
     55 HO2        -2.8120   -1.0630    0.3680 ho        1 DEX      0.411000
     56 H3          0.8790    2.2800    3.6030 ho        1 DEX      0.408000
     57 H5         -2.0830   -0.1180    6.0670 ho        1 DEX      0.418000
@<TRIPOS>BOND
     1    1    2 2   
     2    1   10 1   
     3    1   29 1   
     4    2    3 1   
     5    2   30 1   
     6    3    4 1   
     7    3   24 2   
     8    4    5 2   
     9    4   31 1   
    10    5    6 1   
    11    5   10 1   
    12    6    7 1   
    13    6   32 1   
    14    6   33 1   
    15    7    8 1   
    16    7   34 1   
    17    7   35 1   
    18    8    9 1   
    19    8   14 1   
    20    8   36 1   
    21    9   10 1   
    22    9   11 1   
    23    9   23 1   
    24   10   19 1   
    25   11   12 1   
    26   11   25 1   
    27   11   37 1   
    28   12   13 1   
    29   12   38 1   
    30   12   39 1   
    31   13   14 1   
    32   13   17 1   
    33   13   18 1   
    34   14   15 1   
    35   14   40 1   
    36   15   16 1   
    37   15   41 1   
    38   15   42 1   
    39   16   17 1   
    40   16   22 1   
    41   16   43 1   
    42   17   20 1   
    43   17   26 1   
    44   18   44 1   
    45   18   45 1   
    46   18   46 1   
    47   19   47 1   
    48   19   48 1   
    49   19   49 1   
    50   20   21 1   
    51   20   27 2   
    52   21   28 1   
    53   21   50 1   
    54   21   51 1   
    55   22   52 1   
    56   22   53 1   
    57   22   54 1   
    58   25   55 1   
    59   26   56 1   
    60   28   57 1   
@<TRIPOS>SUBSTRUCTURE
     1 DEX         1 TEMP              0 ****  ****    0 ROOT
