@<TRIPOS>MOLECULE
DEX
   57    60     1     0     0
SMALL
bcc


@<TRIPOS>ATOM
      1 C1          0.0990   -0.1020    0.0310 c2        1 DEX     -0.099200
      2 C2          1.4230    0.0830    0.0230 ce        1 DEX     -0.235200
      3 C3          2.1890    0.2950    1.2620 c         1 DEX      0.563500
      4 C4          1.3910    0.3490    2.4960 ce        1 DEX     -0.241200
      5 C5          0.0600    0.1660    2.5120 c2        1 DEX     -0.044400
      6 C6         -0.7180    0.2450    3.7800 c3        1 DEX     -0.052200
      7 C7         -1.8390    1.2570    3.6620 c3        1 DEX     -0.073400
      8 C8         -2.7290    0.9500    2.4710 c3        1 DEX     -0.069700
      9 C9         -1.8980    0.9120    1.1520 c3        1 DEX      0.208300
     10 C10        -0.7430   -0.1510    1.2730 c3        1 DEX     -0.006600
     11 C11        -2.8410    0.6600   -0.0770 c3        1 DEX      0.126100
     12 C12        -4.0280    1.6290   -0.1170 c3        1 DEX     -0.103400
     13 C13        -4.8010    1.6500    1.1900 c3        1 DEX     -0.025000
     14 C14        -3.8060    2.0020    2.3160 c3        1 DEX     -0.070700
     15 C15        -4.6910    2.3430    3.5050 c3        1 DEX     -0.065400
     16 C16        -5.9320    3.0180    2.8940 c3        1 DEX     -0.088700
     17 C17        -5.8350    2.8170    1.3490 c3        1 DEX      0.061800
     18 C18        -5.5360    0.3380    1.4090 c3        1 DEX     -0.112100
     19 C19        -1.2580   -1.5870    1.4040 c3        1 DEX     -0.072100
     20 C20        -7.1850    2.4690    0.7360 c         1 DEX      0.512100
     21 C21        -7.3950    2.9160   -0.6920 c3        1 DEX      0.036400
     22 C22        -6.0350    4.4650    3.3070 c3        1 DEX     -0.098100
     23 F1         -1.3120    2.1630    0.9340 f         1 DEX     -0.231300
     24 O1          3.4210    0.4250    1.2660 o         1 DEX     -0.533100
     25 O2         -3.2470   -0.6980   -0.0730 oh        1 DEX     -0.600800
     26 O3         -5.2900    3.9390    0.6710 oh        1 DEX     -0.584800
     27 O4         -8.0740    1.8720    1.3490 o         1 DEX     -0.523100
     28 O5         -8.4030    2.1820   -1.3480 oh        1 DEX     -0.586800
     29 H1         -0.4570   -0.2700   -0.9060 ha        1 DEX      0.136000
     30 H2          2.0070    0.0880   -0.9110 ha        1 DEX      0.151000
     31 H4          1.9560    0.5600    3.4180 ha        1 DEX      0.150000
     32 H61        -0.0500    0.5290    4.6360 hc        1 DEX      0.057700
     33 H62        -1.1430   -0.7710    4.0070 hc        1 DEX      0.057700
     34 H71        -1.4070    2.2870    3.5470 hc        1 DEX      0.055700
     35 H72        -2.4570    1.2460    4.5970 hc        1 DEX      0.055700
     36 H8         -3.1960   -0.0620    2.6120 hc        1 DEX      0.076700
     37 H11        -2.2280    0.8380   -1.0100 h1        1 DEX      0.049700
     38 H211       -4.7060    1.3420   -0.9620 hc        1 DEX      0.068200
     39 H221       -3.6300    2.6590   -0.3280 hc        1 DEX      0.068200
     40 H14        -3.2900    2.9630    2.0090 hc        1 DEX      0.078700
     41 H511       -4.9850    1.4200    4.0640 hc        1 DEX      0.050700
     42 H521       -4.1630    3.0240    4.2170 hc        1 DEX      0.050700
     43 H16        -6.8530    2.4760    3.2480 hc        1 DEX      0.080700
     44 H811       -6.1780    0.1080    0.5230 hc        1 DEX      0.052033
     45 H821       -6.1940    0.4010    2.3110 hc        1 DEX      0.052033
     46 H831       -4.8210   -0.5080    1.5520 hc        1 DEX      0.052033
     47 H911       -1.5430   -1.9950    0.4030 hc        1 DEX      0.051367
     48 H921       -2.1540   -1.6360    2.0660 hc        1 DEX      0.051367
     49 H931       -0.4560   -2.2340    1.8340 hc        1 DEX      0.051367
     50 H112       -6.4610    2.7560   -1.2960 h1        1 DEX      0.074200
     51 H122       -7.6510    4.0120   -0.6880 h1        1 DEX      0.074200
     52 H212       -6.1410    4.5330    4.4170 hc        1 DEX      0.042033
     53 H222       -6.9290    4.9460    2.8410 hc        1 DEX      0.042033
     54 H232       -5.1210    5.0330    3.0070 hc        1 DEX      0.042033
     55 HO2        -4.0550   -0.7570   -0.5980 ho        1 DEX      0.411000
     56 H3         -5.8260    4.7080    0.9050 ho        1 DEX      0.408000
     57 H5         -9.1400    2.0740   -0.7300 ho        1 DEX      0.418000
@<TRIPOS>BOND
     1    1    2 2   
     2    1   10 1   
     3    1   29 1   
     4    2    3 1   
     5    2   30 1   
     6    3    4 1   
     7    3   24 2   
     8    4    5 2   
     9    4   31 1   
    10    5    6 1   
    11    5   10 1   
    12    6    7 1   
    13    6   32 1   
    14    6   33 1   
    15    7    8 1   
    16    7   34 1   
    17    7   35 1   
    18    8    9 1   
    19    8   14 1   
    20    8   36 1   
    21    9   10 1   
    22    9   11 1   
    23    9   23 1   
    24   10   19 1   
    25   11   12 1   
    26   11   25 1   
    27   11   37 1   
    28   12   13 1   
    29   12   38 1   
    30   12   39 1   
    31   13   14 1   
    32   13   17 1   
    33   13   18 1   
    34   14   15 1   
    35   14   40 1   
    36   15   16 1   
    37   15   41 1   
    38   15   42 1   
    39   16   17 1   
    40   16   22 1   
    41   16   43 1   
    42   17   20 1   
    43   17   26 1   
    44   18   44 1   
    45   18   45 1   
    46   18   46 1   
    47   19   47 1   
    48   19   48 1   
    49   19   49 1   
    50   20   21 1   
    51   20   27 2   
    52   21   28 1   
    53   21   50 1   
    54   21   51 1   
    55   22   52 1   
    56   22   53 1   
    57   22   54 1   
    58   25   55 1   
    59   26   56 1   
    60   28   57 1   
@<TRIPOS>SUBSTRUCTURE
     1 DEX         1 TEMP              0 ****  ****    0 ROOT
