@<TRIPOS>MOLECULE
DEY
   62    65     1     0     0
SMALL
bcc


@<TRIPOS>ATOM
      1 O32        -0.4630    0.4840   -0.0980 o         1 DEY     -0.666800
      2 S36         0.8110    0.1070    0.3020 sy        1 DEY      1.545200
      3 O31         1.0260   -1.3050    0.2270 o         1 DEY     -0.666800
      4 C9          1.1420    0.4490    1.9010 ca        1 DEY     -0.455500
      5 C5          0.4030   -0.3010    2.8350 ca        1 DEY     -0.132000
      6 C8          0.8150   -0.3570    4.1500 ca        1 DEY      0.047100
      7 O34         0.2890   -1.2480    5.0810 os        1 DEY     -0.277900
      8 C22        -0.2400   -2.4540    4.5360 c3        1 DEY      0.108100
      9 C17        -0.7450   -3.2650    5.7190 c3        1 DEY     -0.111100
     10 C16         0.8840   -3.2370    3.8350 c         1 DEY      0.499100
     11 O30         1.7860   -3.8610    4.3670 o         1 DEY     -0.382100
     12 N28         0.8960   -3.2570    2.3270 n4        1 DEY     -0.764400
     13 C3          1.8250    0.5180    4.6270 ca        1 DEY     -0.051000
     14 N26         1.9850    0.9520   -0.4560 nh        1 DEY     -0.844100
     15 C14         2.8720    1.8610    0.1360 ce        1 DEY      0.841500
     16 N24         2.9740    2.0130    1.4580 nf        1 DEY     -0.737100
     17 C7          2.1880    1.2850    2.3400 ca        1 DEY      0.311400
     18 C2          2.4730    1.3510    3.7420 ca        1 DEY     -0.104000
     19 C12         3.7610    2.6690   -0.7250 cc        1 DEY     -0.425800
     20 C13         4.9520    3.2300   -0.2610 cd        1 DEY      0.218500
     21 O33         5.4760    3.1160    0.9710 oh        1 DEY     -0.447100
     22 C15         3.3610    2.9460   -2.1120 c         1 DEY      0.698700
     23 O29         2.3240    2.5180   -2.6590 o         1 DEY     -0.644500
     24 N27         4.2400    3.7590   -2.8910 n         1 DEY     -0.169800
     25 C21         3.8290    4.1360   -4.2630 c3        1 DEY      0.101000
     26 C20         3.3050    5.5640   -4.3720 c3        1 DEY     -0.096400
     27 C23         2.8910    5.8690   -5.8060 c3        1 DEY     -0.064700
     28 C19         1.5650    5.2230   -6.1500 c3        1 DEY     -0.094600
     29 C18         2.8080    7.3690   -6.0060 c3        1 DEY     -0.094600
     30 N25         5.3670    4.2550   -2.4380 nc        1 DEY     -0.375300
     31 C11         5.7700    4.0230   -1.1870 cd        1 DEY      0.407200
     32 C10         7.0340    4.5860   -0.7530 cd        1 DEY     -0.190000
     33 C4          7.9300    4.0040    0.1340 cc        1 DEY     -0.111000
     34 S35         7.6150    6.0620   -1.3130 ss        1 DEY      0.111200
     35 C6          9.0110    5.9790   -0.4240 cd        1 DEY     -0.166100
     36 C1          9.0820    4.8190    0.3250 cc        1 DEY     -0.161000
     37 H5         -0.5020   -0.8250    2.4840 ha        1 DEY      0.143000
     38 H22        -1.0770   -2.2330    3.8170 h1        1 DEY      0.082700
     39 H17        -1.4760   -2.6450    6.2960 hc        1 DEY      0.087033
     40 H17A        0.0990   -3.5410    6.3970 hc        1 DEY      0.087033
     41 H17B       -1.2510   -4.1890    5.3530 hc        1 DEY      0.087033
     42 HN28       -0.0450   -3.3910    1.9500 hn        1 DEY      0.478467
     43 HN2A        1.5050   -4.0060    1.9780 hn        1 DEY      0.478467
     44 H3          2.0720    0.5190    5.7020 ha        1 DEY      0.179000
     45 HN26        2.0300    0.9260   -1.4630 hn        1 DEY      0.508800
     46 H2          3.2380    2.0570    4.1060 ha        1 DEY      0.178000
     47 HO33        4.8480    2.6880    1.5870 ho        1 DEY      0.475000
     48 H21         4.7180    4.0060   -4.9430 h1        1 DEY      0.087700
     49 H21A        3.0280    3.4070   -4.5760 h1        1 DEY      0.087700
     50 H20         2.4270    5.7100   -3.6910 hc        1 DEY      0.057700
     51 H20A        4.1040    6.2870   -4.0570 hc        1 DEY      0.057700
     52 H23         3.6790    5.4630   -6.5030 hc        1 DEY      0.049700
     53 H19         1.6240    4.1130   -6.0460 hc        1 DEY      0.039700
     54 H19A        1.2830    5.4640   -7.2030 hc        1 DEY      0.039700
     55 H19B        0.7580    5.5990   -5.4750 hc        1 DEY      0.039700
     56 H18         2.4910    7.6000   -7.0520 hc        1 DEY      0.039700
     57 H18A        3.8010    7.8450   -5.8230 hc        1 DEY      0.039700
     58 H18B        2.0640    7.8170   -5.3040 hc        1 DEY      0.039700
     59 H4          7.7820    3.0450    0.6360 ha        1 DEY      0.158000
     60 H6          9.7740    6.7570   -0.4430 h4        1 DEY      0.183000
     61 H1          9.9080    4.5450    0.9840 ha        1 DEY      0.163000
     62 H283        1.2560   -2.3560    1.9510 hn        1 DEY      0.478467
@<TRIPOS>BOND
     1    1    2 2   
     2    2    3 2   
     3    2    4 1   
     4    2   14 1   
     5    4    5 ar  
     6    4   17 ar  
     7    5    6 ar  
     8    5   37 1   
     9    6    7 1   
    10    6   13 ar  
    11    7    8 1   
    12    8    9 1   
    13    8   10 1   
    14    8   38 1   
    15    9   39 1   
    16    9   40 1   
    17    9   41 1   
    18   10   11 2   
    19   10   12 1   
    20   12   42 1   
    21   12   43 1   
    22   12   62 1   
    23   13   18 ar  
    24   13   44 1   
    25   14   15 1   
    26   14   45 1   
    27   15   16 2   
    28   15   19 1   
    29   16   17 1   
    30   17   18 ar  
    31   18   46 1   
    32   19   20 2   
    33   19   22 1   
    34   20   21 1   
    35   20   31 1   
    36   21   47 1   
    37   22   23 2   
    38   22   24 1   
    39   24   25 1   
    40   24   30 1   
    41   25   26 1   
    42   25   48 1   
    43   25   49 1   
    44   26   27 1   
    45   26   50 1   
    46   26   51 1   
    47   27   28 1   
    48   27   29 1   
    49   27   52 1   
    50   28   53 1   
    51   28   54 1   
    52   28   55 1   
    53   29   56 1   
    54   29   57 1   
    55   29   58 1   
    56   30   31 2   
    57   31   32 1   
    58   32   33 2   
    59   32   34 1   
    60   33   36 1   
    61   33   59 1   
    62   34   35 1   
    63   35   36 2   
    64   35   60 1   
    65   36   61 1   
@<TRIPOS>SUBSTRUCTURE
     1 DEY         1 TEMP              0 ****  ****    0 ROOT
