@<TRIPOS>MOLECULE
DEY
   62    65     1     0     0
SMALL
bcc


@<TRIPOS>ATOM
      1 O32        -0.4490    0.4720   -0.0870 o         1 DEY     -0.666800
      2 S36         0.8280    0.1080    0.3170 sy        1 DEY      1.545200
      3 O31         1.0560   -1.3030    0.2480 o         1 DEY     -0.666800
      4 C9          1.1530    0.4590    1.9150 ca        1 DEY     -0.455500
      5 C5          0.4200   -0.2940    2.8500 ca        1 DEY     -0.132000
      6 C8          0.8310   -0.3410    4.1670 ca        1 DEY      0.047100
      7 O34         0.3120   -1.2340    5.1000 os        1 DEY     -0.277900
      8 C22        -0.2040   -2.4470    4.5590 c3        1 DEY      0.108100
      9 C17        -0.7040   -3.2580    5.7440 c3        1 DEY     -0.111100
     10 C16         0.9280   -3.2220    3.8630 c         1 DEY      0.499100
     11 O30         1.8340   -3.8360    4.3980 o         1 DEY     -0.382100
     12 N28         0.9420   -3.2470    2.3550 nz        1 DEY     -0.764400
     13 C3          1.8320    0.5450    4.6420 ca        1 DEY     -0.051000
     14 N26         1.9950    0.9610   -0.4430 nu        1 DEY     -0.844100
     15 C14         2.8720    1.8810    0.1470 ce        1 DEY      0.841500
     16 N24         2.9700    2.0390    1.4680 nf        1 DEY     -0.737100
     17 C7          2.1900    1.3070    2.3520 ca        1 DEY      0.311400
     18 C2          2.4720    1.3800    3.7540 ca        1 DEY     -0.104000
     19 C12         3.7540    2.6930   -0.7160 cc        1 DEY     -0.425800
     20 C13         4.9390    3.2680   -0.2520 cd        1 DEY      0.218500
     21 O33         5.4620    3.1660    0.9820 oh        1 DEY     -0.447100
     22 C15         3.3550    2.9590   -2.1060 c         1 DEY      0.698700
     23 O29         2.3240    2.5190   -2.6530 o         1 DEY     -0.644500
     24 N27         4.2280    3.7780   -2.8860 n         1 DEY     -0.169800
     25 C21         3.8160    4.1440   -4.2610 c3        1 DEY      0.101000
     26 C20         3.2730    5.5640   -4.3780 c3        1 DEY     -0.096400
     27 C23         2.8610    5.8580   -5.8140 c3        1 DEY     -0.064700
     28 C19         1.5460    5.1910   -6.1620 c3        1 DEY     -0.094600
     29 C18         2.7560    7.3560   -6.0190 c3        1 DEY     -0.094600
     30 N25         5.3490    4.2880   -2.4330 nc        1 DEY     -0.374300
     31 C11         5.7510    4.0660   -1.1800 cd        1 DEY      0.407200
     32 C10         7.0080    4.6440   -0.7460 cd        1 DEY     -0.190000
     33 C4          7.9080    4.0750    0.1450 cc        1 DEY     -0.111000
     34 S35         7.5740    6.1240   -1.3110 ss        1 DEY      0.111200
     35 C6          8.9690    6.0590   -0.4180 cd        1 DEY     -0.166100
     36 C1          9.0500    4.9040    0.3360 cc        1 DEY     -0.161000
     37 H5         -0.4800   -0.8280    2.5010 ha        1 DEY      0.142000
     38 H22        -1.0430   -2.2370    3.8390 h1        1 DEY      0.082700
     39 H17        -1.4410   -2.6430    6.3180 hc        1 DEY      0.087033
     40 H17A       -1.2000   -4.1890    5.3820 hc        1 DEY      0.087033
     41 H17B        0.1420   -3.5240    6.4250 hc        1 DEY      0.087033
     42 HN28        1.5580   -3.9930    2.0100 hn        1 DEY      0.478467
     43 HN2A        1.2950   -2.3450    1.9760 hn        1 DEY      0.478467
     44 H3          2.0770    0.5520    5.7170 ha        1 DEY      0.179000
     45 HN26        2.0410    0.9310   -1.4500 hn        1 DEY      0.508800
     46 H2          3.2310    2.0960    4.1160 ha        1 DEY      0.178000
     47 HO33        4.8370    2.7340    1.5980 ho        1 DEY      0.475000
     48 H21         3.0270    3.4020   -4.5730 h1        1 DEY      0.087700
     49 H21A        4.7100    4.0230   -4.9380 h1        1 DEY      0.087700
     50 H20         4.0610    6.2990   -4.0620 hc        1 DEY      0.057700
     51 H20A        2.3900    5.7000   -3.7000 hc        1 DEY      0.057700
     52 H23         3.6580    5.4620   -6.5070 hc        1 DEY      0.049700
     53 H19         1.6220    4.0830   -6.0550 hc        1 DEY      0.039700
     54 H19A        1.2650    5.4250   -7.2170 hc        1 DEY      0.039700
     55 H19B        0.7310    5.5560   -5.4910 hc        1 DEY      0.039700
     56 H18         2.0020    7.7950   -5.3220 hc        1 DEY      0.039700
     57 H18A        3.7410    7.8480   -5.8330 hc        1 DEY      0.039700
     58 H18B        2.4410    7.5800   -7.0670 hc        1 DEY      0.039700
     59 H4          7.7690    3.1170    0.6510 ha        1 DEY      0.158000
     60 H6          9.7250    6.8450   -0.4390 h4        1 DEY      0.183000
     61 H1          9.8780    4.6410    0.9980 ha        1 DEY      0.163000
     62 H283        0.0030   -3.3910    1.9770 hn        1 DEY      0.478467
@<TRIPOS>BOND
     1    1    2 2   
     2    2    3 2   
     3    2    4 1   
     4    2   14 1   
     5    4    5 ar  
     6    4   17 ar  
     7    5    6 ar  
     8    5   37 1   
     9    6    7 1   
    10    6   13 ar  
    11    7    8 1   
    12    8    9 1   
    13    8   10 1   
    14    8   38 1   
    15    9   39 1   
    16    9   40 1   
    17    9   41 1   
    18   10   11 2   
    19   10   12 1   
    20   12   42 1   
    21   12   43 1   
    22   12   62 1   
    23   13   18 ar  
    24   13   44 1   
    25   14   15 1   
    26   14   45 1   
    27   15   16 2   
    28   15   19 1   
    29   16   17 1   
    30   17   18 ar  
    31   18   46 1   
    32   19   20 2   
    33   19   22 1   
    34   20   21 1   
    35   20   31 1   
    36   21   47 1   
    37   22   23 2   
    38   22   24 1   
    39   24   25 1   
    40   24   30 1   
    41   25   26 1   
    42   25   48 1   
    43   25   49 1   
    44   26   27 1   
    45   26   50 1   
    46   26   51 1   
    47   27   28 1   
    48   27   29 1   
    49   27   52 1   
    50   28   53 1   
    51   28   54 1   
    52   28   55 1   
    53   29   56 1   
    54   29   57 1   
    55   29   58 1   
    56   30   31 2   
    57   31   32 1   
    58   32   33 2   
    59   32   34 1   
    60   33   36 1   
    61   33   59 1   
    62   34   35 1   
    63   35   36 2   
    64   35   60 1   
    65   36   61 1   
@<TRIPOS>SUBSTRUCTURE
     1 DEY         1 TEMP              0 ****  ****    0 ROOT
