@<TRIPOS>MOLECULE
DEY
   61    64     1     0     0
SMALL
bcc


@<TRIPOS>ATOM
      1 O32         2.1170   -3.2520   -2.0540 o         1 DEY     -0.644300
      2 S36         1.8090   -1.8940   -2.2140 sy        1 DEY      1.523200
      3 O31         2.0170   -1.4000   -3.5060 o         1 DEY     -0.644300
      4 C9          2.6440   -0.9550   -1.0950 ca        1 DEY     -0.396500
      5 C5          4.0350   -1.0970   -1.0610 ca        1 DEY     -0.032000
      6 C8          4.8010   -0.3370   -0.1740 ca        1 DEY      0.077100
      7 O34         6.1620   -0.6060   -0.1800 os        1 DEY     -0.332900
      8 C22         7.0130    0.4730    0.2310 c3        1 DEY      0.070100
      9 C17         8.3300    0.2740   -0.4950 c3        1 DEY     -0.098100
     10 C16         7.2240    0.4370    1.7520 c         1 DEY      0.627100
     11 O30         7.1440    1.4880    2.4210 o         1 DEY     -0.617100
     12 N28         7.5350   -0.7600    2.3360 n         1 DEY     -0.652000
     13 C3          4.1890    0.5830    0.6920 ca        1 DEY     -0.123000
     14 N26         0.2490   -1.6250   -1.7560 nh        1 DEY     -0.845100
     15 C14        -0.1720   -0.5930   -0.9080 ce        1 DEY      0.771500
     16 N24         0.6280    0.1610   -0.1800 nf        1 DEY     -0.629100
     17 C7          2.0170   -0.0330   -0.2200 ca        1 DEY      0.236400
     18 C2          2.8120    0.7340    0.6670 ca        1 DEY     -0.099000
     19 C12        -1.6340   -0.3470   -0.8240 cc        1 DEY     -0.329800
     20 C13        -2.1830    0.9120   -0.9490 cd        1 DEY      0.162500
     21 O33        -1.3870    1.9590   -1.2770 oh        1 DEY     -0.447100
     22 C15        -2.5080   -1.4890   -0.5550 c         1 DEY      0.693700
     23 O29        -2.1350   -2.6750   -0.5150 o         1 DEY     -0.621500
     24 N27        -3.8990   -1.1880   -0.3540 n         1 DEY     -0.183800
     25 C21        -4.8070   -2.2820    0.0420 c3        1 DEY      0.098000
     26 C20        -5.2360   -2.2280    1.5050 c3        1 DEY     -0.095400
     27 C23        -6.1230   -3.4200    1.8430 c3        1 DEY     -0.064700
     28 C19        -5.3070   -4.6840    2.0220 c3        1 DEY     -0.093100
     29 C18        -6.9170   -3.1290    3.1010 c3        1 DEY     -0.093100
     30 N25        -4.4010    0.0230   -0.4360 nc        1 DEY     -0.373300
     31 C11        -3.6250    1.0640   -0.7440 cd        1 DEY      0.345200
     32 C10        -4.2340    2.3760   -0.8710 cd        1 DEY     -0.191000
     33 C4         -4.1450    3.2060   -1.9810 cc        1 DEY     -0.150000
     34 S35        -5.1920    3.0630    0.3220 ss        1 DEY      0.114200
     35 C6         -5.4880    4.4410   -0.5510 cd        1 DEY     -0.179100
     36 C1         -4.8730    4.4150   -1.7880 cc        1 DEY     -0.154000
     37 H5          4.5370   -1.8200   -1.7280 ha        1 DEY      0.163000
     38 H22         6.5580    1.4680   -0.0330 h1        1 DEY      0.089700
     39 H17         9.0690    1.0260   -0.1280 hc        1 DEY      0.058033
     40 H17A        8.7280   -0.7530   -0.3170 hc        1 DEY      0.058033
     41 H17B        8.1800    0.4090   -1.5930 hc        1 DEY      0.058033
     42 HN28        7.4760   -1.5950    1.8100 hn        1 DEY      0.318000
     43 HN2A        7.6270   -0.8180    3.3200 hn        1 DEY      0.318000
     44 H3          4.7970    1.1810    1.3930 ha        1 DEY      0.163000
     45 HN26       -0.4750   -2.2600   -2.0190 hn        1 DEY      0.478800
     46 H2          2.3310    1.4550    1.3470 ha        1 DEY      0.160000
     47 HO33       -1.9060    2.7830   -1.2260 ho        1 DEY      0.450000
     48 H21        -5.7200   -2.2420   -0.6190 h1        1 DEY      0.083200
     49 H21A       -4.2610   -3.2470   -0.1620 h1        1 DEY      0.083200
     50 H20        -4.3370   -2.2300    2.1750 hc        1 DEY      0.056200
     51 H20A       -5.8020   -1.2790    1.6990 hc        1 DEY      0.056200
     52 H23        -6.8500   -3.5800    0.9960 hc        1 DEY      0.046700
     53 H19        -4.7410   -4.9260    1.0910 hc        1 DEY      0.037700
     54 H19A       -4.5770   -4.5640    2.8580 hc        1 DEY      0.037700
     55 H19B       -5.9790   -5.5430    2.2600 hc        1 DEY      0.037700
     56 H18        -7.5760   -2.2400    2.9520 hc        1 DEY      0.037700
     57 H18A       -7.5560   -4.0050    3.3640 hc        1 DEY      0.037700
     58 H18B       -6.2300   -2.9210    3.9570 hc        1 DEY      0.037700
     59 H4         -3.6030    2.9680   -2.9000 ha        1 DEY      0.163000
     60 H6         -6.1030    5.2610   -0.1770 h4        1 DEY      0.179000
     61 H1         -4.9290    5.2070   -2.5380 ha        1 DEY      0.162000
@<TRIPOS>BOND
     1    1    2 2   
     2    2    3 2   
     3    2    4 1   
     4    2   14 1   
     5    4    5 ar  
     6    4   17 ar  
     7    5    6 ar  
     8    5   37 1   
     9    6    7 1   
    10    6   13 ar  
    11    7    8 1   
    12    8    9 1   
    13    8   10 1   
    14    8   38 1   
    15    9   39 1   
    16    9   40 1   
    17    9   41 1   
    18   10   11 2   
    19   10   12 1   
    20   12   42 1   
    21   12   43 1   
    22   13   18 ar  
    23   13   44 1   
    24   14   15 1   
    25   14   45 1   
    26   15   16 2   
    27   15   19 1   
    28   16   17 1   
    29   17   18 ar  
    30   18   46 1   
    31   19   20 2   
    32   19   22 1   
    33   20   21 1   
    34   20   31 1   
    35   21   47 1   
    36   22   23 2   
    37   22   24 1   
    38   24   25 1   
    39   24   30 1   
    40   25   26 1   
    41   25   48 1   
    42   25   49 1   
    43   26   27 1   
    44   26   50 1   
    45   26   51 1   
    46   27   28 1   
    47   27   29 1   
    48   27   52 1   
    49   28   53 1   
    50   28   54 1   
    51   28   55 1   
    52   29   56 1   
    53   29   57 1   
    54   29   58 1   
    55   30   31 2   
    56   31   32 1   
    57   32   33 2   
    58   32   34 1   
    59   33   36 1   
    60   33   59 1   
    61   34   35 1   
    62   35   36 2   
    63   35   60 1   
    64   36   61 1   
@<TRIPOS>SUBSTRUCTURE
     1 DEY         1 TEMP              0 ****  ****    0 ROOT
