@<TRIPOS>MOLECULE
DEY
   61    55     1     0     0
SMALL
bcc


@<TRIPOS>ATOM
      1 O32        -2.8590   -0.0620    2.6310 o         1 DEY     -0.927000
      2 S36        -1.8580   -0.8720    1.9910 ss        1 DEY      2.864000
      3 O31        -2.3500   -2.2150    1.8590 o         1 DEY     -0.927000
      4 C9         -0.4570   -0.8990    2.9920 c1        1 DEY     -0.373500
      5 C5         -0.4500   -1.7780    4.0850 c1        1 DEY     -0.080000
      6 C8          0.7560   -2.1200    4.6990 c1        1 DEY      0.008000
      7 O34         0.8250   -2.6700    5.9990 os        1 DEY     -0.197000
      8 C22         1.4950   -3.9060    6.0620 c3        1 DEY      0.015000
      9 C17         0.8340   -4.7860    7.1010 c3        1 DEY     -0.215000
     10 C16         2.9400   -3.6770    6.4400 c2        1 DEY      0.279000
     11 O30         3.3130   -2.5680    6.7730 o         1 DEY     -0.365000
     12 N28         3.8650   -4.7530    6.3950 n         1 DEY     -0.437000
     13 C3          1.9530   -1.5880    4.2260 c1        1 DEY     -0.050000
     14 N26        -1.5940   -0.2910    0.5420 n2        1 DEY     -0.822000
     15 C14        -0.2660    0.0640    0.1510 c2        1 DEY      0.249000
     16 N24         0.7600    0.3640    1.1990 n1        1 DEY     -0.206000
     17 C7          0.7320   -0.3710    2.5220 c1        1 DEY     -0.373500
     18 C2          1.9470   -0.7160    3.1410 c1        1 DEY     -0.080000
     19 C12         0.1690   -0.1150   -1.3070 c2        1 DEY     -0.224000
     20 C13         1.2930    0.5240   -1.5450 c1        1 DEY      0.205000
     21 O33         2.4890    0.0770   -0.9650 o         1 DEY     -0.202000
     22 C15        -0.9070    0.2030   -2.3270 c2        1 DEY      0.332000
     23 O29        -0.5960   -0.0580   -3.4670 o         1 DEY     -0.345000
     24 N27        -1.3820    1.3940   -2.2460 n         1 DEY     -0.213000
     25 C21        -2.7100    1.6780   -2.7530 c3        1 DEY     -0.016000
     26 C20        -2.6030    2.2670   -4.1790 c3        1 DEY     -0.174000
     27 C23        -3.9240    2.0520   -4.9200 c3        1 DEY     -0.105000
     28 C19        -3.8410    0.7780   -5.7450 c3        1 DEY     -0.211000
     29 C18        -4.1870    3.2360   -5.8430 c3        1 DEY     -0.211000
     30 N25        -0.3920    2.4790   -2.1350 n2        1 DEY      0.047000
     31 C11         1.1190    2.0070   -1.8960 c2        1 DEY     -0.113000
     32 C10         2.2650    2.7760   -2.5310 c2        1 DEY     -0.377000
     33 C4          3.4160    2.1940   -3.2050 c1        1 DEY     -0.151000
     34 S35         2.3670    4.3190   -2.6610 ss        1 DEY      0.657000
     35 C6          3.6610    4.6380   -3.4620 c1        1 DEY     -0.449000
     36 C1          4.3020    3.3790   -3.7960 c1        1 DEY     -0.154000
     37 H5         -1.2850   -2.1800    4.3930 ha        1 DEY      0.156000
     38 H22         1.4530   -4.3440    5.1890 h1        1 DEY      0.105000
     39 H17        -0.0050   -5.1430    6.7420 hc        1 DEY      0.095333
     40 H17A        1.4340   -5.5290    7.3310 hc        1 DEY      0.095333
     41 H17B        0.6460   -4.2580    7.9060 hc        1 DEY      0.095333
     42 HN28        4.6570   -4.6930    6.8470 hn        1 DEY      0.226000
     43 HN2A        3.6720   -5.5000    5.9070 hn        1 DEY      0.226000
     44 H3          2.8020   -1.8280    4.6580 ha        1 DEY      0.180000
     45 HN26       -2.2980   -0.0960   -0.0060 hn        1 DEY      0.274000
     46 H2          2.7880   -0.3430    2.8090 ha        1 DEY      0.156000
     47 HO33        2.8130    0.7100   -0.4290 ho        1 DEY      0.249000
     48 H21        -3.2320    0.8520   -2.7790 h1        1 DEY      0.121000
     49 H21A       -3.1520    2.3260   -2.1650 h1        1 DEY      0.121000
     50 H20        -1.8800    1.8180   -4.6630 hc        1 DEY      0.096000
     51 H20A       -2.4110    3.2250   -4.1230 hc        1 DEY      0.096000
     52 H23        -4.6490    1.9750   -4.2750 hc        1 DEY      0.086000
     53 H19        -4.6360    0.7060   -6.3180 hc        1 DEY      0.077167
     54 H19A       -3.7990    0.0030   -5.1460 hc        1 DEY      0.077167
     55 H19B       -3.0370    0.8020   -6.3040 hc        1 DEY      0.077167
     56 H18        -4.7920    3.8670   -5.3990 hc        1 DEY      0.077167
     57 H18A       -4.6000    2.9170   -6.6730 hc        1 DEY      0.077167
     58 H18B       -3.3390    3.6850   -6.0500 hc        1 DEY      0.077167
     59 H4          3.6120    1.2400   -3.2830 DU        1 DEY      0.167667
     60 H6          3.9850    5.5270   -3.6980 DU        1 DEY      0.167667
     61 H1          5.1320    3.2760   -4.2970 DU        1 DEY      0.167667
@<TRIPOS>BOND
     1    1    2 1   
     2    2    3 1   
     3    4    5 1   
     4    4   17 1   
     5    5   37 1   
     6    6    7 1   
     7    6   13 1   
     8    7    8 1   
     9    8    9 1   
    10    8   10 1   
    11    8   38 1   
    12    9   39 1   
    13    9   40 1   
    14    9   41 1   
    15   10   11 1   
    16   10   12 1   
    17   12   42 1   
    18   12   43 1   
    19   13   44 1   
    20   14   15 1   
    21   14   45 1   
    22   15   16 1   
    23   15   19 1   
    24   17   18 1   
    25   18   46 1   
    26   19   20 1   
    27   19   22 1   
    28   20   31 1   
    29   21   47 1   
    30   22   23 1   
    31   22   24 1   
    32   24   25 1   
    33   24   30 1   
    34   25   26 1   
    35   25   48 1   
    36   25   49 1   
    37   26   27 1   
    38   26   50 1   
    39   26   51 1   
    40   27   28 1   
    41   27   29 1   
    42   27   52 1   
    43   28   53 1   
    44   28   54 1   
    45   28   55 1   
    46   29   56 1   
    47   29   57 1   
    48   29   58 1   
    49   30   31 1   
    50   31   32 1   
    51   32   33 1   
    52   32   34 1   
    53   33   36 1   
    54   34   35 1   
    55   35   36 1   
@<TRIPOS>SUBSTRUCTURE
     1 DEY         1 TEMP              0 ****  ****    0 ROOT
