@<TRIPOS>MOLECULE
DEY
   62    65     1     0     0
SMALL
bcc


@<TRIPOS>ATOM
      1 O32        -0.4140    0.4070   -0.1460 o         1 DEY     -0.666800
      2 S36         0.8600    0.0650    0.2850 sy        1 DEY      1.545200
      3 O31         1.1080   -1.3440    0.2340 o         1 DEY     -0.666800
      4 C9          1.1490    0.4350    1.8860 ca        1 DEY     -0.455500
      5 C5          0.4080   -0.3190    2.8140 ca        1 DEY     -0.132000
      6 C8          0.7940   -0.3490    4.1390 ca        1 DEY      0.047100
      7 O34         0.2680   -1.2400    5.0710 os        1 DEY     -0.277900
      8 C22        -0.2220   -2.4640    4.5310 c3        1 DEY      0.108100
      9 C17        -0.7330   -3.2710    5.7140 c3        1 DEY     -0.111100
     10 C16         0.9340   -3.2310    3.8640 c         1 DEY      0.499100
     11 O30         1.8380   -3.8280    4.4230 o         1 DEY     -0.382100
     12 N28         0.9780   -3.2700    2.3570 n4        1 DEY     -0.764400
     13 C3          1.7740    0.5550    4.6250 ca        1 DEY     -0.051000
     14 N26         2.0300    0.9260   -0.4600 nh        1 DEY     -0.844100
     15 C14         2.8830    1.8630    0.1380 ce        1 DEY      0.841500
     16 N24         2.9540    2.0340    1.4600 nf        1 DEY     -0.737100
     17 C7          2.1660    1.3000    2.3350 ca        1 DEY      0.311400
     18 C2          2.4200    1.3900    3.7410 ca        1 DEY     -0.104000
     19 C12         3.7720    2.6790   -0.7150 cc        1 DEY     -0.425800
     20 C13         4.9390    3.2740   -0.2340 cd        1 DEY      0.218500
     21 O33         5.4400    3.1890    1.0110 oh        1 DEY     -0.447100
     22 C15         3.3960    2.9280   -2.1140 c         1 DEY      0.698700
     23 O29         2.3810    2.4690   -2.6770 o         1 DEY     -0.644500
     24 N27         4.2730    3.7510   -2.8850 n         1 DEY     -0.169800
     25 C21         3.8820    4.0990   -4.2710 c3        1 DEY      0.101000
     26 C20         3.3190    5.5100   -4.4090 c3        1 DEY     -0.096400
     27 C23         2.9320    5.7870   -5.8560 c3        1 DEY     -0.064700
     28 C19         1.6360    5.0950   -6.2260 c3        1 DEY     -0.094100
     29 C18         2.8050    7.2820   -6.0740 c3        1 DEY     -0.094100
     30 N25         5.3780    4.2800   -2.4160 nc        1 DEY     -0.375300
     31 C11         5.7590    4.0740   -1.1530 cd        1 DEY      0.407200
     32 C10         6.9990    4.6720   -0.7010 cd        1 DEY     -0.190000
     33 C4          7.8900    4.1230    0.2120 cc        1 DEY     -0.111000
     34 S35         7.5580    6.1550   -1.2690 ss        1 DEY      0.111200
     35 C6          8.9350    6.1160   -0.3490 cd        1 DEY     -0.166100
     36 C1          9.0180    4.9680    0.4170 cc        1 DEY     -0.161000
     37 H5         -0.4780   -0.8680    2.4530 ha        1 DEY      0.143000
     38 H22        -1.0480   -2.2720    3.7920 h1        1 DEY      0.082700
     39 H17        -1.4900   -2.6600    6.2680 hc        1 DEY      0.087033
     40 H17A       -1.2110   -4.2110    5.3510 hc        1 DEY      0.087033
     41 H17B        0.1020   -3.5190    6.4140 hc        1 DEY      0.087033
     42 HN28        1.6110   -4.0100    2.0310 hn        1 DEY      0.478467
     43 HN2A        0.0480   -3.4290    1.9620 hn        1 DEY      0.478467
     44 H3          1.9970    0.5760    5.7040 ha        1 DEY      0.179000
     45 HN26        2.0960    0.8880   -1.4650 hn        1 DEY      0.508800
     46 H2          3.1620    2.1190    4.1110 ha        1 DEY      0.178000
     47 HO33        4.8090    2.7550    1.6190 ho        1 DEY      0.475000
     48 H21         3.1110    3.3430   -4.5930 h1        1 DEY      0.087700
     49 H21A        4.7900    3.9880   -4.9300 h1        1 DEY      0.087700
     50 H20         2.4200    5.6360   -3.7520 hc        1 DEY      0.057700
     51 H20A        4.0870    6.2600   -4.0830 hc        1 DEY      0.057700
     52 H23         3.7500    5.4010   -6.5290 hc        1 DEY      0.049700
     53 H19         1.3730    5.3170   -7.2890 hc        1 DEY      0.039700
     54 H19A        1.7300    3.9890   -6.1110 hc        1 DEY      0.039700
     55 H19B        0.8010    5.4490   -5.5750 hc        1 DEY      0.039700
     56 H18         2.5090    7.4920   -7.1300 hc        1 DEY      0.039700
     57 H18A        3.7770    7.7920   -5.8700 hc        1 DEY      0.039700
     58 H18B        2.0290    7.7120   -5.3960 hc        1 DEY      0.039700
     59 H4          7.7530    3.1680    0.7250 ha        1 DEY      0.158000
     60 H6          9.6810    6.9120   -0.3620 h4        1 DEY      0.183000
     61 H1          9.8360    4.7220    1.0970 ha        1 DEY      0.163000
     62 H283        1.3260   -2.3660    1.9760 hn        1 DEY      0.478467
@<TRIPOS>BOND
     1    1    2 2   
     2    2    3 2   
     3    2    4 1   
     4    2   14 1   
     5    4    5 ar  
     6    4   17 ar  
     7    5    6 ar  
     8    5   37 1   
     9    6    7 1   
    10    6   13 ar  
    11    7    8 1   
    12    8    9 1   
    13    8   10 1   
    14    8   38 1   
    15    9   39 1   
    16    9   40 1   
    17    9   41 1   
    18   10   11 2   
    19   10   12 1   
    20   12   42 1   
    21   12   43 1   
    22   12   62 1   
    23   13   18 ar  
    24   13   44 1   
    25   14   15 1   
    26   14   45 1   
    27   15   16 2   
    28   15   19 1   
    29   16   17 1   
    30   17   18 ar  
    31   18   46 1   
    32   19   20 2   
    33   19   22 1   
    34   20   21 1   
    35   20   31 1   
    36   21   47 1   
    37   22   23 2   
    38   22   24 1   
    39   24   25 1   
    40   24   30 1   
    41   25   26 1   
    42   25   48 1   
    43   25   49 1   
    44   26   27 1   
    45   26   50 1   
    46   26   51 1   
    47   27   28 1   
    48   27   29 1   
    49   27   52 1   
    50   28   53 1   
    51   28   54 1   
    52   28   55 1   
    53   29   56 1   
    54   29   57 1   
    55   29   58 1   
    56   30   31 2   
    57   31   32 1   
    58   32   33 2   
    59   32   34 1   
    60   33   36 1   
    61   33   59 1   
    62   34   35 1   
    63   35   36 2   
    64   35   60 1   
    65   36   61 1   
@<TRIPOS>SUBSTRUCTURE
     1 DEY         1 TEMP              0 ****  ****    0 ROOT
