@<TRIPOS>MOLECULE
DEZ
   19    18     1     0     0
SMALL
bcc


@<TRIPOS>ATOM
      1 OH2        -3.8940   -0.9180    1.0580 o         1 DEZ     -0.881800
      2 C1         -3.6270   -0.1010    0.1210 c         1 DEZ      0.895600
      3 OH1        -4.4730    0.7480   -0.2920 o         1 DEZ     -0.881800
      4 C2         -2.2570   -0.2330   -0.5840 c3        1 DEZ      0.034100
      5 O2         -2.0330   -1.6170   -0.8430 oh        1 DEZ     -0.629800
      6 C3         -1.0840    0.3560    0.2230 c3        1 DEZ      0.113100
      7 O3         -1.0780    1.7640    0.0090 oh        1 DEZ     -0.649800
      8 C4          0.2840   -0.2600   -0.1580 c3        1 DEZ      0.173400
      9 O4          1.2950    0.5670    0.2930 os        1 DEZ     -0.587200
     10 P           2.8720   -0.0590   -0.0360 p5        1 DEZ      1.322900
     11 O1P         2.8700   -1.4020    0.6500 o         1 DEZ     -0.944833
     12 O2P         2.9200   -0.1080   -1.5430 o         1 DEZ     -0.944833
     13 O3P         3.7510    0.9910    0.5990 o         1 DEZ     -0.944833
     14 H2         -2.2970    0.2480   -1.5970 h1        1 DEZ      0.052700
     15 HA         -2.1190   -2.0540    0.0140 ho        1 DEZ      0.400000
     16 H3         -1.2760    0.1840    1.3190 h1        1 DEZ      0.020700
     17 HB         -0.1460    2.0320    0.0130 ho        1 DEZ      0.427000
     18 H4C1        0.3780   -1.2790    0.3070 h1        1 DEZ      0.013200
     19 H4C2        0.3530   -0.3700   -1.2750 h1        1 DEZ      0.013200
@<TRIPOS>BOND
     1    1    2 1   
     2    2    3 1   
     3    2    4 1   
     4    4    5 1   
     5    4    6 1   
     6    4   14 1   
     7    5   15 1   
     8    6    7 1   
     9    6    8 1   
    10    6   16 1   
    11    7   17 1   
    12    8    9 1   
    13    8   18 1   
    14    8   19 1   
    15    9   10 1   
    16   10   11 1   
    17   10   12 1   
    18   10   13 1   
@<TRIPOS>SUBSTRUCTURE
     1 DEZ         1 TEMP              0 ****  ****    0 ROOT
