@<TRIPOS>MOLECULE
DEZ
   19    17     1     0     0
SMALL
bcc


@<TRIPOS>ATOM
      1 OH2        -1.7070    2.7970    1.3580 o         1 DEZ     -0.608000
      2 C1         -1.9980    2.0970    0.3530 c1        1 DEZ      0.315000
      3 OH1        -3.2010    1.9550    0.0110 os        1 DEZ     -0.625000
      4 C2         -0.9010    1.4260   -0.4430 c3        1 DEZ     -0.027000
      5 O2         -1.2550    1.4060   -1.8050 oh        1 DEZ     -0.357000
      6 C3         -0.7150    0.0090    0.0500 c3        1 DEZ      0.002000
      7 O3         -1.1660   -0.0880    1.3800 oh        1 DEZ     -0.377000
      8 C4          0.7500   -0.3580   -0.0130 c3        1 DEZ      0.023000
      9 O4          0.9140   -1.7040    0.3680 os        1 DEZ     -0.749000
     10 P           2.3430   -2.3620    0.2160 p5        1 DEZ      1.556500
     11 O1P         3.3770   -1.4770    0.8700 o         1 DEZ     -0.944833
     12 O2P         2.6710   -2.5190   -1.2500 o         1 DEZ     -0.944833
     13 O3P         2.3470   -3.7180    0.8810 o         1 DEZ     -0.944833
     14 H2         -0.0660    1.9220   -0.3310 h1        1 DEZ      0.092000
     15 HA         -0.7640    2.0000   -2.2480 ho        1 DEZ      0.199000
     16 H3         -1.2290   -0.6020   -0.5140 h1        1 DEZ      0.060000
     17 HB         -1.7370   -0.7660    1.4510 ho        1 DEZ      0.226000
     18 H4C1        1.2580    0.2180    0.5950 h1        1 DEZ      0.052500
     19 H4C2        1.0780   -0.2360   -0.9280 h1        1 DEZ      0.052500
@<TRIPOS>BOND
     1    1    2 1   
     2    2    4 1   
     3    4    5 1   
     4    4    6 1   
     5    4   14 1   
     6    5   15 1   
     7    6    7 1   
     8    6    8 1   
     9    6   16 1   
    10    7   17 1   
    11    8    9 1   
    12    8   18 1   
    13    8   19 1   
    14    9   10 1   
    15   10   11 1   
    16   10   12 1   
    17   10   13 1   
@<TRIPOS>SUBSTRUCTURE
     1 DEZ         1 TEMP              0 ****  ****    0 ROOT
