@<TRIPOS>MOLECULE
DEZ
   19    18     1     0     0
SMALL
bcc


@<TRIPOS>ATOM
      1 OH2        -0.1250    0.1670    0.4280 o         1 DEZ     -0.881800
      2 C1          1.0410   -0.0960   -0.0050 c         1 DEZ      0.895600
      3 OH1         1.2530   -0.4120   -1.2140 o         1 DEZ     -0.881800
      4 C2          2.2020   -0.1210    1.0150 c3        1 DEZ      0.034100
      5 O2          1.7570   -0.8370    2.1640 oh        1 DEZ     -0.629800
      6 C3          2.7020    1.2790    1.4210 c3        1 DEZ      0.113100
      7 O3          3.5850    1.7340    0.3990 oh        1 DEZ     -0.649800
      8 C4          3.4060    1.2970    2.7990 c3        1 DEZ      0.173400
      9 O4          4.1570    2.4510    2.9100 os        1 DEZ     -0.587200
     10 P           4.9460    2.5950    4.4420 p5        1 DEZ      1.322900
     11 O1P         3.8090    2.5430    5.4310 o         1 DEZ     -0.944833
     12 O2P         5.8750    1.4070    4.4680 o         1 DEZ     -0.944833
     13 O3P         5.6250    3.9360    4.3060 o         1 DEZ     -0.944833
     14 H2          3.0580   -0.7240    0.6110 h1        1 DEZ      0.052700
     15 HA          0.9470   -0.3920    2.4450 ho        1 DEZ      0.400000
     16 H3          1.8250    1.9840    1.4430 h1        1 DEZ      0.020700
     17 HB          4.2680    2.2570    0.8480 ho        1 DEZ      0.427000
     18 H4C1        2.6340    1.2550    3.6140 h1        1 DEZ      0.013200
     19 H4C2        4.0750    0.3970    2.8950 h1        1 DEZ      0.013200
@<TRIPOS>BOND
     1    1    2 1   
     2    2    3 1   
     3    2    4 1   
     4    4    5 1   
     5    4    6 1   
     6    4   14 1   
     7    5   15 1   
     8    6    7 1   
     9    6    8 1   
    10    6   16 1   
    11    7   17 1   
    12    8    9 1   
    13    8   18 1   
    14    8   19 1   
    15    9   10 1   
    16   10   11 1   
    17   10   12 1   
    18   10   13 1   
@<TRIPOS>SUBSTRUCTURE
     1 DEZ         1 TEMP              0 ****  ****    0 ROOT
