@<TRIPOS>MOLECULE
DEZ
   19    18     1     0     0
SMALL
bcc


@<TRIPOS>ATOM
      1 OH2        -0.0830    0.1040    0.3870 o         1 DEZ     -0.881800
      2 C1          1.0940   -0.1450   -0.0250 c         1 DEZ      0.895600
      3 OH1         1.3300   -0.4680   -1.2280 o         1 DEZ     -0.881800
      4 C2          2.2390   -0.1430    1.0140 c3        1 DEZ      0.034100
      5 O2          1.7860   -0.8560    2.1610 oh        1 DEZ     -0.629800
      6 C3          2.7110    1.2690    1.4140 c3        1 DEZ      0.113100
      7 O3          3.6030    1.7280    0.4030 oh        1 DEZ     -0.649800
      8 C4          3.3930    1.3090    2.8030 c3        1 DEZ      0.173400
      9 O4          4.1230    2.4760    2.9170 os        1 DEZ     -0.587200
     10 P           4.8860    2.6450    4.4590 p5        1 DEZ      1.322900
     11 O1P         3.7350    2.5830    5.4310 o         1 DEZ     -0.944833
     12 O2P         5.8320    1.4720    4.5090 o         1 DEZ     -0.944833
     13 O3P         5.5450    3.9950    4.3220 o         1 DEZ     -0.944833
     14 H2          3.1100   -0.7360    0.6280 h1        1 DEZ      0.052700
     15 HA          0.9650   -0.4210    2.4260 ho        1 DEZ      0.400000
     16 H3          1.8220    1.9600    1.4170 h1        1 DEZ      0.020700
     17 HB          4.2700    2.2660    0.8580 ho        1 DEZ      0.427000
     18 H4C1        4.0740    0.4210    2.9170 h1        1 DEZ      0.013200
     19 H4C2        2.6080    1.2620    3.6070 h1        1 DEZ      0.013200
@<TRIPOS>BOND
     1    1    2 1   
     2    2    3 1   
     3    2    4 1   
     4    4    5 1   
     5    4    6 1   
     6    4   14 1   
     7    5   15 1   
     8    6    7 1   
     9    6    8 1   
    10    6   16 1   
    11    7   17 1   
    12    8    9 1   
    13    8   18 1   
    14    8   19 1   
    15    9   10 1   
    16   10   11 1   
    17   10   12 1   
    18   10   13 1   
@<TRIPOS>SUBSTRUCTURE
     1 DEZ         1 TEMP              0 ****  ****    0 ROOT
