@<TRIPOS>MOLECULE
DF0
   27    19     1     0     0
SMALL
bcc


@<TRIPOS>ATOM
      1 O           1.5990    1.2970    4.5120 o         1 DF0     -0.569500
      2 C7          2.0420    0.1600    4.2020 c1        1 DF0      0.340000
      3 O1          1.9040   -0.8070    4.9970 o         1 DF0     -0.569500
      4 C6          2.7680   -0.0380    2.8900 c2        1 DF0     -0.221000
      5 C4          1.7670   -0.0420    1.7550 c1        1 DF0      0.029000
      6 C5          1.4640    1.1380    1.0940 c1        1 DF0     -0.193000
      7 C           0.5590    1.1310    0.0440 c1        1 DF0     -0.017500
      8 F           0.2360    2.2770   -0.5690 f         1 DF0     -0.129000
      9 C3          1.1650   -1.2290    1.3660 c1        1 DF0     -0.131667
     10 C2          0.2600   -1.2350    0.3160 c1        1 DF0     -0.131667
     11 C1         -0.0430   -0.0550   -0.3450 c1        1 DF0     -0.017500
     12 C8         -1.0610   -0.0560   -1.4640 c1        1 DF0      0.001000
     13 C13        -2.4140    0.0240   -1.1700 c1        1 DF0     -0.131667
     14 C12        -3.3450    0.0560   -2.1960 c1        1 DF0     -0.131667
     15 C11        -2.9240    0.0080   -3.5160 c1        1 DF0     -0.131667
     16 C10        -1.5720   -0.0720   -3.8100 c1        1 DF0     -0.131667
     17 C9         -0.6410   -0.1040   -2.7840 c1        1 DF0     -0.121000
     18 H2          3.2450   -0.8920    2.9060 ha        1 DF0      0.083000
     19 H3          3.4070    0.6900    2.7570 ha        1 DF0      0.083000
     20 H4          1.9070    1.9680    1.3510 ha        1 DF0      0.139000
     21 H5          1.3780   -2.0600    1.8320 ha        1 DF0      0.135833
     22 H6         -0.1470   -2.0740    0.0290 ha        1 DF0      0.135833
     23 H7         -2.7100    0.0580   -0.2410 ha        1 DF0      0.135833
     24 H8         -4.2980    0.0910   -1.9890 ha        1 DF0      0.135833
     25 H9         -3.5800    0.0300   -4.2380 ha        1 DF0      0.135833
     26 H10        -1.2760   -0.1070   -4.7390 ha        1 DF0      0.135833
     27 H11         0.3120   -0.1600   -2.9910 ha        1 DF0      0.139000
@<TRIPOS>BOND
     1    1    2 1   
     2    2    3 1   
     3    4    5 1   
     4    4   18 1   
     5    4   19 1   
     6    5    6 1   
     7    6   20 1   
     8    7   11 1   
     9    9   10 1   
    10    9   21 1   
    11   10   22 1   
    12   12   17 1   
    13   13   14 1   
    14   13   23 1   
    15   14   24 1   
    16   15   16 1   
    17   15   25 1   
    18   16   26 1   
    19   17   27 1   
@<TRIPOS>SUBSTRUCTURE
     1 DF0         1 TEMP              0 ****  ****    0 ROOT
