@<TRIPOS>MOLECULE
DF0
   27    28     1     0     0
SMALL
bcc


@<TRIPOS>ATOM
      1 O           4.0990   -1.8920    0.8310 o         1 DF0     -0.834800
      2 C7          4.2680   -0.7090    0.4180 c         1 DF0      0.920600
      3 O1          5.0810    0.1150    0.9150 o         1 DF0     -0.834800
      4 C6          3.4550   -0.2460   -0.8190 c3        1 DF0     -0.185100
      5 C4          1.9960   -0.1810   -0.5770 ca        1 DF0      0.021700
      6 C5          1.2520    0.9230   -0.9980 ca        1 DF0     -0.193000
      7 C          -0.1400    0.9650   -0.7970 ca        1 DF0      0.121900
      8 F          -0.8240    2.0550   -1.2350 f         1 DF0     -0.163900
      9 C3          1.3320   -1.2440    0.0620 ca        1 DF0     -0.138000
     10 C2         -0.0390   -1.2030    0.2550 ca        1 DF0     -0.107000
     11 C1         -0.8110   -0.1080   -0.1710 cp        1 DF0     -0.122000
     12 C8         -2.2540   -0.1160    0.0490 cp        1 DF0      0.001000
     13 C13        -2.9270    1.0280    0.5060 ca        1 DF0     -0.122500
     14 C12        -4.3010    0.9960    0.7330 ca        1 DF0     -0.137000
     15 C11        -5.0240   -0.1740    0.5090 ca        1 DF0     -0.147000
     16 C10        -4.3650   -1.3160    0.0530 ca        1 DF0     -0.137000
     17 C9         -2.9910   -1.2890   -0.1750 ca        1 DF0     -0.122500
     18 H2          3.8450    0.7500   -1.1490 hc        1 DF0      0.043700
     19 H3          3.6510   -0.9920   -1.6340 hc        1 DF0      0.043700
     20 H4          1.7480    1.7760   -1.4840 ha        1 DF0      0.138000
     21 H5          1.9460   -2.0890    0.4320 ha        1 DF0      0.196000
     22 H6         -0.5420   -2.0380    0.7660 ha        1 DF0      0.123000
     23 H7         -2.3580    1.9550    0.6780 ha        1 DF0      0.139000
     24 H8         -4.8150    1.8990    1.0920 ha        1 DF0      0.119500
     25 H9         -6.1070   -0.1980    0.6890 ha        1 DF0      0.117000
     26 H10        -4.9310   -2.2410   -0.1270 ha        1 DF0      0.119500
     27 H11        -2.4750   -2.1910   -0.5360 ha        1 DF0      0.139000
@<TRIPOS>BOND
     1    1    2 1   
     2    2    3 1   
     3    2    4 1   
     4    4    5 1   
     5    4   18 1   
     6    4   19 1   
     7    5    6 ar  
     8    5    9 ar  
     9    6    7 ar  
    10    6   20 1   
    11    7    8 1   
    12    7   11 ar  
    13    9   10 ar  
    14    9   21 1   
    15   10   11 ar  
    16   10   22 1   
    17   11   12 1   
    18   12   13 ar  
    19   12   17 ar  
    20   13   14 ar  
    21   13   23 1   
    22   14   15 ar  
    23   14   24 1   
    24   15   16 ar  
    25   15   25 1   
    26   16   17 ar  
    27   16   26 1   
    28   17   27 1   
@<TRIPOS>SUBSTRUCTURE
     1 DF0         1 TEMP              0 ****  ****    0 ROOT
