@<TRIPOS>MOLECULE
DF0
   27    28     1     0     0
SMALL
bcc


@<TRIPOS>ATOM
      1 O           1.2880   -1.9110   -0.1450 o         1 DF0     -0.834800
      2 C7          1.4340   -0.6610   -0.0260 c         1 DF0      0.920600
      3 O1          1.2550   -0.0160    1.0420 o         1 DF0     -0.834800
      4 C6          1.9170    0.1370   -1.2650 c3        1 DF0     -0.185100
      5 C4          0.9440    0.1420   -2.3800 ca        1 DF0      0.021700
      6 C5          0.6400    1.3260   -3.0560 ca        1 DF0     -0.193000
      7 C          -0.2590    1.3200   -4.1390 ca        1 DF0      0.121900
      8 F          -0.5140    2.4940   -4.7740 f         1 DF0     -0.163900
      9 C3          0.3270   -1.0520   -2.7920 ca        1 DF0     -0.138000
     10 C2         -0.5550   -1.0580   -3.8610 ca        1 DF0     -0.107000
     11 C1         -0.8670    0.1190   -4.5640 cp        1 DF0     -0.122000
     12 C8         -1.7970    0.0600   -5.6880 cp        1 DF0      0.001000
     13 C13        -2.7920    1.0330   -5.8610 ca        1 DF0     -0.122500
     14 C12        -3.6860    0.9490   -6.9260 ca        1 DF0     -0.137000
     15 C11        -3.6000   -0.1050   -7.8340 ca        1 DF0     -0.147000
     16 C10        -2.6140   -1.0770   -7.6730 ca        1 DF0     -0.137000
     17 C9         -1.7180   -0.9980   -6.6090 ca        1 DF0     -0.122500
     18 H2          2.8640   -0.3490   -1.6170 hc        1 DF0      0.043700
     19 H3          2.1550    1.1830   -0.9440 hc        1 DF0      0.043700
     20 H4          1.0940    2.2770   -2.7440 ha        1 DF0      0.138000
     21 H5          0.5430   -1.9720   -2.2120 ha        1 DF0      0.196000
     22 H6         -1.0380   -2.0000   -4.1630 ha        1 DF0      0.123000
     23 H7         -2.8570    1.8700   -5.1480 ha        1 DF0      0.139000
     24 H8         -4.4620    1.7180   -7.0490 ha        1 DF0      0.119500
     25 H9         -4.3070   -0.1710   -8.6730 ha        1 DF0      0.117000
     26 H10        -2.5400   -1.9100   -8.3870 ha        1 DF0      0.119500
     27 H11        -0.9390   -1.7650   -6.4860 ha        1 DF0      0.139000
@<TRIPOS>BOND
     1    1    2 1   
     2    2    3 1   
     3    2    4 1   
     4    4    5 1   
     5    4   18 1   
     6    4   19 1   
     7    5    6 ar  
     8    5    9 ar  
     9    6    7 ar  
    10    6   20 1   
    11    7    8 1   
    12    7   11 ar  
    13    9   10 ar  
    14    9   21 1   
    15   10   11 ar  
    16   10   22 1   
    17   11   12 1   
    18   12   13 ar  
    19   12   17 ar  
    20   13   14 ar  
    21   13   23 1   
    22   14   15 ar  
    23   14   24 1   
    24   15   16 ar  
    25   15   25 1   
    26   16   17 ar  
    27   16   26 1   
    28   17   27 1   
@<TRIPOS>SUBSTRUCTURE
     1 DF0         1 TEMP              0 ****  ****    0 ROOT
