@<TRIPOS>MOLECULE
DF1
   46    49     1     0     0
SMALL
bcc


@<TRIPOS>ATOM
      1 C17         1.7940    1.2840   -0.5670 ca        1 DF1     -0.120500
      2 C18         3.1670    1.3230   -0.3280 ca        1 DF1     -0.129500
      3 C19         3.8320    0.1890    0.1350 ca        1 DF1     -0.126000
      4 C20         3.1210   -0.9900    0.3590 ca        1 DF1     -0.129500
      5 C21         1.7480   -1.0360    0.1220 ca        1 DF1     -0.120500
      6 C15         1.0730    0.1020   -0.3440 ca        1 DF1     -0.035800
      7 C7         -0.3550    0.0590   -0.5860 cc        1 DF1     -0.036400
      8 C6         -1.3850    0.1060    0.4200 ca        1 DF1     -0.365400
      9 C4         -1.4350    0.1890    1.8510 ca        1 DF1      0.737200
     10 N10        -0.2590    0.2960    2.5710 nh        1 DF1     -0.851900
     11 C11        -0.2530    0.2200    4.0070 c3        1 DF1      0.180800
     12 C12         1.1720    0.2490    4.5970 c3        1 DF1      0.121100
     13 C14         1.0900    0.2980    6.1110 c3        1 DF1     -0.129100
     14 O13         1.9250   -0.8660    4.1510 oh        1 DF1     -0.598800
     15 N3         -2.6530    0.2110    2.4840 nb        1 DF1     -0.799000
     16 C2         -3.7660    0.1720    1.6980 ca        1 DF1      0.681900
     17 N1         -3.8770    0.1020    0.3560 nb        1 DF1     -0.742000
     18 C5         -2.6580    0.0700   -0.2780 ca        1 DF1      0.474800
     19 N9         -2.3960    0.0050   -1.6440 na        1 DF1     -0.272100
     20 C8         -1.0000   -0.0080   -1.8340 cd        1 DF1     -0.007300
     21 C16        -0.4200   -0.0900   -3.1660 ca        1 DF1     -0.040800
     22 C22        -1.0070    0.5820   -4.2480 ca        1 DF1     -0.113500
     23 C23        -0.4430    0.4880   -5.5190 ca        1 DF1     -0.129500
     24 C24         0.7070   -0.2740   -5.7230 ca        1 DF1     -0.123000
     25 C25         1.2970   -0.9420   -4.6490 ca        1 DF1     -0.129500
     26 C26         0.7380   -0.8540   -3.3760 ca        1 DF1     -0.113500
     27 H17         1.2710    2.1810   -0.9310 ha        1 DF1      0.140000
     28 H18         3.7250    2.2550   -0.5040 ha        1 DF1      0.134000
     29 H19         4.9150    0.2230    0.3250 ha        1 DF1      0.133000
     30 H20         3.6420   -1.8850    0.7300 ha        1 DF1      0.134000
     31 H21         1.1890   -1.9680    0.2960 ha        1 DF1      0.140000
     32 H10         0.5790    0.0260    2.0980 hn        1 DF1      0.451800
     33 H111       -0.7660   -0.7220    4.3590 h1        1 DF1      0.055200
     34 H112       -0.8300    1.0970    4.4180 h1        1 DF1      0.055200
     35 H12         1.7480    1.1360    4.2060 h1        1 DF1      0.087700
     36 H141        2.1170    0.2440    6.5440 hc        1 DF1      0.048033
     37 H142        0.6060    1.2480    6.4380 hc        1 DF1      0.048033
     38 H143        0.4940   -0.5610    6.5020 hc        1 DF1      0.048033
     39 H13         1.5170   -1.6580    4.5230 ho        1 DF1      0.399000
     40 H2         -4.7270    0.1990    2.2570 h5        1 DF1      0.048100
     41 H9         -3.0700   -0.0640   -2.3610 hn        1 DF1      0.312700
     42 H22        -1.9050    1.2000   -4.0980 ha        1 DF1      0.140000
     43 H23        -0.9070    1.0200   -6.3620 ha        1 DF1      0.135000
     44 H24         1.1490   -0.3460   -6.7270 ha        1 DF1      0.134000
     45 H25         2.2060   -1.5410   -4.8050 ha        1 DF1      0.135000
     46 H26         1.2050   -1.3750   -2.5250 ha        1 DF1      0.140000
@<TRIPOS>BOND
     1    1    2 ar  
     2    1    6 ar  
     3    1   27 1   
     4    2    3 ar  
     5    2   28 1   
     6    3    4 ar  
     7    3   29 1   
     8    4    5 ar  
     9    4   30 1   
    10    5    6 ar  
    11    5   31 1   
    12    6    7 1   
    13    7    8 1   
    14    7   20 2   
    15    8    9 ar  
    16    8   18 ar  
    17    9   10 1   
    18    9   15 ar  
    19   10   11 1   
    20   10   32 1   
    21   11   12 1   
    22   11   33 1   
    23   11   34 1   
    24   12   13 1   
    25   12   14 1   
    26   12   35 1   
    27   13   36 1   
    28   13   37 1   
    29   13   38 1   
    30   14   39 1   
    31   15   16 ar  
    32   16   17 ar  
    33   16   40 1   
    34   17   18 ar  
    35   18   19 1   
    36   19   20 1   
    37   19   41 1   
    38   20   21 1   
    39   21   22 ar  
    40   21   26 ar  
    41   22   23 ar  
    42   22   42 1   
    43   23   24 ar  
    44   23   43 1   
    45   24   25 ar  
    46   24   44 1   
    47   25   26 ar  
    48   25   45 1   
    49   26   46 1   
@<TRIPOS>SUBSTRUCTURE
     1 DF1         1 TEMP              0 ****  ****    0 ROOT
