@<TRIPOS>MOLECULE
DF1
   47    50     1     0     0
SMALL
bcc


@<TRIPOS>ATOM
      1 C17         0.0870    0.4090    0.3760 ca        1 DF1     -0.136500
      2 C18         1.4810    0.4130    0.4240 ca        1 DF1     -0.125000
      3 C19         2.1470   -0.0500    1.5590 ca        1 DF1     -0.112000
      4 C20         1.4150   -0.5220    2.6500 ca        1 DF1     -0.125000
      5 C21         0.0220   -0.5300    2.6090 ca        1 DF1     -0.136500
      6 C15        -0.6530   -0.0610    1.4700 ca        1 DF1     -0.072800
      7 C7         -2.1010   -0.0700    1.4280 cc        1 DF1     -0.106400
      8 C6         -2.9590    0.8300    2.1480 ca        1 DF1     -0.274400
      9 C4         -2.8310    1.9030    3.0470 ca        1 DF1      0.519200
     10 N10        -1.4810    2.3310    3.4690 n4        1 DF1     -0.741700
     11 C11        -1.1570    3.7240    3.0380 c3        1 DF1      0.075800
     12 C12         0.2340    4.1580    3.5520 c3        1 DF1      0.125100
     13 C14         0.4540    5.6180    3.2240 c3        1 DF1     -0.138100
     14 O13         0.3130    3.8670    4.9360 oh        1 DF1     -0.615800
     15 N3         -3.9050    2.5590    3.5570 nb        1 DF1     -0.696000
     16 C2         -5.1340    2.1250    3.1530 ca        1 DF1      0.660900
     17 N1         -5.4340    1.1170    2.2990 nb        1 DF1     -0.636000
     18 C5         -4.3470    0.4700    1.7980 ca        1 DF1      0.471800
     19 N9         -4.2840   -0.5970    0.9050 na        1 DF1     -0.263100
     20 C8         -2.9360   -0.9280    0.6840 cd        1 DF1      0.117700
     21 C16        -2.5670   -2.0280   -0.1950 ca        1 DF1     -0.101800
     22 C22        -3.2680   -2.2560   -1.3890 ca        1 DF1     -0.094500
     23 C23        -2.9070   -3.3170   -2.2160 ca        1 DF1     -0.126000
     24 C24        -1.8520   -4.1590   -1.8570 ca        1 DF1     -0.089000
     25 C25        -1.1530   -3.9340   -0.6710 ca        1 DF1     -0.126000
     26 C26        -1.5050   -2.8730    0.1600 ca        1 DF1     -0.094500
     27 H17        -0.4340    0.7580   -0.5290 ha        1 DF1      0.146000
     28 H18         2.0570    0.7710   -0.4450 ha        1 DF1      0.153500
     29 H19         3.2480   -0.0550    1.5900 ha        1 DF1      0.155000
     30 H20         1.9400   -0.9040    3.5400 ha        1 DF1      0.153500
     31 H21        -0.5500   -0.9440    3.4530 ha        1 DF1      0.146000
     32 H10        -1.4070    2.2940    4.4990 hn        1 DF1      0.475300
     33 H111       -1.9470    4.4150    3.4500 hx        1 DF1      0.114700
     34 H112       -1.1780    3.7680    1.9140 hx        1 DF1      0.114700
     35 H12         1.0350    3.5200    3.0740 h1        1 DF1      0.088700
     36 H141        1.4580    5.9360    3.5990 hc        1 DF1      0.071033
     37 H142        0.4190    5.7780    2.1200 hc        1 DF1      0.071033
     38 H143       -0.3250    6.2580    3.7060 hc        1 DF1      0.071033
     39 H13         0.1770    4.6820    5.4370 ho        1 DF1      0.437000
     40 H2         -6.0000    2.6750    3.5870 h5        1 DF1      0.091100
     41 H9         -5.0640   -1.0680    0.5130 hn        1 DF1      0.340700
     42 H22        -4.0930   -1.5920   -1.6900 ha        1 DF1      0.141000
     43 H23        -3.4560   -3.4910   -3.1540 ha        1 DF1      0.151500
     44 H24        -1.5730   -4.9990   -2.5120 ha        1 DF1      0.153000
     45 H25        -0.3210   -4.5970   -0.3870 ha        1 DF1      0.151500
     46 H26        -0.9510   -2.6920    1.0950 ha        1 DF1      0.141000
     47 H102       -0.7920    1.6720    3.0680 hn        1 DF1      0.475300
@<TRIPOS>BOND
     1    1    2 ar  
     2    1    6 ar  
     3    1   27 1   
     4    2    3 ar  
     5    2   28 1   
     6    3    4 ar  
     7    3   29 1   
     8    4    5 ar  
     9    4   30 1   
    10    5    6 ar  
    11    5   31 1   
    12    6    7 1   
    13    7    8 1   
    14    7   20 2   
    15    8    9 ar  
    16    8   18 ar  
    17    9   10 1   
    18    9   15 ar  
    19   10   11 1   
    20   10   32 1   
    21   10   47 1   
    22   11   12 1   
    23   11   33 1   
    24   11   34 1   
    25   12   13 1   
    26   12   14 1   
    27   12   35 1   
    28   13   36 1   
    29   13   37 1   
    30   13   38 1   
    31   14   39 1   
    32   15   16 ar  
    33   16   17 ar  
    34   16   40 1   
    35   17   18 ar  
    36   18   19 1   
    37   19   20 1   
    38   19   41 1   
    39   20   21 1   
    40   21   22 ar  
    41   21   26 ar  
    42   22   23 ar  
    43   22   42 1   
    44   23   24 ar  
    45   23   43 1   
    46   24   25 ar  
    47   24   44 1   
    48   25   26 ar  
    49   25   45 1   
    50   26   46 1   
@<TRIPOS>SUBSTRUCTURE
     1 DF1         1 TEMP              0 ****  ****    0 ROOT
