@<TRIPOS>MOLECULE
DF1
   46    37     1     0     0
SMALL
bcc


@<TRIPOS>ATOM
      1 C17         1.5050   -0.9810    1.4580 c1        1 DF1     -0.122000
      2 C18         2.8900   -0.9430    1.5260 c1        1 DF1     -0.126250
      3 C19         3.6350   -0.7040    0.3790 c1        1 DF1     -0.126250
      4 C20         2.9960   -0.5030   -0.8310 c1        1 DF1     -0.126250
      5 C21         1.6100   -0.5410   -0.9000 c1        1 DF1     -0.126250
      6 C15         0.8650   -0.7800    0.2460 c1        1 DF1     -0.028000
      7 C7         -0.5410   -0.7410    0.1910 c1        1 DF1     -0.058000
      8 C6         -1.4440    0.2710    0.4590 c1        1 DF1     -0.216000
      9 C4         -1.2790    1.6310    0.6970 c1        1 DF1      0.199000
     10 N10        -0.0940    2.4500    0.6920 n3        1 DF1     -0.267000
     11 C11        -0.2120    3.8930    0.6610 c3        1 DF1     -0.033000
     12 C12         0.9140    4.4800   -0.2000 c3        1 DF1     -0.009000
     13 C14         0.3260    5.4010   -1.2390 c3        1 DF1     -0.246000
     14 O13         1.7930    5.1950    0.6120 oh        1 DF1     -0.337000
     15 N3         -2.3520    2.4070    0.9370 n1        1 DF1     -0.267000
     16 C2         -3.6070    1.8580    0.9480 c1        1 DF1      0.015000
     17 N1         -3.7720    0.5170    0.7130 n1        1 DF1     -0.211000
     18 C5         -2.6900   -0.2710    0.4700 c1        1 DF1      0.080000
     19 N9         -2.5690   -1.6260    0.2080 n1        1 DF1     -0.186000
     20 C8         -1.2460   -1.9070    0.0380 c2        1 DF1      0.009000
     21 C16        -1.0340   -3.2230   -0.3040 c1        1 DF1     -0.031000
     22 C22        -1.0180   -3.5940   -1.6400 c1        1 DF1     -0.126250
     23 C23        -0.6600   -4.8860   -1.9960 c1        1 DF1     -0.126250
     24 C24        -0.3160   -5.8070   -1.0160 c1        1 DF1     -0.126250
     25 C25        -0.3310   -5.4360    0.3190 c1        1 DF1     -0.126250
     26 C26        -0.6900   -4.1460    0.6770 c1        1 DF1     -0.101000
     27 H17         0.9820   -1.1490    2.2640 ha        1 DF1      0.145000
     28 H18         3.3390   -1.0840    2.3750 ha        1 DF1      0.134250
     29 H19         4.6120   -0.6770    0.4270 ha        1 DF1      0.134250
     30 H20         3.5220   -0.3340   -1.6410 ha        1 DF1      0.134250
     31 H21         1.1610   -0.4000   -1.7510 ha        1 DF1      0.134250
     32 H10         0.7350    2.0580    0.7780 hn        1 DF1      0.233000
     33 H111       -0.1430    4.2470    1.5760 h1        1 DF1      0.112000
     34 H112       -1.0770    4.1420    0.2810 h1        1 DF1      0.112000
     35 H12         1.3960    3.7560   -0.6420 h1        1 DF1      0.091000
     36 H141       -0.2710    6.0460   -0.8040 hc        1 DF1      0.084333
     37 H142       -0.1810    4.8770   -1.8910 hc        1 DF1      0.084333
     38 H143        1.0490    5.8830   -1.6990 hc        1 DF1      0.084333
     39 H13         2.6040    5.2020    0.2390 ho        1 DF1      0.201000
     40 H2         -4.3860    2.4240    1.1220 ha        1 DF1      0.185000
     41 H9         -3.2580   -2.2280    0.1590 DU        1 DF1      0.264000
     42 H22        -1.2620   -2.9430   -2.3330 ha        1 DF1      0.134250
     43 H23        -0.6480   -5.1470   -2.9360 ha        1 DF1      0.134250
     44 H24        -0.0640   -6.7160   -1.2680 ha        1 DF1      0.134250
     45 H25        -0.0880   -6.0890    1.0130 ha        1 DF1      0.134250
     46 H26        -0.7000   -3.8840    1.6220 ha        1 DF1      0.149000
@<TRIPOS>BOND
     1    1    6 1   
     2    1   27 1   
     3    2    3 1   
     4    2   28 1   
     5    3   29 1   
     6    4    5 1   
     7    4   30 1   
     8    5   31 1   
     9    7    8 1   
    10    7   20 1   
    11    8   18 1   
    12    9   10 1   
    13    9   15 1   
    14   10   11 1   
    15   10   32 1   
    16   11   12 1   
    17   11   33 1   
    18   11   34 1   
    19   12   13 1   
    20   12   14 1   
    21   12   35 1   
    22   13   36 1   
    23   13   37 1   
    24   13   38 1   
    25   14   39 1   
    26   16   17 1   
    27   16   40 1   
    28   19   20 1   
    29   20   21 1   
    30   21   26 1   
    31   22   23 1   
    32   22   42 1   
    33   23   43 1   
    34   24   25 1   
    35   24   44 1   
    36   25   45 1   
    37   26   46 1   
@<TRIPOS>SUBSTRUCTURE
     1 DF1         1 TEMP              0 ****  ****    0 ROOT
