@<TRIPOS>MOLECULE
DF1
   46    49     1     0     0
SMALL
bcc


@<TRIPOS>ATOM
      1 C17         0.0870    0.3230    0.0940 ca        1 DF1     -0.118500
      2 C18         1.4800    0.3140    0.1480 ca        1 DF1     -0.131500
      3 C19         2.1340   -0.0010    1.3380 ca        1 DF1     -0.130000
      4 C20         1.3920   -0.3050    2.4790 ca        1 DF1     -0.131500
      5 C21        -0.0010   -0.2970    2.4320 ca        1 DF1     -0.118500
      6 C15        -0.6650    0.0150    1.2360 ca        1 DF1     -0.033800
      7 C7         -2.1140    0.0230    1.1840 cc        1 DF1     -0.037400
      8 C6         -2.9760    1.0500    1.7120 ca        1 DF1     -0.362400
      9 C4         -2.8060    2.2930    2.4070 ca        1 DF1      0.732200
     10 N10        -1.5270    2.7730    2.6420 nh        1 DF1     -0.840900
     11 C11        -1.3150    3.8960    3.5210 c3        1 DF1      0.211800
     12 C12         0.1730    4.2820    3.6370 c3        1 DF1      0.124100
     13 C14         0.3100    5.5630    4.4380 c3        1 DF1     -0.131100
     14 O13         0.8220    3.1950    4.2890 oh        1 DF1     -0.607800
     15 N3         -3.9130    3.0180    2.7710 nb        1 DF1     -0.795000
     16 C2         -5.1310    2.5190    2.4200 ca        1 DF1      0.680900
     17 N1         -5.4460    1.3850    1.7640 nb        1 DF1     -0.742000
     18 C5         -4.3400    0.6500    1.4110 ca        1 DF1      0.473800
     19 N9         -4.2900   -0.5620    0.7260 na        1 DF1     -0.273100
     20 C8         -2.9410   -0.9490    0.5940 cd        1 DF1     -0.007300
     21 C16        -2.5740   -2.1930   -0.0630 ca        1 DF1     -0.040800
     22 C22        -3.2720   -2.6410   -1.1960 ca        1 DF1     -0.113500
     23 C23        -2.9130   -3.8380   -1.8100 ca        1 DF1     -0.130000
     24 C24        -1.8590   -4.5990   -1.3050 ca        1 DF1     -0.123000
     25 C25        -1.1600   -4.1570   -0.1810 ca        1 DF1     -0.130000
     26 C26        -1.5140   -2.9620    0.4390 ca        1 DF1     -0.113500
     27 H17        -0.4270    0.5710   -0.8470 ha        1 DF1      0.141500
     28 H18         2.0630    0.5550   -0.7530 ha        1 DF1      0.133500
     29 H19         3.2330   -0.0100    1.3780 ha        1 DF1      0.131000
     30 H20         1.9040   -0.5500    3.4210 ha        1 DF1      0.133500
     31 H21        -0.5850   -0.5380    3.3330 ha        1 DF1      0.141500
     32 H10        -0.7990    2.0870    2.6270 hn        1 DF1      0.445800
     33 H111       -1.7050    3.6780    4.5570 h1        1 DF1      0.062200
     34 H112       -1.8730    4.7860    3.1140 h1        1 DF1      0.062200
     35 H12         0.6270    4.4200    2.6140 h1        1 DF1      0.046700
     36 H141       -0.2320    6.3950    3.9270 hc        1 DF1      0.047367
     37 H142       -0.1150    5.4300    5.4620 hc        1 DF1      0.047367
     38 H143        1.3860    5.8420    4.5340 hc        1 DF1      0.047367
     39 H13         1.7390    3.4580    4.4270 ho        1 DF1      0.404000
     40 H2         -5.9940    3.1470    2.7320 h5        1 DF1      0.048100
     41 H9         -5.0670   -1.0910    0.4270 hn        1 DF1      0.312700
     42 H22        -4.0940   -2.0420   -1.6140 ha        1 DF1      0.140000
     43 H23        -3.4620   -4.1820   -2.7000 ha        1 DF1      0.134500
     44 H24        -1.5780   -5.5440   -1.7920 ha        1 DF1      0.133000
     45 H25        -0.3260   -4.7530    0.2180 ha        1 DF1      0.134500
     46 H26        -0.9600   -2.6070    1.3240 ha        1 DF1      0.140000
@<TRIPOS>BOND
     1    1    2 ar  
     2    1    6 ar  
     3    1   27 1   
     4    2    3 ar  
     5    2   28 1   
     6    3    4 ar  
     7    3   29 1   
     8    4    5 ar  
     9    4   30 1   
    10    5    6 ar  
    11    5   31 1   
    12    6    7 1   
    13    7    8 1   
    14    7   20 2   
    15    8    9 ar  
    16    8   18 ar  
    17    9   10 1   
    18    9   15 ar  
    19   10   11 1   
    20   10   32 1   
    21   11   12 1   
    22   11   33 1   
    23   11   34 1   
    24   12   13 1   
    25   12   14 1   
    26   12   35 1   
    27   13   36 1   
    28   13   37 1   
    29   13   38 1   
    30   14   39 1   
    31   15   16 ar  
    32   16   17 ar  
    33   16   40 1   
    34   17   18 ar  
    35   18   19 1   
    36   19   20 1   
    37   19   41 1   
    38   20   21 1   
    39   21   22 ar  
    40   21   26 ar  
    41   22   23 ar  
    42   22   42 1   
    43   23   24 ar  
    44   23   43 1   
    45   24   25 ar  
    46   24   44 1   
    47   25   26 ar  
    48   25   45 1   
    49   26   46 1   
@<TRIPOS>SUBSTRUCTURE
     1 DF1         1 TEMP              0 ****  ****    0 ROOT
