@<TRIPOS>MOLECULE
DF2
   47    49     1     0     0
SMALL
bcc


@<TRIPOS>ATOM
      1 C2          0.5580   -0.2600   -0.3060 c1        1 DF2      0.189400
      2 C10         3.9160    0.1090    2.7150 cc        1 DF2      0.019900
      3 C11         5.2260    0.1790    3.3160 ce        1 DF2     -0.120300
      4 C12         5.5660   -0.5490    4.5950 c3        1 DF2     -0.012000
      5 C13         6.9040   -1.2310    4.4450 c2        1 DF2     -0.149200
      6 C14         7.8600   -0.8240    3.5790 ce        1 DF2     -0.146000
      7 C15         7.6280    0.4590    2.8920 ce        1 DF2     -0.133100
      8 C16         6.3270    0.6800    2.7530 c1        1 DF2     -0.023800
      9 C19         1.8860   -0.6280    5.5570 c2        1 DF2     -0.185200
     10 C20         0.8740   -0.4950    6.4490 ce        1 DF2     -0.124000
     11 C21         0.0350    0.7020    6.3430 ce        1 DF2     -0.171100
     12 C22         0.7060    1.7060    5.7790 c1        1 DF2     -0.041800
     13 N1          1.8960   -0.2430   -0.2490 nf        1 DF2     -0.670700
     14 C26        -4.9750    0.5720    7.4620 c3        1 DF2      0.113900
     15 C6          2.4540   -0.0960    0.9810 cd        1 DF2      0.502600
     16 C5          1.6740    0.0480    2.2350 cd        1 DF2     -0.282600
     17 O27        -5.3090   -0.7770    7.7180 oh        1 DF2     -0.629300
     18 C4          0.2760   -0.0090    2.1090 c2        1 DF2      0.046800
     19 N3         -0.2390   -0.1510    0.8300 nh        1 DF2     -0.217600
     20 N90         3.7990   -0.0670    1.3190 na        1 DF2     -0.274300
     21 C17         1.8430    1.8330    5.1220 c2        1 DF2     -0.190300
     22 C1          2.6440    0.2010    3.3040 cd        1 DF2     -0.102200
     23 C18         2.4550    0.4980    4.7350 c3        1 DF2      0.046900
     24 C23        -4.3400    0.7430    6.0860 c3        1 DF2      0.113900
     25 C8         -1.8730    0.0520    3.3190 c1        1 DF2     -0.110500
     26 O24        -3.1450   -0.0170    6.0910 oh        1 DF2     -0.629300
     27 H2         -1.2270   -0.1900    0.6870 hn        1 DF2      0.305700
     28 H12         4.7680   -1.3190    4.7770 hc        1 DF2      0.079200
     29 H13         5.6120    0.1260    5.4920 hc        1 DF2      0.079200
     30 H14         7.0660   -2.0820    5.1230 ha        1 DF2      0.142000
     31 H15         8.8200   -1.3360    3.4480 ha        1 DF2      0.149000
     32 H16         8.4560    1.1360    2.6690 ha        1 DF2      0.167000
     33 H19         3.5010    0.6480    5.1790 hc        1 DF2      0.094700
     34 H20         2.3880   -1.5970    5.4120 ha        1 DF2      0.139000
     35 H21         0.5630   -1.3060    7.1210 ha        1 DF2      0.149000
     36 H22        -1.0380    0.6520    6.5690 ha        1 DF2      0.194000
     37 H262       -4.2750    0.9470    8.2560 h1        1 DF2      0.038200
     38 H27        -4.5150   -1.2990    7.5440 ho        1 DF2      0.430500
     39 H90         4.5590   -0.0950    0.6870 hn        1 DF2      0.327700
     40 H17         2.4430    2.7380    4.9910 ha        1 DF2      0.161000
     41 H23        -4.1080    1.8240    5.8970 h1        1 DF2      0.038200
     42 H8C1       -5.0340    0.3670    5.2870 h1        1 DF2      0.038200
     43 H8C2       -2.4750    0.0090    2.3920 ha        1 DF2      0.010500
     44 H24        -2.7950   -0.0100    5.1800 ho        1 DF2      0.430500
     45 N9         -0.5760    0.0530    3.2600 nh        1 DF2     -0.161600
     46 H261       -5.9460    1.1300    7.5130 h1        1 DF2      0.038200
     47 HN1        -0.0570    0.1030    4.1240 hn        1 DF2      0.328700
@<TRIPOS>BOND
     1    1   13 2   
     2    1   19 2   
     3    2    3 1   
     4    2   20 1   
     5    2   22 2   
     6    3    4 1   
     7    3    8 2   
     8    4    5 1   
     9    4   28 1   
    10    4   29 1   
    11    5    6 2   
    12    5   30 1   
    13    6    7 1   
    14    6   31 1   
    15    7    8 2   
    16    7   32 1   
    17    9   10 2   
    18    9   23 1   
    19    9   34 1   
    20   10   11 1   
    21   10   35 1   
    22   11   12 2   
    23   11   36 1   
    24   12   21 2   
    25   13   15 1   
    26   14   17 1   
    27   14   24 1   
    28   14   37 1   
    29   14   46 1   
    30   15   16 1   
    31   15   20 2   
    32   16   18 2   
    33   16   22 1   
    34   17   38 1   
    35   18   19 1   
    36   18   45 1   
    37   19   27 1   
    38   20   39 1   
    39   21   23 1   
    40   21   40 1   
    41   22   23 1   
    42   23   33 1   
    43   24   26 1   
    44   24   41 1   
    45   24   42 1   
    46   25   43 1   
    47   25   45 3   
    48   26   44 1   
    49   45   47 1   
@<TRIPOS>SUBSTRUCTURE
     1 DF2         1 TEMP              0 ****  ****    0 ROOT
