@<TRIPOS>MOLECULE
DF2
   48    51     1     0     0
SMALL
bcc


@<TRIPOS>ATOM
      1 C2         -0.0790   -0.9600    0.2400 c1        1 DF2      0.254400
      2 C10         3.4300   -0.5020    3.0760 cc        1 DF2      0.115900
      3 C11         4.7480   -0.5170    3.6580 ce        1 DF2     -0.156300
      4 C12         5.9970   -0.3510    2.8220 c3        1 DF2     -0.027000
      5 C13         7.0160    0.4680    3.5700 c2        1 DF2     -0.121200
      6 C14         7.0340    0.6090    4.9150 ce        1 DF2     -0.155000
      7 C15         6.1300   -0.2700    5.6710 ce        1 DF2     -0.090100
      8 C16         5.0390   -0.5470    4.9610 c1        1 DF2     -0.028800
      9 C19         2.0370   -0.9530    6.0480 c2        1 DF2     -0.125200
     10 C20         1.0740   -1.1160    6.9870 ce        1 DF2     -0.149000
     11 C21        -0.1190   -0.2850    6.8500 ce        1 DF2     -0.117100
     12 C22         0.1470    0.8740    6.2350 c1        1 DF2     -0.181800
     13 N1          1.2670   -1.0810    0.2710 nf        1 DF2     -0.621700
     14 C26        -3.0130    2.0960    5.2510 c3        1 DF2      0.094400
     15 C6          1.8800   -0.8130    1.4340 cd        1 DF2      0.513600
     16 C5          1.1630   -0.3850    2.6900 cd        1 DF2     -0.193600
     17 O27        -2.8370    2.0600    6.6470 oh        1 DF2     -0.580800
     18 C4         -0.2220   -0.2840    2.5750 c2        1 DF2      0.024900
     19 N3         -0.8110   -0.5750    1.3440 nh        1 DF2     -0.203600
     20 N90         3.2370   -0.8590    1.7290 na        1 DF2     -0.289300
     21 C17         1.1630    1.3150    5.5070 c2        1 DF2     -0.170300
     22 C1          2.1960   -0.2000    3.6880 cd        1 DF2     -0.173200
     23 C18         2.1200    0.2190    5.1000 c3        1 DF2      0.029900
     24 C23        -3.2950    0.6770    4.7320 c3        1 DF2      0.088100
     25 C8         -2.4910    0.2960    3.4770 c3        1 DF2      0.098800
     26 O24        -2.9860   -0.2950    5.7170 oh        1 DF2     -0.630800
     27 H2         -1.8010   -0.5200    1.2210 hn        1 DF2      0.317700
     28 H12         5.7240    0.2010    1.8820 hc        1 DF2      0.086700
     29 H13         6.4630   -1.3300    2.5270 hc        1 DF2      0.086700
     30 H14         7.7900    0.9320    2.9370 ha        1 DF2      0.159000
     31 H15         7.7510    1.2400    5.4550 ha        1 DF2      0.166000
     32 H16         6.4290   -0.6940    6.6360 ha        1 DF2      0.182000
     33 H19         3.1220    0.7160    5.3590 hc        1 DF2      0.138700
     34 H20         2.8590   -1.6810    5.9330 ha        1 DF2      0.166000
     35 H21         1.0990   -1.9130    7.7420 ha        1 DF2      0.167000
     36 H22        -1.1070   -0.6650    7.1370 ha        1 DF2      0.173000
     37 H27        -1.9210    1.7920    6.8280 ho        1 DF2      0.426000
     38 H90         3.9500   -1.1440    1.1000 hn        1 DF2      0.340700
     39 H17         1.4490    2.3600    5.3420 ha        1 DF2      0.171000
     40 H23        -2.6350    1.1000    2.7010 hx        1 DF2      0.111700
     41 H8C1       -4.3850    0.5880    4.4470 h1        1 DF2      0.092700
     42 H8C2       -2.8970   -0.6890    3.1030 hx        1 DF2      0.111700
     43 H24        -3.4690   -0.0530    6.5240 ho        1 DF2      0.462000
     44 N9         -1.0320    0.1290    3.7400 n4        1 DF2     -0.652800
     45 H261       -2.1320    2.5580    4.7360 h1        1 DF2      0.064200
     46 HN1        -0.9140   -0.5720    4.4970 hn        1 DF2      0.479800
     47 H92        -0.6490    1.0260    4.0960 hn        1 DF2      0.479800
     48 H262       -3.9150    2.7500    5.0890 h1        1 DF2      0.064200
@<TRIPOS>BOND
     1    1   13 2   
     2    1   19 2   
     3    2    3 1   
     4    2   20 1   
     5    2   22 2   
     6    3    4 1   
     7    3    8 2   
     8    4    5 1   
     9    4   28 1   
    10    4   29 1   
    11    5    6 2   
    12    5   30 1   
    13    6    7 1   
    14    6   31 1   
    15    7    8 2   
    16    7   32 1   
    17    9   10 2   
    18    9   23 1   
    19    9   34 1   
    20   10   11 1   
    21   10   35 1   
    22   11   12 2   
    23   11   36 1   
    24   12   21 2   
    25   13   15 1   
    26   14   17 1   
    27   14   24 1   
    28   14   45 1   
    29   14   48 1   
    30   15   16 1   
    31   15   20 2   
    32   16   18 2   
    33   16   22 1   
    34   17   37 1   
    35   18   19 1   
    36   18   44 1   
    37   19   27 1   
    38   20   38 1   
    39   21   23 1   
    40   21   39 1   
    41   22   23 1   
    42   23   33 1   
    43   24   25 1   
    44   24   26 1   
    45   24   41 1   
    46   25   40 1   
    47   25   42 1   
    48   25   44 1   
    49   26   43 1   
    50   44   46 1   
    51   44   47 1   
@<TRIPOS>SUBSTRUCTURE
     1 DF2         1 TEMP              0 ****  ****    0 ROOT
