@<TRIPOS>MOLECULE
DF2
   47    39     1     0     0
SMALL
bcc


@<TRIPOS>ATOM
      1 C2         -1.5460    0.5050   -3.7800 c1        1 DF2      0.015000
      2 C10         1.9780    0.6810   -0.9070 c2        1 DF2      0.011000
      3 C11         3.3500    0.6880   -0.6490 c1        1 DF2     -0.030000
      4 C12         4.0120   -0.5080   -0.4230 c1        1 DF2     -0.125750
      5 C13         5.3230   -0.5010    0.0250 c1        1 DF2     -0.125750
      6 C14         5.9740    0.7050    0.2480 c1        1 DF2     -0.125750
      7 C15         5.3130    1.9030    0.0230 c1        1 DF2     -0.125750
      8 C16         4.0050    1.8970   -0.4240 c1        1 DF2     -0.124000
      9 C19         0.5390   -0.4790    1.7840 c1        1 DF2     -0.125750
     10 C20         0.4050   -0.4250    3.1650 c1        1 DF2     -0.125750
     11 C21         0.2990    0.7990    3.8020 c1        1 DF2     -0.125750
     12 C22         0.3290    1.9780    3.0570 c1        1 DF2     -0.125750
     13 N1         -0.1830    0.6910   -3.7560 n1        1 DF2     -0.210000
     14 C26        -4.4500   -2.8730   -0.3010 c3        1 DF2     -0.055000
     15 C6          0.4790    0.7250   -2.5670 c1        1 DF2      0.080000
     16 C5         -0.2080    0.5760   -1.4070 c1        1 DF2     -0.215000
     17 O27        -4.2310   -3.8240    0.7250 oh        1 DF2     -0.339000
     18 N9         -2.6890    0.2610   -0.5160 n3        1 DF2     -0.266000
     19 C4         -1.5840    0.3890   -1.4360 c2        1 DF2      0.199000
     20 N3         -2.2350    0.3550   -2.6150 n2        1 DF2     -0.268000
     21 N90         1.8460    0.7910   -2.2570 n1        1 DF2     -0.187000
     22 C17         0.4630    1.9250    1.6800 c1        1 DF2     -0.106000
     23 C1          0.7130    0.5470   -0.3630 c1        1 DF2     -0.060000
     24 C18         0.5680    0.6990    1.0410 c1        1 DF2     -0.023000
     25 C23        -4.2110   -1.4580    0.2500 c3        1 DF2     -0.004000
     26 C8         -3.8520   -0.5310   -0.8860 c3        1 DF2     -0.034000
     27 O24        -5.3760   -0.9980    0.8780 oh        1 DF2     -0.339000
     28 H2         -2.0190    0.4800   -4.6320 ha        1 DF2      0.185000
     29 H12         3.5600   -1.3470   -0.5780 ha        1 DF2      0.136625
     30 H13         5.7850   -1.3380    0.1830 ha        1 DF2      0.136625
     31 H14         6.8970    0.7100    0.5640 ha        1 DF2      0.136625
     32 H15         5.7710    2.7500    0.1800 ha        1 DF2      0.136625
     33 H16         3.5370    2.7470   -0.5840 ha        1 DF2      0.132000
     34 H19         0.6130   -1.3430    1.3330 ha        1 DF2      0.136625
     35 H20         0.3840   -1.2520    3.6870 ha        1 DF2      0.136625
     36 H21         0.2040    0.8370    4.7790 ha        1 DF2      0.136625
     37 H22         0.2540    2.8410    3.5060 ha        1 DF2      0.136625
     38 H261       -3.8320   -3.0420   -1.0400 h1        1 DF2      0.076500
     39 H262       -5.3840   -2.9480   -0.6290 h1        1 DF2      0.076500
     40 H27        -4.1750   -4.6370    0.3680 ho        1 DF2      0.208000
     41 H90         2.5230    0.8440   -2.8520 DU        1 DF2      0.264000
     42 H17         0.4830    2.7430    1.1640 ha        1 DF2      0.142000
     43 H23        -3.4810   -1.4790    0.8950 h1        1 DF2      0.105000
     44 H8C1       -3.6490   -1.0540   -1.6780 h1        1 DF2      0.112000
     45 H8C2       -4.6070    0.0640   -1.0730 h1        1 DF2      0.112000
     46 H24        -5.2080   -0.8450    1.7370 ho        1 DF2      0.221000
     47 HN1        -2.6900    0.7470    0.2760 hn        1 DF2      0.234000
@<TRIPOS>BOND
     1    1   20 1   
     2    1   28 1   
     3    2    3 1   
     4    2   21 1   
     5    2   23 1   
     6    3    8 1   
     7    4    5 1   
     8    4   29 1   
     9    5   30 1   
    10    6    7 1   
    11    6   31 1   
    12    7   32 1   
    13    8   33 1   
    14    9   10 1   
    15    9   34 1   
    16   10   35 1   
    17   11   12 1   
    18   11   36 1   
    19   12   37 1   
    20   13   15 1   
    21   14   17 1   
    22   14   25 1   
    23   14   38 1   
    24   14   39 1   
    25   16   19 1   
    26   17   40 1   
    27   18   19 1   
    28   18   26 1   
    29   18   47 1   
    30   19   20 1   
    31   22   24 1   
    32   22   42 1   
    33   23   24 1   
    34   25   26 1   
    35   25   27 1   
    36   25   43 1   
    37   26   44 1   
    38   26   45 1   
    39   27   46 1   
@<TRIPOS>SUBSTRUCTURE
     1 DF2         1 TEMP              0 ****  ****    0 ROOT
