@<TRIPOS>MOLECULE
DF2
   47    50     1     0     0
SMALL
bcc


@<TRIPOS>ATOM
      1 C2          3.3420    3.1710   -2.1540 ca        1 DF2      0.680900
      2 C10         5.5310   -0.6630   -1.3330 cc        1 DF2     -0.004300
      3 C11         6.4810   -1.7650   -1.3180 ca        1 DF2     -0.044800
      4 C12         7.0230   -2.2610   -2.5130 ca        1 DF2     -0.112500
      5 C13         7.9380   -3.3110   -2.4820 ca        1 DF2     -0.130500
      6 C14         8.3210   -3.8740   -1.2640 ca        1 DF2     -0.121000
      7 C15         7.7830   -3.3850   -0.0740 ca        1 DF2     -0.130500
      8 C16         6.8680   -2.3350   -0.0960 ca        1 DF2     -0.112500
      9 C19         3.3840   -2.6350    0.1050 ca        1 DF2     -0.120000
     10 C20         2.8660   -3.4890    1.0770 ca        1 DF2     -0.134000
     11 C21         2.8060   -3.0810    2.4100 ca        1 DF2     -0.124000
     12 C22         3.2650   -1.8140    2.7690 ca        1 DF2     -0.134000
     13 N1          4.4440    2.5430   -2.6090 nb        1 DF2     -0.738000
     14 C26         0.5770    0.9870    3.1810 c3        1 DF2      0.137400
     15 C6          4.6690    1.3400   -1.9850 ca        1 DF2      0.473800
     16 C5          3.8140    0.8010   -0.9410 ca        1 DF2     -0.363400
     17 O27        -0.2760    0.5360    4.2120 oh        1 DF2     -0.599800
     18 C4          2.6780    1.5910   -0.5690 ca        1 DF2      0.733200
     19 N3          2.4480    2.7870   -1.1990 nb        1 DF2     -0.796000
     20 N90         5.6970    0.4270   -2.2110 na        1 DF2     -0.271100
     21 C17         3.7870   -0.9570    1.8020 ca        1 DF2     -0.120000
     22 C1          4.3820   -0.4650   -0.5470 cd        1 DF2     -0.036400
     23 C18         3.8500   -1.3600    0.4600 ca        1 DF2     -0.038800
     24 C23        -0.1910    1.1170    1.8610 c3        1 DF2      0.082100
     25 C8          0.6270    1.8320    0.7730 c3        1 DF2      0.181800
     26 O24        -0.5240   -0.2100    1.4760 oh        1 DF2     -0.608800
     27 H2          3.1170    4.1510   -2.6300 h5        1 DF2      0.049100
     28 H12         6.7180   -1.8350   -3.4800 ha        1 DF2      0.140500
     29 H13         8.3570   -3.6980   -3.4230 ha        1 DF2      0.136000
     30 H14         9.0440   -4.7020   -1.2440 ha        1 DF2      0.134000
     31 H15         8.0820   -3.8280    0.8880 ha        1 DF2      0.136000
     32 H16         6.4390   -1.9500    0.8420 ha        1 DF2      0.140500
     33 H19         3.4310   -2.9590   -0.9460 ha        1 DF2      0.142500
     34 H20         2.5030   -4.4860    0.7900 ha        1 DF2      0.134500
     35 H21         2.3940   -3.7560    3.1740 ha        1 DF2      0.134000
     36 H22         3.2170   -1.4890    3.8190 ha        1 DF2      0.134500
     37 H262        1.4440    0.2820    3.0610 h1        1 DF2      0.059700
     38 H27        -0.6300   -0.3180    3.9310 ho        1 DF2      0.413000
     39 H90         6.4530    0.5490   -2.8330 hn        1 DF2      0.313700
     40 H17         4.1510    0.0420    2.0880 ha        1 DF2      0.142500
     41 H23        -1.1340    1.7090    2.0320 h1        1 DF2      0.059700
     42 H8C1       -0.0200    1.9240   -0.1480 h1        1 DF2      0.058700
     43 H8C2        0.8640    2.8760    1.1290 h1        1 DF2      0.058700
     44 H24        -1.0600   -0.1480    0.6770 ho        1 DF2      0.409000
     45 N9          1.8610    1.1610    0.4650 nh        1 DF2     -0.855900
     46 H261        0.9380    1.9950    3.5140 h1        1 DF2      0.059700
     47 HN1         1.9070    0.1870    0.6860 hn        1 DF2      0.448800
@<TRIPOS>BOND
     1    1   13 ar  
     2    1   19 ar  
     3    1   27 1   
     4    2    3 1   
     5    2   20 1   
     6    2   22 2   
     7    3    4 ar  
     8    3    8 ar  
     9    4    5 ar  
    10    4   28 1   
    11    5    6 ar  
    12    5   29 1   
    13    6    7 ar  
    14    6   30 1   
    15    7    8 ar  
    16    7   31 1   
    17    8   32 1   
    18    9   10 ar  
    19    9   23 ar  
    20    9   33 1   
    21   10   11 ar  
    22   10   34 1   
    23   11   12 ar  
    24   11   35 1   
    25   12   21 ar  
    26   12   36 1   
    27   13   15 ar  
    28   14   17 1   
    29   14   24 1   
    30   14   37 1   
    31   14   46 1   
    32   15   16 ar  
    33   15   20 1   
    34   16   18 ar  
    35   16   22 1   
    36   17   38 1   
    37   18   19 ar  
    38   18   45 1   
    39   20   39 1   
    40   21   23 ar  
    41   21   40 1   
    42   22   23 1   
    43   24   25 1   
    44   24   26 1   
    45   24   41 1   
    46   25   42 1   
    47   25   43 1   
    48   25   45 1   
    49   26   44 1   
    50   45   47 1   
@<TRIPOS>SUBSTRUCTURE
     1 DF2         1 TEMP              0 ****  ****    0 ROOT
