@<TRIPOS>MOLECULE
DF2
   47    48     1     0     0
SMALL
bcc


@<TRIPOS>ATOM
      1 C2          0.6030    0.6010   -0.2410 c1        1 DF2      0.185400
      2 C10         3.7860    0.2340    2.9660 cc        1 DF2      0.014900
      3 C11         5.0610    0.1410    3.6380 ce        1 DF2     -0.119300
      4 C12         5.3570   -0.9410    4.6510 c3        1 DF2     -0.012000
      5 C13         6.7290   -1.5130    4.3880 c2        1 DF2     -0.150200
      6 C14         7.7140   -0.8400    3.7520 ce        1 DF2     -0.146000
      7 C15         7.4690    0.5870    3.4760 ce        1 DF2     -0.137100
      8 C16         6.1700    0.8130    3.3290 c1        1 DF2     -0.020800
      9 C19         1.2640   -0.8620    5.4230 c2        1 DF2     -0.193200
     10 C20         0.2070   -0.6340    6.2410 ce        1 DF2     -0.120000
     11 C21        -0.2600    0.7510    6.3690 ce        1 DF2     -0.177100
     12 C22         0.7290    1.6090    6.1250 c1        1 DF2     -0.034800
     13 N1          1.9370    0.5790   -0.1090 nf        1 DF2     -0.671700
     14 C26        -4.4640    0.2990    6.5850 c         1 DF2      0.528900
     15 C6          2.4260    0.4500    1.1510 cd        1 DF2      0.500600
     16 C5          1.5780    0.3450    2.3640 cd        1 DF2     -0.279600
     17 O27        -3.6250    1.1990    6.5330 o         1 DF2     -0.524100
     18 C4          0.1900    0.3620    2.1550 c2        1 DF2      0.043800
     19 N3         -0.2560    0.4960    0.8490 nu        1 DF2     -0.216600
     20 N90         3.7490    0.3700    1.5600 na        1 DF2     -0.275300
     21 C17         1.9450    1.5310    5.6200 c2        1 DF2     -0.193300
     22 C1          2.4850    0.2280    3.4920 cd        1 DF2     -0.093200
     23 C18         2.2190    0.1980    4.9420 c3        1 DF2      0.050900
     24 C23        -4.1680   -1.1290    6.2190 c3        1 DF2      0.025400
     25 C8         -1.9430   -0.2280    3.2360 c1        1 DF2     -0.109500
     26 O24        -2.8030   -1.3670    5.9760 oh        1 DF2     -0.614800
     27 H2         -1.2350    0.5200    0.6550 hn        1 DF2      0.305700
     28 H12         4.5850   -1.7470    4.5300 hc        1 DF2      0.079700
     29 H13         5.3220   -0.5780    5.7130 hc        1 DF2      0.079700
     30 H14         6.8870   -2.5270    4.7830 ha        1 DF2      0.141000
     31 H15         8.7000   -1.2660    3.5350 ha        1 DF2      0.148000
     32 H16         8.2800    1.3170    3.5260 ha        1 DF2      0.166000
     33 H19         3.2040   -0.0790    5.4520 hc        1 DF2      0.089700
     34 H20         1.5070   -1.8810    5.0850 ha        1 DF2      0.139000
     35 H21        -0.4190   -1.4390    6.6540 ha        1 DF2      0.164000
     36 H22        -1.3310    0.9650    6.4950 ha        1 DF2      0.196000
     37 H262       -2.6290    3.4260    6.5790 ha        1 DF2      0.001000
     38 H27        -5.5120    0.4950    6.9050 h4        1 DF2     -0.003800
     39 H90         4.5440    0.4640    0.9800 hn        1 DF2      0.325700
     40 H17         2.7800    2.2180    5.7780 ha        1 DF2      0.159000
     41 H23        -4.7870   -1.4070    5.3210 h1        1 DF2      0.064700
     42 H8C1       -4.4360   -1.8030    7.0790 h1        1 DF2      0.064700
     43 H8C2       -2.3950   -0.5580    2.2810 ha        1 DF2      0.007500
     44 H24        -2.5280   -0.7810    5.2450 ho        1 DF2      0.445000
     45 N9         -0.7300    0.2350    3.2480 nu        1 DF2     -0.166600
     46 H261       -2.0510    3.0790    6.5050 ha        1 DF2      0.001000
     47 HN1        -0.3290    0.5250    4.1270 hn        1 DF2      0.330700
@<TRIPOS>BOND
     1    1   13 2   
     2    1   19 2   
     3    2    3 1   
     4    2   20 1   
     5    2   22 2   
     6    3    4 1   
     7    3    8 2   
     8    4    5 1   
     9    4   28 1   
    10    4   29 1   
    11    5    6 2   
    12    5   30 1   
    13    6    7 1   
    14    6   31 1   
    15    7    8 2   
    16    7   32 1   
    17    9   10 2   
    18    9   23 1   
    19    9   34 1   
    20   10   11 1   
    21   10   35 1   
    22   11   12 2   
    23   11   36 1   
    24   12   21 2   
    25   13   15 1   
    26   14   17 2   
    27   14   24 1   
    28   14   38 1   
    29   15   16 1   
    30   15   20 2   
    31   16   18 2   
    32   16   22 1   
    33   18   19 1   
    34   18   45 1   
    35   19   27 1   
    36   20   39 1   
    37   21   23 1   
    38   21   40 1   
    39   22   23 1   
    40   23   33 1   
    41   24   26 1   
    42   24   41 1   
    43   24   42 1   
    44   25   43 1   
    45   25   45 3   
    46   26   44 1   
    47   37   46 1   
    48   45   47 1   
@<TRIPOS>SUBSTRUCTURE
     1 DF2         1 TEMP              0 ****  ****    0 ROOT
