@<TRIPOS>MOLECULE
DF3
   64    68     1     0     0
SMALL
bcc


@<TRIPOS>ATOM
      1 OAA         1.6860    2.3810   -0.5370 o         1 DF3     -0.564100
      2 OAB         9.2000   -0.2330    4.9810 o         1 DF3     -0.401100
      3 FAC        11.2860   -5.3480    6.5040 f         1 DF3     -0.216300
      4 FAD         9.2870   -5.4820    5.6570 f         1 DF3     -0.216300
      5 FAE         9.6680   -6.2260    7.6660 f         1 DF3     -0.216300
      6 CAF         9.3790   -2.3270    9.2800 ca        1 DF3     -0.121000
      7 CAG         1.3470   -2.3290    6.3140 ca        1 DF3     -0.133000
      8 CAH         2.1310   -1.8830    7.3850 ca        1 DF3     -0.094000
      9 CAI         9.0520   -1.2800    8.4250 ca        1 DF3     -0.071000
     10 CAJ         9.6620   -3.5970    8.7680 ca        1 DF3     -0.009000
     11 CAK         0.8790    0.9670   -2.8810 ca        1 DF3     -0.148000
     12 CAL         0.2690    0.7340   -4.1100 ca        1 DF3     -0.097000
     13 CAM         1.4520   -1.7500    5.0510 ca        1 DF3     -0.066000
     14 CAN         3.0480   -0.8450    7.2340 ca        1 DF3     -0.154000
     15 CAO         0.8690   -1.4270   -2.4050 ca        1 DF3     -0.174000
     16 CAP         9.3120   -2.7670    6.5150 ca        1 DF3     -0.005000
     17 CAQ         3.6970    0.9980    4.1400 cc        1 DF3     -0.173100
     18 CAR         6.3210    0.1740    5.8090 c3        1 DF3      0.047800
     19 CAS        -0.6200   -2.1060   -6.1850 c3        1 DF3      0.089400
     20 CAT        -0.9390   -3.0860   -5.0690 c3        1 DF3      0.090400
     21 CAU         5.1870    1.1930    6.1200 c3        1 DF3      0.030300
     22 CAV         2.7140    1.1730    1.2460 c3        1 DF3     -0.152300
     23 NAW         7.6050    0.5380    6.4730 n4        1 DF3     -0.673800
     24 NAX         1.8380    0.0730   -0.7780 n         1 DF3     -0.459100
     25 OAY        -0.6720   -0.7530   -5.7170 os        1 DF3     -0.309900
     26 OAZ        -0.0100   -2.9620   -3.9840 os        1 DF3     -0.317900
     27 SBA         1.9780   -0.0830    2.2400 ss        1 DF3     -0.072700
     28 CBB         2.0140    1.2650   -0.1010 c         1 DF3      0.682100
     29 CBC         8.7070   -0.4380    6.0790 c         1 DF3      0.576700
     30 CBD         1.1910   -0.1050   -2.0190 ca        1 DF3      0.051600
     31 CBE         9.0060   -1.5010    7.0390 ca        1 DF3     -0.207600
     32 CBF         9.6280   -3.8090    7.3880 ca        1 DF3     -0.166300
     33 CBG        -0.0410   -0.5720   -4.4980 ca        1 DF3      0.043100
     34 CBH         0.2560   -1.6460   -3.6390 ca        1 DF3      0.083100
     35 CBI         2.7230    0.1090    3.7110 cd        1 DF3     -0.024600
     36 CBJ         2.3660   -0.7180    4.8650 ca        1 DF3     -0.067800
     37 CBK         3.1690   -0.2610    5.9700 ca        1 DF3     -0.061200
     38 NBL         3.9340    0.8560    5.5370 na        1 DF3     -0.057400
     39 CBM         9.9600   -5.1910    6.8160 c3        1 DF3      0.692200
     40 HAF         9.4250   -2.1550   10.3700 ha        1 DF3      0.177000
     41 HAG         0.6280   -3.1470    6.4770 ha        1 DF3      0.152000
     42 HAH         2.0140   -2.3570    8.3720 ha        1 DF3      0.145000
     43 HAI         8.8700   -0.2820    8.8550 ha        1 DF3      0.138000
     44 HAJ         9.9150   -4.4310    9.4490 ha        1 DF3      0.187000
     45 HAK         1.1100    2.0060   -2.5960 ha        1 DF3      0.175000
     46 HAL         0.0250    1.5710   -4.7810 ha        1 DF3      0.160000
     47 HAM         0.8190   -2.0920    4.2180 ha        1 DF3      0.158000
     48 HAN         3.6340   -0.4860    8.0900 ha        1 DF3      0.126000
     49 HAO         1.0880   -2.2920   -1.7640 ha        1 DF3      0.148000
     50 HAP         9.3040   -2.9420    5.4240 ha        1 DF3      0.184000
     51 HAQ         4.1940    1.7970    3.5860 h4        1 DF3      0.173000
     52 HAR         6.0180   -0.8530    6.1640 hx        1 DF3      0.119700
     53 HARA        6.5050    0.1350    4.6960 hx        1 DF3      0.119700
     54 HAS        -1.3950   -2.1410   -6.9950 h1        1 DF3      0.074200
     55 HASA        0.4000   -2.3020   -6.6060 h1        1 DF3      0.074200
     56 HAT        -1.9750   -2.9160   -4.6730 h1        1 DF3      0.073700
     57 HATA       -0.8160   -4.1480   -5.4070 h1        1 DF3      0.073700
     58 HAU         5.0450    1.2500    7.2390 h1        1 DF3      0.076700
     59 HAUA        5.4930    2.2080    5.7350 h1        1 DF3      0.076700
     60 HAV         3.8000    0.9690    1.0740 h1        1 DF3      0.097700
     61 HAVA        2.6290    2.1770    1.7370 h1        1 DF3      0.097700
     62 HNAW        7.8740    1.4850    6.1760 hn        1 DF3      0.456300
     63 HNAX        2.0830   -0.7670   -0.3010 hn        1 DF3      0.321500
     64 HAW2        7.4760    0.5350    7.4890 hn        1 DF3      0.456300
@<TRIPOS>BOND
     1    1   28 2   
     2    2   29 2   
     3    3   39 1   
     4    4   39 1   
     5    5   39 1   
     6    6    9 ar  
     7    6   10 ar  
     8    6   40 1   
     9    7    8 ar  
    10    7   13 ar  
    11    7   41 1   
    12    8   14 ar  
    13    8   42 1   
    14    9   31 ar  
    15    9   43 1   
    16   10   32 ar  
    17   10   44 1   
    18   11   12 ar  
    19   11   30 ar  
    20   11   45 1   
    21   12   33 ar  
    22   12   46 1   
    23   13   36 ar  
    24   13   47 1   
    25   14   37 ar  
    26   14   48 1   
    27   15   30 ar  
    28   15   34 ar  
    29   15   49 1   
    30   16   31 ar  
    31   16   32 ar  
    32   16   50 1   
    33   17   35 2   
    34   17   38 1   
    35   17   51 1   
    36   18   21 1   
    37   18   23 1   
    38   18   52 1   
    39   18   53 1   
    40   19   20 1   
    41   19   25 1   
    42   19   54 1   
    43   19   55 1   
    44   20   26 1   
    45   20   56 1   
    46   20   57 1   
    47   21   38 1   
    48   21   58 1   
    49   21   59 1   
    50   22   27 1   
    51   22   28 1   
    52   22   60 1   
    53   22   61 1   
    54   23   29 1   
    55   23   62 1   
    56   23   64 1   
    57   24   28 1   
    58   24   30 1   
    59   24   63 1   
    60   25   33 1   
    61   26   34 1   
    62   27   35 1   
    63   29   31 1   
    64   32   39 1   
    65   33   34 ar  
    66   35   36 1   
    67   36   37 ar  
    68   37   38 1   
@<TRIPOS>SUBSTRUCTURE
     1 DF3         1 TEMP              0 ****  ****    0 ROOT
