@<TRIPOS>MOLECULE
DF3
   63    67     1     0     0
SMALL
bcc


@<TRIPOS>ATOM
      1 OAA        -5.2240    2.4890   -1.4620 o         1 DF3     -0.590100
      2 OAB         2.2940   -1.3250    0.4990 o         1 DF3     -0.589100
      3 FAC         5.3480   -5.3080    1.2350 f         1 DF3     -0.233300
      4 FAD         7.3360   -4.4490    1.3420 f         1 DF3     -0.233300
      5 FAE         6.8100   -5.7600   -0.3020 f         1 DF3     -0.233300
      6 CAF         6.0690   -2.0950   -2.2810 ca        1 DF3     -0.140000
      7 CAG        -0.0430    6.8090   -0.0060 ca        1 DF3     -0.144000
      8 CAH         1.1070    6.3030   -0.6360 ca        1 DF3     -0.118000
      9 CAI         5.0310   -1.2920   -1.8070 ca        1 DF3     -0.079000
     10 CAJ         6.4870   -3.2060   -1.5510 ca        1 DF3     -0.061000
     11 CAK        -5.9240   -0.2570   -1.1790 ca        1 DF3     -0.159000
     12 CAL        -6.3120   -1.5410   -1.5450 ca        1 DF3     -0.096000
     13 CAM        -1.0230    5.9640    0.4960 ca        1 DF3     -0.088000
     14 CAN         1.3130    4.9390   -0.7810 ca        1 DF3     -0.137000
     15 CAO        -5.0090   -1.1140    0.9140 ca        1 DF3     -0.183000
     16 CAP         4.8070   -2.7290    0.1330 ca        1 DF3     -0.030000
     17 CAQ        -0.9330    2.3010    0.3520 cc        1 DF3     -0.011100
     18 CAR         2.3470    1.4590    0.3160 c3        1 DF3      0.071000
     19 CAS        -5.8640   -4.9350   -0.3520 c3        1 DF3      0.091400
     20 CAT        -5.8380   -4.6330    1.1370 c3        1 DF3      0.091400
     21 CAU         1.2590    1.7690   -0.7500 c3        1 DF3      0.011300
     22 CAV        -4.3390    3.6640    0.4280 c3        1 DF3     -0.139300
     23 NAW         3.3720    0.5830   -0.1670 n         1 DF3     -0.571900
     24 NAX        -4.8590    1.2540    0.4680 n         1 DF3     -0.468100
     25 OAY        -6.4890   -3.8760   -1.0840 os        1 DF3     -0.314900
     26 OAZ        -5.1120   -3.4300    1.4120 os        1 DF3     -0.317900
     27 SBA        -3.0710    3.4350    1.6310 ss        1 DF3     -0.166700
     28 CBB        -4.8350    2.4190   -0.2820 c         1 DF3      0.669100
     29 CBC         3.2740   -0.7930   -0.0580 c         1 DF3      0.670700
     30 CBD        -5.2630   -0.0240    0.0470 ca        1 DF3      0.072600
     31 CBE         4.4030   -1.6050   -0.5970 ca        1 DF3     -0.145600
     32 CBF         5.8530   -3.5180   -0.3460 ca        1 DF3     -0.174300
     33 CBG        -6.0560   -2.6170   -0.6910 ca        1 DF3      0.026100
     34 CBH        -5.4120   -2.3950    0.5390 ca        1 DF3      0.083100
     35 CBI        -1.6480    3.4360    0.7630 cd        1 DF3     -0.131600
     36 CBJ        -0.8540    4.5850    0.3690 ca        1 DF3     -0.049800
     37 CBK         0.3330    4.0740   -0.2760 ca        1 DF3     -0.058200
     38 NBL         0.2460    2.6680   -0.2860 na        1 DF3     -0.064400
     39 CBM         6.3190   -4.7260    0.4590 c3        1 DF3      0.689200
     40 HAF         6.5590   -1.8520   -3.2360 ha        1 DF3      0.149000
     41 HAG        -0.1640    7.8990    0.0880 ha        1 DF3      0.133000
     42 HAH         1.8590    7.0070   -1.0220 ha        1 DF3      0.132000
     43 HAI         4.7030   -0.4270   -2.4030 ha        1 DF3      0.139000
     44 HAJ         7.3060   -3.8430   -1.9220 ha        1 DF3      0.157000
     45 HAK        -6.1360    0.5770   -1.8680 ha        1 DF3      0.177000
     46 HAL        -6.8240   -1.7190   -2.5020 ha        1 DF3      0.153000
     47 HAM        -1.9200    6.3650    0.9910 ha        1 DF3      0.144000
     48 HAN         2.2130    4.5500   -1.2740 ha        1 DF3      0.129000
     49 HAO        -4.5020   -0.9820    1.8810 ha        1 DF3      0.150000
     50 HAP         4.2870   -2.9900    1.0720 ha        1 DF3      0.176000
     51 HAQ        -1.2000    1.2450    0.4700 h4        1 DF3      0.183000
     52 HAR         2.8290    2.4240    0.6440 h1        1 DF3      0.073700
     53 HARA        1.8520    0.9810    1.2100 h1        1 DF3      0.073700
     54 HAS        -4.8240   -5.0810   -0.7450 h1        1 DF3      0.068700
     55 HASA       -6.4990   -5.8310   -0.5770 h1        1 DF3      0.068700
     56 HAT        -6.8800   -4.5220    1.5370 h1        1 DF3      0.069200
     57 HATA       -5.2800   -5.4210    1.7060 h1        1 DF3      0.069200
     58 HAU         1.7440    2.2270   -1.6590 h1        1 DF3      0.070200
     59 HAUA        0.7640    0.8020   -1.0550 h1        1 DF3      0.070200
     60 HAV        -5.2020    4.1020    0.9950 h1        1 DF3      0.108700
     61 HAVA       -4.0320    4.3970   -0.3590 h1        1 DF3      0.108700
     62 HNAW        4.1370    0.9810   -0.6530 hn        1 DF3      0.315500
     63 HNAX       -4.4360    1.3000    1.3740 hn        1 DF3      0.330500
@<TRIPOS>BOND
     1    1   28 2   
     2    2   29 2   
     3    3   39 1   
     4    4   39 1   
     5    5   39 1   
     6    6    9 ar  
     7    6   10 ar  
     8    6   40 1   
     9    7    8 ar  
    10    7   13 ar  
    11    7   41 1   
    12    8   14 ar  
    13    8   42 1   
    14    9   31 ar  
    15    9   43 1   
    16   10   32 ar  
    17   10   44 1   
    18   11   12 ar  
    19   11   30 ar  
    20   11   45 1   
    21   12   33 ar  
    22   12   46 1   
    23   13   36 ar  
    24   13   47 1   
    25   14   37 ar  
    26   14   48 1   
    27   15   30 ar  
    28   15   34 ar  
    29   15   49 1   
    30   16   31 ar  
    31   16   32 ar  
    32   16   50 1   
    33   17   35 2   
    34   17   38 1   
    35   17   51 1   
    36   18   21 1   
    37   18   23 1   
    38   18   52 1   
    39   18   53 1   
    40   19   20 1   
    41   19   25 1   
    42   19   54 1   
    43   19   55 1   
    44   20   26 1   
    45   20   56 1   
    46   20   57 1   
    47   21   38 1   
    48   21   58 1   
    49   21   59 1   
    50   22   27 1   
    51   22   28 1   
    52   22   60 1   
    53   22   61 1   
    54   23   29 1   
    55   23   62 1   
    56   24   28 1   
    57   24   30 1   
    58   24   63 1   
    59   25   33 1   
    60   26   34 1   
    61   27   35 1   
    62   29   31 1   
    63   32   39 1   
    64   33   34 ar  
    65   35   36 1   
    66   36   37 ar  
    67   37   38 1   
@<TRIPOS>SUBSTRUCTURE
     1 DF3         1 TEMP              0 ****  ****    0 ROOT
