@<TRIPOS>MOLECULE
DF3
   63    57     1     0     0
SMALL
bcc


@<TRIPOS>ATOM
      1 OAA        -2.8160    1.5350   -3.6990 o         1 DF3     -0.353000
      2 OAB         3.6300   -5.3760    1.8110 o         1 DF3     -0.357000
      3 FAC         6.2430   -4.8560    8.5370 f         1 DF3     -0.163333
      4 FAD         4.3360   -5.9920    8.2070 f         1 DF3     -0.163333
      5 FAE         4.3210   -3.7620    8.0960 f         1 DF3     -0.163333
      6 CAF         6.1660   -6.8080    4.9200 c1        1 DF3     -0.113167
      7 CAG        -3.2810   -0.1490    2.6490 c1        1 DF3     -0.113167
      8 CAH        -2.4540   -0.7240    3.6240 c1        1 DF3     -0.113167
      9 CAI         5.4150   -6.3290    3.8360 c1        1 DF3     -0.050000
     10 CAJ         6.1310   -6.1240    6.1680 c1        1 DF3     -0.113167
     11 CAK        -4.2640    3.7690   -4.6720 c1        1 DF3     -0.155000
     12 CAL        -5.0950    4.4900   -5.5950 c1        1 DF3     -0.139500
     13 CAM        -2.8020    0.0430    1.3550 c1        1 DF3     -0.113167
     14 CAN        -1.1410   -1.1080    3.2950 c1        1 DF3     -0.113167
     15 CAO        -2.3460    5.2170   -5.2560 c1        1 DF3     -0.139500
     16 CAP         4.5970   -4.4880    5.2400 c1        1 DF3     -0.056000
     17 CAQ         0.4690   -0.9500    0.0700 c1        1 DF3      0.012000
     18 CAR         1.9120   -3.2170    2.0530 c3        1 DF3     -0.045000
     19 CAS        -4.8280    7.4850   -7.7350 c3        1 DF3     -0.059000
     20 CAT        -3.4020    7.4080   -8.0390 c3        1 DF3     -0.059000
     21 CAU         1.8600   -1.6780    1.8870 c3        1 DF3     -0.051000
     22 CAV        -0.9370    1.6790   -2.3360 c3        1 DF3     -0.348000
     23 NAW         2.9100   -3.5490    3.0160 n         1 DF3     -0.376000
     24 NAX        -1.9180    3.6030   -3.5880 n         1 DF3     -0.319000
     25 OAY        -5.3920    6.3930   -7.2520 os        1 DF3     -0.200500
     26 OAZ        -2.6010    6.9690   -7.0610 os        1 DF3     -0.200500
     27 SBA        -1.4910    0.0240   -1.7930 ss        1 DF3      0.256000
     28 CBB        -1.9620    2.2500   -3.2340 c2        1 DF3      0.315000
     29 CBC         3.7010   -4.7150    2.8560 c2        1 DF3      0.342000
     30 CBD        -2.8940    4.1360   -4.5070 c1        1 DF3      0.081000
     31 CBE         4.6270   -5.1680    3.9880 c1        1 DF3     -0.129000
     32 CBF         5.3460   -4.9700    6.3150 c1        1 DF3     -0.170000
     33 CBG        -4.5640    5.5480   -6.3300 c2        1 DF3      0.009000
     34 CBH        -3.1490    5.9230   -6.1560 c2        1 DF3      0.009000
     35 CBI        -0.7740   -0.3690   -0.1630 c2        1 DF3     -0.384000
     36 CBJ        -1.4620   -0.3510    1.0250 c1        1 DF3     -0.038000
     37 CBK        -0.6550   -0.9170    1.9890 c1        1 DF3     -0.012000
     38 NBL         0.5370   -1.2840    1.3900 n2        1 DF3     -0.155000
     39 CBM         5.0490   -4.8950    7.8300 c3        1 DF3      0.467000
     40 HAF         6.7550   -7.6740    4.8110 ha        1 DF3      0.141333
     41 HAG        -4.1850    0.1160    2.8770 ha        1 DF3      0.141333
     42 HAH        -2.8090   -0.8670    4.5890 ha        1 DF3      0.141333
     43 HAI         5.4410   -6.8340    2.9130 ha        1 DF3      0.164000
     44 HAJ         6.6670   -6.4670    6.9420 ha        1 DF3      0.141333
     45 HAK        -4.6310    3.0360   -4.1630 ha        1 DF3      0.176000
     46 HAL        -6.0270    4.2400   -5.7060 ha        1 DF3      0.150500
     47 HAM        -3.4090    0.4650    0.6360 ha        1 DF3      0.141333
     48 HAN        -0.5860   -1.4960    3.9520 ha        1 DF3      0.141333
     49 HAO        -1.4150    5.4630   -5.1410 ha        1 DF3      0.150500
     50 HAP         4.0470   -3.6780    5.3480 ha        1 DF3      0.156000
     51 HAQ         1.1400   -1.1410   -0.5990 DU        1 DF3      0.182000
     52 HAR         2.1440   -3.6540    1.1480 h1        1 DF3      0.112500
     53 HARA        1.0180   -3.5520    2.3670 h1        1 DF3      0.112500
     54 HAS        -5.2980    7.7280   -8.5550 h1        1 DF3      0.107750
     55 HASA       -4.9580    8.2070   -7.0820 h1        1 DF3      0.107750
     56 HAT        -3.2830    6.7950   -8.8410 h1        1 DF3      0.107750
     57 HATA       -3.1010    8.3030   -8.2940 h1        1 DF3      0.107750
     58 HAU         2.5290   -1.4040    1.2670 h1        1 DF3      0.111000
     59 HAUA        2.0280   -1.2420    2.7700 h1        1 DF3      0.111000
     60 HAV        -0.8220    2.2480   -1.5720 h1        1 DF3      0.146000
     61 HAVA       -0.0750    1.6000   -2.8230 h1        1 DF3      0.146000
     62 HNAW        3.0560   -3.0150    3.6920 hn        1 DF3      0.229000
     63 HNAX       -1.2460    4.1330   -3.2800 hn        1 DF3      0.246000
@<TRIPOS>BOND
     1    1   28 1   
     2    2   29 1   
     3    3   39 1   
     4    4   39 1   
     5    5   39 1   
     6    6   10 1   
     7    6   40 1   
     8    7   13 1   
     9    7   41 1   
    10    8   14 1   
    11    8   42 1   
    12    9   31 1   
    13    9   43 1   
    14   10   44 1   
    15   11   30 1   
    16   11   45 1   
    17   12   33 1   
    18   12   46 1   
    19   13   47 1   
    20   14   48 1   
    21   15   34 1   
    22   15   49 1   
    23   16   32 1   
    24   16   50 1   
    25   17   35 1   
    26   17   38 1   
    27   18   21 1   
    28   18   23 1   
    29   18   52 1   
    30   18   53 1   
    31   19   20 1   
    32   19   25 1   
    33   19   54 1   
    34   19   55 1   
    35   20   26 1   
    36   20   56 1   
    37   20   57 1   
    38   21   38 1   
    39   21   58 1   
    40   21   59 1   
    41   22   27 1   
    42   22   28 1   
    43   22   60 1   
    44   22   61 1   
    45   23   29 1   
    46   23   62 1   
    47   24   28 1   
    48   24   30 1   
    49   24   63 1   
    50   25   33 1   
    51   26   34 1   
    52   27   35 1   
    53   29   31 1   
    54   32   39 1   
    55   33   34 1   
    56   35   36 1   
    57   36   37 1   
@<TRIPOS>SUBSTRUCTURE
     1 DF3         1 TEMP              0 ****  ****    0 ROOT
