@<TRIPOS>MOLECULE
DF3
   65    69     1     0     0
SMALL
bcc


@<TRIPOS>ATOM
      1 OAA        -0.3230   -1.2890    1.3890 o         1 DF3     -0.414100
      2 OAB         8.1470   -3.3860    5.7030 o         1 DF3     -0.406100
      3 FAC        11.3780   -6.0830    9.4950 f         1 DF3     -0.212633
      4 FAD         9.2620   -6.0320   10.0010 f         1 DF3     -0.212633
      5 FAE        10.7310   -5.2180   11.3880 f         1 DF3     -0.212633
      6 CAF        10.8850   -1.5810    9.2340 ca        1 DF3     -0.118000
      7 CAG         0.9400    0.0440    5.4940 ca        1 DF3     -0.111000
      8 CAH         1.9240   -0.0040    6.4950 ca        1 DF3     -0.087000
      9 CAI        10.0700   -1.4330    8.1190 ca        1 DF3     -0.074000
     10 CAJ        10.9950   -2.8220    9.8740 ca        1 DF3      0.004000
     11 CAK        -1.4580   -0.9610   -1.8670 ca        1 DF3     -0.094000
     12 CAL        -1.7060   -1.3570   -3.1760 ca        1 DF3     -0.107000
     13 CAM         1.2800    0.1290    4.1500 ca        1 DF3     -0.091000
     14 CAN         3.2770    0.0240    6.1800 ca        1 DF3     -0.138000
     15 CAO         0.4220    0.4260   -2.6190 ca        1 DF3     -0.113000
     16 CAP         9.4690   -3.7890    8.2550 ca        1 DF3      0.007000
     17 CAQ         4.7040    0.2330    2.8260 cc        1 DF3      0.003900
     18 CAR         6.6560   -1.1790    5.3320 c3        1 DF3      0.063800
     19 CAS        -0.5510   -0.4960   -6.5190 c3        1 DF3      0.083400
     20 CAT         0.8900   -0.1770   -6.1650 c3        1 DF3      0.085400
     21 CAU         6.1500    0.2190    4.8830 c3        1 DF3      0.035300
     22 CAV         1.9130   -0.8910    0.4730 c3        1 DF3     -0.156300
     23 NAW         7.9260   -1.0980    6.1010 n4        1 DF3     -0.678800
     24 NAX        -0.1860    0.3830   -0.2180 n4        1 DF3     -0.536200
     25 OAY        -1.1820   -1.2800   -5.4900 os        1 DF3     -0.284900
     26 OAZ         0.9800    0.5310   -4.9170 os        1 DF3     -0.301900
     27 SBA         2.7630    0.5630    0.9940 ss        1 DF3     -0.113700
     28 CBB         0.4420   -0.7080    0.6350 c         1 DF3      0.562100
     29 CBC         8.4930   -2.4820    6.4470 c         1 DF3      0.582700
     30 CBD        -0.4060   -0.0670   -1.5940 ca        1 DF3     -0.086400
     31 CBE         9.3500   -2.5370    7.6270 ca        1 DF3     -0.219600
     32 CBF        10.2860   -3.9180    9.3790 ca        1 DF3     -0.168300
     33 CBG        -0.9050   -0.8610   -4.2150 ca        1 DF3      0.130100
     34 CBH         0.1680    0.0170   -3.9290 ca        1 DF3      0.078100
     35 CBI         3.3350    0.2650    2.5250 cd        1 DF3     -0.131600
     36 CBJ         2.6270    0.1700    3.7930 ca        1 DF3     -0.054800
     37 CBK         3.6290    0.1070    4.8280 ca        1 DF3     -0.056200
     38 NBL         4.8990    0.1490    4.2040 na        1 DF3     -0.083400
     39 CBM        10.4130   -5.2880   10.0570 c3        1 DF3      0.693200
     40 HAF        11.4580   -0.7190    9.6190 ha        1 DF3      0.181000
     41 HAG        -0.1220    0.0140    5.7880 ha        1 DF3      0.160000
     42 HAH         1.6140   -0.0650    7.5510 ha        1 DF3      0.160000
     43 HAI        10.0300   -0.4500    7.6250 ha        1 DF3      0.131000
     44 HAJ        11.6390   -2.9360   10.7670 ha        1 DF3      0.194000
     45 HAK        -2.1010   -1.3510   -1.0600 ha        1 DF3      0.166000
     46 HAL        -2.5310   -2.0510   -3.4110 ha        1 DF3      0.192000
     47 HAM         0.4970    0.1580    3.3780 ha        1 DF3      0.130000
     48 HAN         4.0390   -0.0100    6.9700 ha        1 DF3      0.129000
     49 HAO         1.2500    1.1280   -2.4330 ha        1 DF3      0.169000
     50 HAP         8.9210   -4.6680    7.8660 ha        1 DF3      0.188000
     51 HAQ         5.5530    0.2910    2.1350 h4        1 DF3      0.189000
     52 HAR         5.8850   -1.6810    5.9860 hx        1 DF3      0.127200
     53 HARA        6.8320   -1.8390    4.4320 hx        1 DF3      0.127200
     54 HAS        -1.1530    0.4400   -6.6630 h1        1 DF3      0.100200
     55 HASA       -0.6190   -1.1530   -7.4270 h1        1 DF3      0.100200
     56 HAT         1.5040   -1.1120   -6.0850 h1        1 DF3      0.094700
     57 HATA        1.3470    0.5350   -6.9040 h1        1 DF3      0.094700
     58 HAU         6.9130    0.6870    4.1970 h1        1 DF3      0.082700
     59 HAUA        6.0270    0.8760    5.7940 h1        1 DF3      0.082700
     60 HAV         2.2160   -1.8110    1.0400 h1        1 DF3      0.143700
     61 HAVA        2.1680   -1.0560   -0.6090 h1        1 DF3      0.143700
     62 HNAW        7.7720   -0.5810    6.9740 hn        1 DF3      0.457300
     63 HNAX        0.4370    1.2020   -0.2160 hn        1 DF3      0.468300
     64 HAW2        8.6310   -0.5950    5.5510 hn        1 DF3      0.457300
     65 HAX2       -1.0950    0.6480    0.1870 hn        1 DF3      0.468300
@<TRIPOS>BOND
     1    1   28 2   
     2    2   29 2   
     3    3   39 1   
     4    4   39 1   
     5    5   39 1   
     6    6    9 ar  
     7    6   10 ar  
     8    6   40 1   
     9    7    8 ar  
    10    7   13 ar  
    11    7   41 1   
    12    8   14 ar  
    13    8   42 1   
    14    9   31 ar  
    15    9   43 1   
    16   10   32 ar  
    17   10   44 1   
    18   11   12 ar  
    19   11   30 ar  
    20   11   45 1   
    21   12   33 ar  
    22   12   46 1   
    23   13   36 ar  
    24   13   47 1   
    25   14   37 ar  
    26   14   48 1   
    27   15   30 ar  
    28   15   34 ar  
    29   15   49 1   
    30   16   31 ar  
    31   16   32 ar  
    32   16   50 1   
    33   17   35 2   
    34   17   38 1   
    35   17   51 1   
    36   18   21 1   
    37   18   23 1   
    38   18   52 1   
    39   18   53 1   
    40   19   20 1   
    41   19   25 1   
    42   19   54 1   
    43   19   55 1   
    44   20   26 1   
    45   20   56 1   
    46   20   57 1   
    47   21   38 1   
    48   21   58 1   
    49   21   59 1   
    50   22   27 1   
    51   22   28 1   
    52   22   60 1   
    53   22   61 1   
    54   23   29 1   
    55   23   62 1   
    56   23   64 1   
    57   24   28 1   
    58   24   30 1   
    59   24   63 1   
    60   24   65 1   
    61   25   33 1   
    62   26   34 1   
    63   27   35 1   
    64   29   31 1   
    65   32   39 1   
    66   33   34 ar  
    67   35   36 1   
    68   36   37 ar  
    69   37   38 1   
@<TRIPOS>SUBSTRUCTURE
     1 DF3         1 TEMP              0 ****  ****    0 ROOT
