@<TRIPOS>MOLECULE
DF3
   64    68     1     0     0
SMALL
bcc


@<TRIPOS>ATOM
      1 OAA         1.7240    2.3760   -0.5610 o         1 DF3     -0.564100
      2 OAB         9.2190   -0.2460    4.9820 o         1 DF3     -0.401100
      3 FAC        11.2210   -5.3980    6.4890 f         1 DF3     -0.216300
      4 FAD         9.2290   -5.4980    5.6210 f         1 DF3     -0.216300
      5 FAE         9.5800   -6.2620    7.6280 f         1 DF3     -0.216300
      6 CAF         9.3310   -2.3700    9.2690 ca        1 DF3     -0.121000
      7 CAG         1.3310   -2.2580    6.3430 ca        1 DF3     -0.133000
      8 CAH         2.1220   -1.8100    7.4090 ca        1 DF3     -0.095000
      9 CAI         9.0260   -1.3130    8.4180 ca        1 DF3     -0.071000
     10 CAJ         9.6010   -3.6410    8.7490 ca        1 DF3     -0.009000
     11 CAK         0.9090    0.9410   -2.8890 ca        1 DF3     -0.148000
     12 CAL         0.3020    0.6980   -4.1180 ca        1 DF3     -0.097000
     13 CAM         1.4420   -1.6910    5.0740 ca        1 DF3     -0.066000
     14 CAN         3.0500   -0.7840    7.2470 ca        1 DF3     -0.154000
     15 CAO         0.8810   -1.4470   -2.3870 ca        1 DF3     -0.174000
     16 CAP         9.2830   -2.7910    6.5000 ca        1 DF3     -0.005000
     17 CAQ         3.7160    1.0220    4.1360 cc        1 DF3     -0.173100
     18 CAR         6.3330    0.1850    5.8060 c3        1 DF3      0.048800
     19 CAS        -0.5970   -2.1590   -6.1640 c3        1 DF3      0.089400
     20 CAT        -0.9270   -3.1250   -5.0380 c3        1 DF3      0.090400
     21 CAU         5.2110    1.2180    6.1120 c3        1 DF3      0.030300
     22 CAV         2.7330    1.1810    1.2410 c3        1 DF3     -0.152300
     23 NAW         7.6220    0.5390    6.4650 ny        1 DF3     -0.673800
     24 NAX         1.8540    0.0650   -0.7730 ns        1 DF3     -0.459100
     25 OAY        -0.6420   -0.8010   -5.7120 os        1 DF3     -0.309900
     26 OAZ        -0.0020   -2.9940   -3.9510 os        1 DF3     -0.317900
     27 SBA         1.9840   -0.0570    2.2480 ss        1 DF3     -0.071700
     28 CBB         2.0390    1.2630   -0.1100 c         1 DF3      0.682100
     29 CBC         8.7130   -0.4510    6.0740 c         1 DF3      0.576700
     30 CBD         1.2110   -0.1230   -2.0140 ca        1 DF3      0.051600
     31 CBE         8.9890   -1.5240    7.0300 ca        1 DF3     -0.207600
     32 CBF         9.5760   -3.8420    7.3680 ca        1 DF3     -0.166300
     33 CBG        -0.0140   -0.6110   -4.4920 ca        1 DF3      0.043100
     34 CBH         0.2720   -1.6770   -3.6200 ca        1 DF3      0.083100
     35 CBI         2.7310    0.1400    3.7160 cd        1 DF3     -0.024600
     36 CBJ         2.3670   -0.6720    4.8780 ca        1 DF3     -0.067800
     37 CBK         3.1760   -0.2130    5.9780 ca        1 DF3     -0.061200
     38 NBL         3.9530    0.8910    5.5340 na        1 DF3     -0.057400
     39 CBM         9.8950   -5.2250    6.7890 c3        1 DF3      0.692200
     40 HAF         9.3690   -2.2080   10.3590 ha        1 DF3      0.177000
     41 HAG         0.6030   -3.0660    6.5140 ha        1 DF3      0.152000
     42 HAH         2.0000   -2.2730    8.4010 ha        1 DF3      0.145000
     43 HAI         8.8540   -0.3160    8.8540 ha        1 DF3      0.138000
     44 HAJ         9.8360   -4.4830    9.4270 ha        1 DF3      0.187000
     45 HAK         1.1470    1.9820   -2.6150 ha        1 DF3      0.175000
     46 HAL         0.0670    1.5290   -4.7990 ha        1 DF3      0.160000
     47 HAM         0.8030   -2.0340    4.2450 ha        1 DF3      0.158000
     48 HAN         3.6410   -0.4240    8.0990 ha        1 DF3      0.126000
     49 HAO         1.0930   -2.3070   -1.7340 ha        1 DF3      0.148000
     50 HAP         9.2820   -2.9580    5.4070 ha        1 DF3      0.184000
     51 HAQ         4.2210    1.8100    3.5740 h4        1 DF3      0.173000
     52 HAR         6.5160    0.1370    4.6930 hx        1 DF3      0.119200
     53 HARA        6.0200   -0.8360    6.1670 hx        1 DF3      0.119200
     54 HAS        -1.3680   -2.1990   -6.9770 h1        1 DF3      0.074200
     55 HASA        0.4240   -2.3670   -6.5790 h1        1 DF3      0.074200
     56 HAT        -0.8090   -4.1910   -5.3640 h1        1 DF3      0.073700
     57 HATA       -1.9630   -2.9440   -4.6490 h1        1 DF3      0.073700
     58 HAU         5.0720    1.2840    7.2310 h1        1 DF3      0.076700
     59 HAUA        5.5270    2.2270    5.7190 h1        1 DF3      0.076700
     60 HAV         3.8180    0.9660    1.0760 h1        1 DF3      0.097700
     61 HAVA        2.6550    2.1910    1.7200 h1        1 DF3      0.097700
     62 HNAW        7.4950    0.5420    7.4820 hn        1 DF3      0.456300
     63 HNAX        2.0900   -0.7720   -0.2830 hn        1 DF3      0.321500
     64 HAW2        7.9010    1.4810    6.1640 hn        1 DF3      0.456300
@<TRIPOS>BOND
     1    1   28 2   
     2    2   29 2   
     3    3   39 1   
     4    4   39 1   
     5    5   39 1   
     6    6    9 ar  
     7    6   10 ar  
     8    6   40 1   
     9    7    8 ar  
    10    7   13 ar  
    11    7   41 1   
    12    8   14 ar  
    13    8   42 1   
    14    9   31 ar  
    15    9   43 1   
    16   10   32 ar  
    17   10   44 1   
    18   11   12 ar  
    19   11   30 ar  
    20   11   45 1   
    21   12   33 ar  
    22   12   46 1   
    23   13   36 ar  
    24   13   47 1   
    25   14   37 ar  
    26   14   48 1   
    27   15   30 ar  
    28   15   34 ar  
    29   15   49 1   
    30   16   31 ar  
    31   16   32 ar  
    32   16   50 1   
    33   17   35 2   
    34   17   38 1   
    35   17   51 1   
    36   18   21 1   
    37   18   23 1   
    38   18   52 1   
    39   18   53 1   
    40   19   20 1   
    41   19   25 1   
    42   19   54 1   
    43   19   55 1   
    44   20   26 1   
    45   20   56 1   
    46   20   57 1   
    47   21   38 1   
    48   21   58 1   
    49   21   59 1   
    50   22   27 1   
    51   22   28 1   
    52   22   60 1   
    53   22   61 1   
    54   23   29 1   
    55   23   62 1   
    56   23   64 1   
    57   24   28 1   
    58   24   30 1   
    59   24   63 1   
    60   25   33 1   
    61   26   34 1   
    62   27   35 1   
    63   29   31 1   
    64   32   39 1   
    65   33   34 ar  
    66   35   36 1   
    67   36   37 ar  
    68   37   38 1   
@<TRIPOS>SUBSTRUCTURE
     1 DF3         1 TEMP              0 ****  ****    0 ROOT
