@<TRIPOS>MOLECULE
DF4
   38    37     1     0     0
SMALL
bcc


@<TRIPOS>ATOM
      1 C7          1.2490    0.0010    0.2690 c3        1 DF4      0.024000
      2 C5          3.6470    0.5380    0.9920 c3        1 DF4     -0.139000
      3 C2          3.0340    3.1450    0.3560 c1        1 DF4      0.094000
      4 C1          0.9450   -3.1910    3.0640 c1        1 DF4      0.453000
      5 C3          4.3310    2.9590    1.1210 c3        1 DF4     -0.056000
      6 C4          4.4490    1.5730    1.8220 c3        1 DF4     -0.028000
      7 C6          2.1750    0.9790    1.0050 c3        1 DF4     -0.120000
      8 O1A         0.0960   -3.8720    3.5180 o         1 DF4     -0.225000
      9 O1B         1.8090   -2.4990    2.6000 o         1 DF4     -0.225000
     10 O4          5.7760    1.1330    1.9770 oh        1 DF4     -0.334000
     11 F1          5.4250    3.1600    0.2970 f         1 DF4     -0.118000
     12 O6          2.1070    2.2740    0.3200 os        1 DF4     -0.061000
     13 C8         -0.1260    0.6410    0.0250 c3        1 DF4      0.010000
     14 C9         -1.0280   -0.3030   -0.7810 c3        1 DF4     -0.051000
     15 O9         -2.2700    0.3680   -0.8830 oh        1 DF4     -0.332000
     16 O8         -0.6660    0.8730    1.3170 oh        1 DF4     -0.343000
     17 O7          1.8720   -0.4740   -0.9030 oh        1 DF4     -0.340000
     18 N5          3.8340   -0.8640    1.4690 ny        1 DF4     -0.096000
     19 C10         5.2850   -1.3210    1.3500 c2        1 DF4      0.292000
     20 O10         5.7870   -1.2080    0.2440 o         1 DF4     -0.176000
     21 C11         5.8960   -1.8420    2.6030 c3        1 DF4     -0.251000
     22 H1          1.1070   -0.9150    0.9180 h1        1 DF4      0.125000
     23 H2          4.0230    0.5520   -0.0810 hx        1 DF4      0.180000
     24 H4          4.3430    3.7630    1.9230 h1        1 DF4      0.170000
     25 H5          4.0290    1.6420    2.8660 h1        1 DF4      0.141000
     26 H6          1.7770    1.1490    2.0430 h1        1 DF4      0.156000
     27 H8          6.3330    1.5310    1.2870 ho        1 DF4      0.256000
     28 H9         -0.0160    1.6200   -0.5220 h1        1 DF4      0.123000
     29 H10        -1.1560   -1.2780   -0.2420 h1        1 DF4      0.081500
     30 H11        -0.5870   -0.4880   -1.7960 h1        1 DF4      0.081500
     31 H12        -2.8550   -0.1920   -1.4090 ho        1 DF4      0.228000
     32 H13        -1.5760    1.1810    1.1850 ho        1 DF4      0.250000
     33 H14         1.7120    0.1610   -1.6150 ho        1 DF4      0.238000
     34 H15         3.5220   -0.9460    2.4420 hn        1 DF4      0.265500
     35 H16         5.2020   -2.5090    3.1720 hc        1 DF4      0.154333
     36 H17         6.8200   -2.4190    2.3350 hc        1 DF4      0.154333
     37 H18         6.1920   -0.9690    3.2460 hc        1 DF4      0.154333
     38 H52         3.2400   -1.4760    0.8860 hn        1 DF4      0.265500
@<TRIPOS>BOND
     1    1    7 1   
     2    1   13 1   
     3    1   17 1   
     4    1   22 1   
     5    2    6 1   
     6    2    7 1   
     7    2   18 1   
     8    2   23 1   
     9    3    5 1   
    10    3   12 1   
    11    4    8 1   
    12    4    9 1   
    13    5    6 1   
    14    5   11 1   
    15    5   24 1   
    16    6   10 1   
    17    6   25 1   
    18    7   12 1   
    19    7   26 1   
    20   10   27 1   
    21   13   14 1   
    22   13   16 1   
    23   13   28 1   
    24   14   15 1   
    25   14   29 1   
    26   14   30 1   
    27   15   31 1   
    28   16   32 1   
    29   17   33 1   
    30   18   19 1   
    31   18   34 1   
    32   18   38 1   
    33   19   20 1   
    34   19   21 1   
    35   21   35 1   
    36   21   36 1   
    37   21   37 1   
@<TRIPOS>SUBSTRUCTURE
     1 DF4         1 TEMP              0 ****  ****    0 ROOT
