@<TRIPOS>MOLECULE
DF5
   40    42     1     0     0
SMALL
bcc


@<TRIPOS>ATOM
      1 O2         -0.6460    1.4650    1.2430 o         1 DF5     -0.539800
      2 S           0.5840    0.8820    1.0540 sy        1 DF5      1.467200
      3 O1          1.4090    0.4680    2.0740 o         1 DF5     -0.539800
      4 N1          0.0680   -0.7840    0.3240 n4        1 DF5     -0.798500
      5 C2          1.3990    1.4860   -0.2280 ca        1 DF5     -0.480500
      6 C1          0.7380    2.2570   -1.2030 ca        1 DF5      0.008500
      7 C3          2.7960    1.3410   -0.3290 ca        1 DF5      0.008500
      8 C4          3.5120    1.9440   -1.3600 ca        1 DF5     -0.103000
      9 C5          2.8330    2.7020   -2.3200 ca        1 DF5     -0.068600
     10 C           1.4420    2.8560   -2.2450 ca        1 DF5     -0.103000
     11 C6          3.5420    3.2800   -3.4990 c         1 DF5      0.550500
     12 O           3.1930    3.0630   -4.6530 o         1 DF5     -0.398100
     13 N           4.6820    4.1520   -3.2300 n         1 DF5     -0.023200
     14 C10         5.8280    4.1290   -4.0450 ca        1 DF5     -0.002300
     15 C15         6.0060    3.1880   -5.0960 ca        1 DF5     -0.118000
     16 C14         7.1440    3.2040   -5.8710 ca        1 DF5     -0.100000
     17 C13         8.1700    4.1570   -5.6330 ca        1 DF5      0.173100
     18 O3          9.3270    4.2450   -6.3500 os        1 DF5     -0.288900
     19 C16         9.4960    3.3400   -7.4470 c3        1 DF5      0.099700
     20 C12         8.0310    5.0850   -4.6010 ca        1 DF5     -0.127000
     21 C11         6.8730    5.0880   -3.7980 ca        1 DF5     -0.049000
     22 C9          6.7230    6.0340   -2.7510 ca        1 DF5      0.061000
     23 C8          5.5780    6.0170   -1.9700 ca        1 DF5     -0.186000
     24 C7          4.5740    5.0740   -2.2330 ca        1 DF5      0.025700
     25 H1         -0.9510   -0.8750    0.3300 hn        1 DF5      0.469133
     26 H2          0.4410   -1.5520    0.8880 hn        1 DF5      0.469133
     27 H3         -0.3580    2.4100   -1.1380 ha        1 DF5      0.190500
     28 H4          3.3440    0.7550    0.4370 ha        1 DF5      0.190500
     29 H5          4.6060    1.8060   -1.4140 ha        1 DF5      0.189500
     30 H6          0.9010    3.4390   -3.0140 ha        1 DF5      0.189500
     31 H7          5.2290    2.4370   -5.3210 ha        1 DF5      0.173000
     32 H8          7.2560    2.4690   -6.6880 ha        1 DF5      0.184000
     33 H9          8.6910    3.4910   -8.2050 h1        1 DF5      0.072033
     34 H10        10.4950    3.6420   -7.8590 h1        1 DF5      0.072033
     35 H11         9.5200    2.2850   -7.0800 h1        1 DF5      0.072033
     36 H12         8.8330    5.8210   -4.4160 ha        1 DF5      0.194000
     37 H13         7.5220    6.7790   -2.5710 ha        1 DF5      0.199000
     38 H14         5.4290    6.7410   -1.1490 ha        1 DF5      0.205000
     39 H15         3.6430    5.0630   -1.6290 h4        1 DF5      0.192000
     40 H131        0.3800   -0.9290   -0.6330 hn        1 DF5      0.469133
@<TRIPOS>BOND
     1    1    2 2   
     2    2    3 2   
     3    2    4 1   
     4    2    5 1   
     5    4   25 1   
     6    4   26 1   
     7    4   40 1   
     8    5    6 ar  
     9    5    7 ar  
    10    6   10 ar  
    11    6   27 1   
    12    7    8 ar  
    13    7   28 1   
    14    8    9 ar  
    15    8   29 1   
    16    9   10 ar  
    17    9   11 1   
    18   10   30 1   
    19   11   12 2   
    20   11   13 1   
    21   13   14 1   
    22   13   24 2   
    23   14   15 ar  
    24   14   21 ar  
    25   15   16 ar  
    26   15   31 1   
    27   16   17 ar  
    28   16   32 1   
    29   17   18 1   
    30   17   20 ar  
    31   18   19 1   
    32   19   33 1   
    33   19   34 1   
    34   19   35 1   
    35   20   21 ar  
    36   20   36 1   
    37   21   22 ar  
    38   22   23 ar  
    39   22   37 1   
    40   23   24 ar  
    41   23   38 1   
    42   24   39 1   
@<TRIPOS>SUBSTRUCTURE
     1 DF5         1 TEMP              0 ****  ****    0 ROOT
