@<TRIPOS>MOLECULE
DF5
   40    42     1     0     0
SMALL
bcc


@<TRIPOS>ATOM
      1 O2         -0.6900    1.4910    1.2080 o         1 DF5     -0.539800
      2 S           0.5290    0.8850    1.0120 sy        1 DF5      1.467200
      3 O1          1.3410    0.4340    2.0270 o         1 DF5     -0.539800
      4 N1         -0.0210   -0.7560    0.2500 nz        1 DF5     -0.798500
      5 C2          1.3610    1.4940   -0.2560 ca        1 DF5     -0.480500
      6 C1          0.7210    2.2970   -1.2200 ca        1 DF5      0.008500
      7 C3          2.7550    1.3220   -0.3540 ca        1 DF5      0.008500
      8 C4          3.4880    1.9270   -1.3730 ca        1 DF5     -0.103000
      9 C5          2.8280    2.7160   -2.3210 ca        1 DF5     -0.068600
     10 C           1.4410    2.8990   -2.2480 ca        1 DF5     -0.103000
     11 C6          3.5540    3.3010   -3.4870 c         1 DF5      0.550500
     12 O           3.2060    3.1100   -4.6460 o         1 DF5     -0.398100
     13 N           4.7100    4.1460   -3.1990 n         1 DF5     -0.023200
     14 C10         5.8580    4.1150   -4.0090 ca        1 DF5     -0.002300
     15 C15         6.0230    3.1890   -5.0760 ca        1 DF5     -0.118000
     16 C14         7.1640    3.1980   -5.8470 ca        1 DF5     -0.100000
     17 C13         8.2060    4.1270   -5.5890 ca        1 DF5      0.173100
     18 O3          9.3680    4.2050   -6.2990 os        1 DF5     -0.288900
     19 C16         9.5240    3.3160   -7.4110 c3        1 DF5      0.099700
     20 C12         8.0810    5.0390   -4.5400 ca        1 DF5     -0.127000
     21 C11         6.9200    5.0500   -3.7420 ca        1 DF5     -0.049000
     22 C9          6.7840    5.9800   -2.6790 ca        1 DF5      0.061000
     23 C8          5.6360    5.9710   -1.9030 ca        1 DF5     -0.186000
     24 C7          4.6150    5.0520   -2.1860 ca        1 DF5      0.025700
     25 H1          0.2910   -0.8900   -0.7090 hn        1 DF5      0.469133
     26 H2         -1.0420   -0.8250    0.2510 hn        1 DF5      0.469133
     27 H3         -0.3730    2.4720   -1.1550 ha        1 DF5      0.190500
     28 H4          3.2880    0.7100    0.4020 ha        1 DF5      0.190500
     29 H5          4.5790    1.7670   -1.4250 ha        1 DF5      0.189500
     30 H6          0.9150    3.5070   -3.0080 ha        1 DF5      0.189500
     31 H7          5.2320    2.4570   -5.3170 ha        1 DF5      0.173000
     32 H8          7.2650    2.4750   -6.6760 ha        1 DF5      0.184000
     33 H9          8.7250    3.4950   -8.1700 h1        1 DF5      0.072033
     34 H10         9.5270    2.2560   -7.0630 h1        1 DF5      0.072033
     35 H11        10.5300    3.6060   -7.8150 h1        1 DF5      0.072033
     36 H12         8.8960    5.7560   -4.3400 ha        1 DF5      0.194000
     37 H13         7.5960    6.7070   -2.4830 ha        1 DF5      0.199000
     38 H14         5.4970    6.6830   -1.0700 ha        1 DF5      0.205000
     39 H15         3.6810    5.0480   -1.5860 h4        1 DF5      0.192000
     40 H131        0.3340   -1.5420    0.8000 hn        1 DF5      0.469133
@<TRIPOS>BOND
     1    1    2 2   
     2    2    3 2   
     3    2    4 1   
     4    2    5 1   
     5    4   25 1   
     6    4   26 1   
     7    4   40 1   
     8    5    6 ar  
     9    5    7 ar  
    10    6   10 ar  
    11    6   27 1   
    12    7    8 ar  
    13    7   28 1   
    14    8    9 ar  
    15    8   29 1   
    16    9   10 ar  
    17    9   11 1   
    18   10   30 1   
    19   11   12 2   
    20   11   13 1   
    21   13   14 1   
    22   13   24 2   
    23   14   15 ar  
    24   14   21 ar  
    25   15   16 ar  
    26   15   31 1   
    27   16   17 ar  
    28   16   32 1   
    29   17   18 1   
    30   17   20 ar  
    31   18   19 1   
    32   19   33 1   
    33   19   34 1   
    34   19   35 1   
    35   20   21 ar  
    36   20   36 1   
    37   21   22 ar  
    38   22   23 ar  
    39   22   37 1   
    40   23   24 ar  
    41   23   38 1   
    42   24   39 1   
@<TRIPOS>SUBSTRUCTURE
     1 DF5         1 TEMP              0 ****  ****    0 ROOT
