@<TRIPOS>MOLECULE
DF6
   58    78     1     0     0
SMALL
bcc


@<TRIPOS>ATOM
      1 C4          0.0000    0.0000    0.0000 ca        1 DF6     -0.064000
      2 C5          1.4050    0.0000    0.0000 ca        1 DF6      0.173000
      3 C7          3.4040   -0.0000    1.1660 c3        1 DF6     -0.197000
      4 C8          4.1520    0.0010   -0.0040 c3        1 DF6     -0.329000
      5 C13         7.5840    1.3690   -2.4860 c2        1 DF6      0.465000
      6 C21        14.0970   -1.3160   -3.2210 c3        1 DF6      0.369000
      7 C22        14.7100   -2.5030   -3.9190 c2        1 DF6      0.304000
      8 C24        15.6120   -4.7190   -3.8350 c3        1 DF6      0.193000
      9 C26        15.5020   -3.5490   -5.9210 c3        1 DF6      0.201000
     10 C28         7.6890   -0.9640   -1.9110 c3        1 DF6      0.063000
     11 O20        12.0760   -2.4190   -3.7400 o         1 DF6     -0.236000
     12 C19        12.5960   -1.4530   -3.2240 DU        1 DF6      0.384000
     13 C27        14.9400   -2.4610   -5.2820 c3        1 DF6     -0.214000
     14 C25        15.8360   -4.6790   -5.1980 c2        1 DF6     -0.108000
     15 C23        15.0500   -3.6300   -3.1950 c3        1 DF6      0.063000
     16 N18        11.8310   -0.5030   -2.6510 ny        1 DF6      0.420000
     17 C16        10.4890   -0.6260   -2.6530 c3        1 DF6      0.248000
     18 S17         9.7550   -1.9890   -3.3830 s         1 DF6      0.270000
     19 C14         8.3290    0.2430   -2.1590 c3        1 DF6     -0.339000
     20 C12         6.2070    1.2880   -2.5600 c3        1 DF6      0.031000
     21 C29         6.3120   -1.0440   -1.9900 c2        1 DF6     -0.020000
     22 C11         5.5680    0.0820   -2.3120 c2        1 DF6      0.020000
     23 C9          3.5090    0.0020   -1.2290 c2        1 DF6      0.093000
     24 N6          2.0920    0.0000    1.1490 n2        1 DF6     -0.018000
     25 C30         2.0960    0.0020   -1.2360 ca        1 DF6     -0.303000
     26 C31         1.3740    0.0020   -2.4390 ca        1 DF6     -0.408000
     27 C32         0.0100    0.0010   -2.4070 ca        1 DF6      0.195000
     28 O33        -0.6900    0.0020   -3.5730 os        1 DF6     -0.216000
     29 C34         0.0670    0.0030   -4.7840 c3        1 DF6      0.092000
     30 C3         -0.6780   -0.0050   -1.1850 ca        1 DF6     -0.235000
     31 O2         -2.0370   -0.0050   -1.1790 os        1 DF6      0.662000
     32 C1         -2.6800   -0.0120    0.0960 c3        1 DF6      0.303000
     33 H1          1.0180    0.1760   -0.3260 ha        1 DF6      0.031000
     34 H2          4.3520    0.0460    0.6430 DU        1 DF6      0.251500
     35 H3          3.0900   -0.0180    0.2090 DU        1 DF6      0.251500
     36 H4          6.9270    1.1230   -1.6600 DU        1 DF6      0.163000
     37 H5         13.0900   -1.1670   -2.8500 DU        1 DF6     -0.078000
     38 H6         13.1720   -0.7580   -3.1380 DU        1 DF6      0.396000
     39 H7         15.3140   -3.6780   -3.8130 DU        1 DF6     -0.170000
     40 H8         15.2490   -3.0000   -5.0220 DU        1 DF6      0.042500
     41 H9          8.6210   -1.4930   -2.0650 hc        1 DF6      0.141000
     42 H10        15.3430   -2.9840   -6.1410 DU        1 DF6      0.042500
     43 H11        14.9070   -4.3320   -4.7630 DU        1 DF6      0.173000
     44 H12        14.9300   -2.9710   -4.0460 hc        1 DF6     -0.443000
     45 H13        12.5330   -1.1100   -3.0250 DU        1 DF6     -0.631000
     46 H14        10.5170   -0.2850   -2.0860 DU        1 DF6      0.032000
     47 H15         7.2670    1.0820   -2.4770 hc        1 DF6     -0.420000
     48 H16         7.2540   -0.5150   -2.0700 DU        1 DF6      0.083000
     49 H17         2.3360    0.4930   -2.5240 ha        1 DF6      0.258000
     50 H18         0.9860   -0.3160   -4.3060 DU        1 DF6      0.169000
     51 H19         0.9270   -0.0500   -4.1270 DU        1 DF6      0.169000
     52 H20         0.6670   -0.8980   -4.8370 h1        1 DF6     -0.160000
     53 H21        -2.3680   -0.0010   -0.9410 DU        1 DF6     -0.299500
     54 H22        -2.0690    0.1470   -0.7840 DU        1 DF6     -0.299500
     55 H23        -3.2350   -0.9410    0.1490 h1        1 DF6     -0.072000
     56 O10         4.2140    0.0020   -2.3880 os        1 DF6     -0.099000
     57 H182       10.8510   -0.4110   -2.4680 DU        1 DF6     -0.704000
     58 N15         9.7240    0.3250   -2.0800 n7        1 DF6      0.312000
@<TRIPOS>BOND
     1    1    2 1   
     2    1   30 1   
     3    1   33 1   
     4    2   24 1   
     5    2   25 1   
     6    3    4 1   
     7    3   24 1   
     8    3   34 1   
     9    3   35 1   
    10    4   23 1   
    11    4   34 1   
    12    4   35 1   
    13    5   19 1   
    14    5   20 1   
    15    5   36 1   
    16    6    7 1   
    17    6   12 1   
    18    6   37 1   
    19    6   38 1   
    20    7   13 1   
    21    7   15 1   
    22    8   14 1   
    23    8   15 1   
    24    8   39 1   
    25    8   43 1   
    26    9   13 1   
    27    9   14 1   
    28    9   40 1   
    29    9   42 1   
    30   10   19 1   
    31   10   21 1   
    32   10   41 1   
    33   10   48 1   
    34   11   12 1   
    35   12   16 1   
    36   12   37 1   
    37   12   38 1   
    38   13   40 1   
    39   13   42 1   
    40   14   43 1   
    41   15   39 1   
    42   15   44 1   
    43   16   17 1   
    44   16   45 1   
    45   16   57 1   
    46   17   18 1   
    47   17   46 1   
    48   17   58 1   
    49   19   48 1   
    50   19   58 1   
    51   20   22 1   
    52   20   36 1   
    53   20   47 1   
    54   21   22 1   
    55   21   48 1   
    56   22   56 1   
    57   23   25 1   
    58   23   56 1   
    59   25   26 1   
    60   26   27 1   
    61   26   49 1   
    62   27   28 1   
    63   27   30 1   
    64   28   29 1   
    65   29   50 1   
    66   29   51 1   
    67   29   52 1   
    68   30   31 1   
    69   31   32 1   
    70   32   53 1   
    71   32   54 1   
    72   32   55 1   
    73   37   38 1   
    74   37   45 1   
    75   46   57 1   
    76   46   58 1   
    77   50   51 1   
    78   53   54 1   
@<TRIPOS>SUBSTRUCTURE
     1 DF6         1 TEMP              0 ****  ****    0 ROOT
