@<TRIPOS>MOLECULE
DF6
   57    49     1     0     0
SMALL
bcc


@<TRIPOS>ATOM
      1 C4         -6.6840   -0.5470    3.4560 c1        1 DF6     -0.103000
      2 C5         -5.2890   -0.3880    3.6290 c1        1 DF6      0.006000
      3 C7         -3.4180    0.0230    5.0630 c1        1 DF6     -0.034000
      4 C8         -2.5600   -0.0670    3.9660 c1        1 DF6     -0.256000
      5 C13         1.3070   -0.1080    1.1090 c1        1 DF6     -0.123000
      6 C21         6.1350    0.9610   -3.6910 c3        1 DF6     -0.143000
      7 C22         7.6120    0.5650   -3.5560 c2        1 DF6     -0.102000
      8 C24         9.4070   -0.9720   -4.0350 c1        1 DF6     -0.129500
      9 C26         9.8790    1.1430   -2.9800 c1        1 DF6     -0.124000
     10 C28        -0.1470    1.3720   -0.1200 c1        1 DF6     -0.129500
     11 O20         5.7970   -0.3300   -1.7170 o         1 DF6     -0.362000
     12 C19         5.3860    0.5780   -2.4130 c1        1 DF6      0.311000
     13 C27         8.5250    1.4620   -3.0120 c2        1 DF6     -0.113000
     14 C25        10.3200   -0.0740   -3.4910 c1        1 DF6     -0.129500
     15 C23         8.0530   -0.6530   -4.0680 c1        1 DF6     -0.132000
     16 N18         4.1860    1.2760   -2.0480 n2        1 DF6     -0.349000
     17 C16         3.2630    0.6820   -1.1230 c1        1 DF6      0.165000
     18 S17         3.3560   -0.9570   -0.7820 s         1 DF6     -0.257000
     19 N15         2.2770    1.4970   -0.4680 n2        1 DF6     -0.253000
     20 C14         1.1300    0.8830    0.1490 c1        1 DF6      0.048000
     21 C12         0.2090   -0.6110    1.8020 c1        1 DF6     -0.112000
     22 C29        -1.2450    0.8680    0.5730 c1        1 DF6     -0.129500
     23 C11        -1.0680   -0.1220    1.5330 c1        1 DF6      0.029000
     24 O10        -2.1560   -0.9900    1.8480 os        1 DF6     -0.155000
     25 C9         -3.0690   -0.3160    2.7140 c2        1 DF6      0.116000
     26 N6         -4.7710   -0.1360    4.8930 n2        1 DF6     -0.141000
     27 C30        -4.4440   -0.4780    2.5420 c1        1 DF6     -0.069000
     28 C31        -4.9730   -0.7300    1.2560 c1        1 DF6     -0.172000
     29 C32        -6.3500   -0.8870    1.0860 c1        1 DF6      0.056000
     30 O33        -6.8720   -1.7440    0.0840 o         1 DF6     -0.205000
     31 C34        -7.0340   -1.1180   -1.1810 c3        1 DF6     -0.079000
     32 C3         -7.2050   -0.7960    2.1870 c2        1 DF6      0.057000
     33 O2         -8.4040   -0.2020    2.6550 os        1 DF6     -0.214000
     34 C1         -9.5740   -0.9380    2.3340 c3        1 DF6     -0.074000
     35 H1         -7.2850   -0.4830    4.2290 ha        1 DF6      0.169000
     36 H2         -3.0530    0.2010    5.9600 ha        1 DF6      0.161000
     37 H3         -1.5920    0.0470    4.0890 ha        1 DF6      0.157000
     38 H4          2.2070   -0.4530    1.2990 ha        1 DF6      0.191000
     39 H5          6.0680    1.9310   -3.8310 hc        1 DF6      0.129500
     40 H6          5.7390    0.4920   -4.4560 hc        1 DF6      0.129500
     41 H7          9.7190   -1.8320   -4.3970 ha        1 DF6      0.144250
     42 H8         10.5240    1.7760   -2.5960 ha        1 DF6      0.138000
     43 H9         -0.2720    2.0700   -0.7960 ha        1 DF6      0.144250
     44 H10         8.2150    2.3210   -2.6520 ha        1 DF6      0.139000
     45 H11        11.2740   -0.2990   -3.4680 ha        1 DF6      0.144250
     46 H12         7.4100   -1.2860   -4.4520 ha        1 DF6      0.135000
     47 H13         4.0280    2.1180   -2.3740 hn        1 DF6      0.276000
     48 H14         2.3680    2.4090   -0.4590 hn        1 DF6      0.268000
     49 H15         0.3330   -1.3090    2.4780 ha        1 DF6      0.158000
     50 H16        -2.1450    1.2130    0.3840 ha        1 DF6      0.144250
     51 H17        -4.3720   -0.8180    0.4880 ha        1 DF6      0.158000
     52 H18        -7.9150   -0.6820   -1.2210 h1        1 DF6      0.087333
     53 H19        -6.3280   -0.4440   -1.3060 h1        1 DF6      0.087333
     54 H20        -6.9710   -1.7950   -1.8920 h1        1 DF6      0.087333
     55 H21       -10.3180   -0.3170    2.1720 h1        1 DF6      0.085000
     56 H22        -9.4130   -1.4720    1.5270 h1        1 DF6      0.085000
     57 H23        -9.8020   -1.5340    3.0810 h1        1 DF6      0.085000
@<TRIPOS>BOND
     1    1   32 1   
     2    1   35 1   
     3    2   26 1   
     4    2   27 1   
     5    3   26 1   
     6    3   36 1   
     7    4   25 1   
     8    4   37 1   
     9    5   20 1   
    10    5   38 1   
    11    6    7 1   
    12    6   12 1   
    13    6   39 1   
    14    6   40 1   
    15    7   13 1   
    16    7   15 1   
    17    8   14 1   
    18    8   41 1   
    19    9   13 1   
    20    9   42 1   
    21   10   22 1   
    22   10   43 1   
    23   11   12 1   
    24   13   44 1   
    25   14   45 1   
    26   15   46 1   
    27   16   17 1   
    28   16   47 1   
    29   17   18 1   
    30   19   20 1   
    31   19   48 1   
    32   21   23 1   
    33   21   49 1   
    34   22   50 1   
    35   23   24 1   
    36   24   25 1   
    37   25   27 1   
    38   28   29 1   
    39   28   51 1   
    40   29   32 1   
    41   30   31 1   
    42   31   52 1   
    43   31   53 1   
    44   31   54 1   
    45   32   33 1   
    46   33   34 1   
    47   34   55 1   
    48   34   56 1   
    49   34   57 1   
@<TRIPOS>SUBSTRUCTURE
     1 DF6         1 TEMP              0 ****  ****    0 ROOT
