@<TRIPOS>MOLECULE
DF6
   57    57     1     0     0
SMALL
bcc


@<TRIPOS>ATOM
      1 C4          2.9060   -2.8690   -1.5200 c2        1 DF6     -0.085000
      2 C5          3.7630   -1.9800   -0.6300 c3        1 DF6      0.144000
      3 C7          6.1290   -3.0140   -0.3140 c1        1 DF6      0.066000
      4 C8          4.5120    0.3110    1.1180 c2        1 DF6     -0.239000
      5 C13         7.6000    3.3380   -0.8300 c3        1 DF6     -0.167000
      6 C21        11.9420   -2.5350   -4.1440 c3        1 DF6     -0.059000
      7 C22        12.9480   -3.2440   -4.8730 c1        1 DF6     -0.200000
      8 C24         9.1620   -4.3210   -1.2750 c2        1 DF6     -0.087000
      9 C26         9.3250   -4.9260   -3.8030 c1        1 DF6     -0.242000
     10 C28         6.8810    2.6010   -3.1700 c3        1 DF6     -0.167000
     11 O20        11.0650   -0.2390   -4.7520 os        1 DF6      0.051000
     12 C19        11.4380   -1.3760   -4.8690 c1        1 DF6      0.122000
     13 C27        13.7900   -3.8570   -5.4590 c1        1 DF6     -0.130000
     14 C25         9.2670   -4.6490   -2.6380 c1        1 DF6     -0.118000
     15 C23        10.1360   -4.5190   -0.3820 c2        1 DF6     -0.193000
     16 N18         9.4850    2.3340   -4.7770 n2        1 DF6     -0.230000
     17 C16         9.8410    1.9260   -3.6100 c2        1 DF6      0.019000
     18 S17        11.0400    0.7260   -3.2040 ss        1 DF6     -0.217000
     19 C14         8.0090    2.8330   -2.2000 c2        1 DF6      0.143000
     20 C12         6.3350    2.8100   -0.3250 c1        1 DF6     -0.180500
     21 C29         5.6260    2.1610   -2.5670 c1        1 DF6     -0.180500
     22 C11         5.4440    2.2130   -1.1980 c2        1 DF6     -0.164000
     23 C9          4.2370    0.4810   -0.1840 c2        1 DF6      0.063000
     24 N6          5.0510   -2.5540   -0.4400 n2        1 DF6     -0.306000
     25 C30         3.8640   -0.5570   -1.1420 c2        1 DF6     -0.121000
     26 C31         3.6390   -0.2640   -2.4430 c2        1 DF6     -0.079000
     27 C32         3.2160   -1.2810   -3.3730 c2        1 DF6     -0.044000
     28 O33         3.1800   -1.0650   -4.7440 os        1 DF6     -0.236000
     29 C34         2.9540    0.2870   -5.1380 c3        1 DF6     -0.075000
     30 C3          2.8400   -2.5190   -2.9330 c2        1 DF6      0.050000
     31 O2          2.3860   -3.5210   -3.7580 oh        1 DF6     -0.253000
     32 C1          2.2500   -3.9170   -1.0050 c2        1 DF6     -0.160000
     33 H1          3.2620   -1.9490    0.3910 h1        1 DF6      0.117000
     34 H2          4.8050    1.1670    1.7420 ha        1 DF6      0.126000
     35 H3          4.4660   -0.6610    1.6200 ha        1 DF6      0.126000
     36 H4          8.4010    3.1390   -0.0640 hc        1 DF6      0.147500
     37 H5         11.0510   -3.2210   -3.9460 hc        1 DF6      0.171000
     38 H6         12.3440   -2.2090   -3.1350 hc        1 DF6      0.171000
     39 H7         11.1080   -4.9580   -0.6370 ha        1 DF6      0.116000
     40 H8         14.5390   -4.4030   -5.9770 ha        1 DF6      0.236000
     41 H9          7.1590    1.8380   -3.9510 hc        1 DF6      0.147500
     42 H10         9.3510   -5.1900   -4.8300 ha        1 DF6      0.224000
     43 H11         8.1830   -3.8830   -0.9730 ha        1 DF6      0.186000
     44 H12        10.0030   -4.2530    0.6750 ha        1 DF6      0.116000
     45 H13         9.9360    1.8930   -5.5510 hn        1 DF6      0.195000
     46 H14         9.9450    2.5750   -1.6660 hn        1 DF6      0.267000
     47 H15         7.4780    4.4590   -0.9070 hc        1 DF6      0.147500
     48 H16         6.6890    3.5720   -3.7140 hc        1 DF6      0.147500
     49 H17         3.7790    0.7750   -2.8080 ha        1 DF6      0.205000
     50 H18         3.8670    0.9020   -4.9420 h1        1 DF6      0.087667
     51 H19         2.0720    0.7180   -4.6070 h1        1 DF6      0.087667
     52 H20         2.7570    0.2080   -6.2370 h1        1 DF6      0.087667
     53 H21         2.3060   -3.1510   -4.6520 ho        1 DF6      0.233000
     54 H22         1.6320   -4.5750   -1.6320 ha        1 DF6      0.127000
     55 H23         2.2960   -4.1730    0.0610 ha        1 DF6      0.127000
     56 O10         4.1990    1.7910   -0.6920 os        1 DF6     -0.156000
     57 N15         9.2780    2.5020   -2.4170 n3        1 DF6     -0.164000
@<TRIPOS>BOND
     1    1    2 1   
     2    1   30 1   
     3    1   32 1   
     4    2   24 1   
     5    2   25 1   
     6    2   33 1   
     7    3   24 1   
     8    4   23 1   
     9    4   34 1   
    10    4   35 1   
    11    5   19 1   
    12    5   20 1   
    13    5   36 1   
    14    5   47 1   
    15    6    7 1   
    16    6   12 1   
    17    6   37 1   
    18    6   38 1   
    19    7   13 1   
    20    8   14 1   
    21    8   15 1   
    22    8   43 1   
    23    9   14 1   
    24    9   42 1   
    25   10   19 1   
    26   10   21 1   
    27   10   41 1   
    28   10   48 1   
    29   11   12 1   
    30   11   18 1   
    31   13   40 1   
    32   15   39 1   
    33   15   44 1   
    34   16   17 1   
    35   16   45 1   
    36   17   18 1   
    37   17   57 1   
    38   19   57 1   
    39   20   22 1   
    40   21   22 1   
    41   22   56 1   
    42   23   25 1   
    43   23   56 1   
    44   25   26 1   
    45   26   27 1   
    46   26   49 1   
    47   27   28 1   
    48   27   30 1   
    49   28   29 1   
    50   29   50 1   
    51   29   51 1   
    52   29   52 1   
    53   30   31 1   
    54   31   53 1   
    55   32   54 1   
    56   32   55 1   
    57   46   57 1   
@<TRIPOS>SUBSTRUCTURE
     1 DF6         1 TEMP              0 ****  ****    0 ROOT
