@<TRIPOS>MOLECULE
DF6
   57    60     1     0     0
SMALL
bcc


@<TRIPOS>ATOM
      1 C4          7.1670    0.7780   -0.8290 ca        1 DF6     -0.249300
      2 C5          5.8170    1.2400   -0.7100 ca        1 DF6      0.424600
      3 C7          4.2320    2.8920   -1.0640 ca        1 DF6      0.436200
      4 C8          3.1900    2.1220   -0.4690 ca        1 DF6     -0.327300
      5 C13        -0.8110    0.5890    1.7330 ca        1 DF6     -0.134500
      6 C21        -7.3250    1.3010    0.9780 c3        1 DF6     -0.107100
      7 C22        -8.0060    0.1550    0.3200 ca        1 DF6     -0.109300
      8 C24        -8.9550   -0.8720   -1.6570 ca        1 DF6     -0.122500
      9 C26        -9.0300   -2.0350    0.4580 ca        1 DF6     -0.122500
     10 C28        -0.7630    0.5830   -0.7040 ca        1 DF6     -0.134500
     11 O20        -5.1790    1.4910    2.0450 o         1 DF6     -0.601100
     12 C19        -5.8090    1.1710    1.0180 c         1 DF6      0.666100
     13 C27        -8.3770   -0.9660    1.0710 ca        1 DF6     -0.122500
     14 C25        -9.3190   -1.9900   -0.9060 ca        1 DF6     -0.117000
     15 C23        -8.3020    0.1980   -1.0480 ca        1 DF6     -0.122500
     16 N18        -5.1840    0.7250   -0.1420 n         1 DF6     -0.569500
     17 C16        -3.8110    0.5220   -0.4110 c         1 DF6      0.581400
     18 S17        -3.4850   -0.1060   -1.8700 s         1 DF6     -0.539400
     19 C14        -1.4990    0.6730    0.4950 ca        1 DF6      0.040600
     20 C12         0.5660    0.4240    1.7660 ca        1 DF6     -0.123500
     21 C29         0.6180    0.4070   -0.6680 ca        1 DF6     -0.123500
     22 C11         1.2760    0.3260    0.5620 ca        1 DF6      0.076100
     23 C9          3.5150    0.8690    0.0120 ca        1 DF6      0.167100
     24 N6          5.4870    2.4940   -1.1890 nb        1 DF6     -0.677000
     25 C30         4.8570    0.3790   -0.0960 ca        1 DF6     -0.151300
     26 C31         5.2390   -0.9000    0.3790 ca        1 DF6     -0.163000
     27 C32         6.5410   -1.3250    0.2530 ca        1 DF6      0.110100
     28 O33         7.0290   -2.5430    0.6750 os        1 DF6     -0.301900
     29 C34         6.0780   -3.4170    1.2750 c3        1 DF6      0.108700
     30 C3          7.5210   -0.4670   -0.3620 ca        1 DF6      0.134100
     31 O2          8.7870   -1.0050   -0.4260 os        1 DF6     -0.301900
     32 C1          9.7840   -0.1880   -1.0310 c3        1 DF6      0.107700
     33 H1          7.9080    1.4420   -1.3010 ha        1 DF6      0.160000
     34 H2          3.9990    3.9000   -1.4560 h4        1 DF6      0.023100
     35 H3          2.1730    2.5270   -0.4030 ha        1 DF6      0.157000
     36 H4         -1.3610    0.6580    2.6860 ha        1 DF6      0.167500
     37 H5         -7.5660    2.2610    0.4440 hc        1 DF6      0.089700
     38 H6         -7.6760    1.4040    2.0410 hc        1 DF6      0.089700
     39 H7         -9.1820   -0.8340   -2.7330 ha        1 DF6      0.139000
     40 H8         -9.3180   -2.9140    1.0530 ha        1 DF6      0.139000
     41 H9         -1.2750    0.6320   -1.6840 ha        1 DF6      0.167500
     42 H10        -8.1530   -1.0040    2.1480 ha        1 DF6      0.136500
     43 H11        -9.8330   -2.8340   -1.3890 ha        1 DF6      0.138000
     44 H12        -8.0260    1.0810   -1.6440 ha        1 DF6      0.136500
     45 H13        -5.7750    0.4300   -0.9020 hn        1 DF6      0.362500
     46 H14        -3.2210    1.2300    1.4330 hn        1 DF6      0.353500
     47 H15         1.1010    0.3550    2.7250 ha        1 DF6      0.156000
     48 H16         1.1890    0.3330   -1.6050 ha        1 DF6      0.156000
     49 H17         4.4670   -1.5330    0.8440 ha        1 DF6      0.159000
     50 H18         6.6850   -4.3240    1.5250 h1        1 DF6      0.046700
     51 H19         5.6510   -2.9600    2.2000 h1        1 DF6      0.046700
     52 H20         5.2650   -3.6720    0.5520 h1        1 DF6      0.046700
     53 H21         9.5230    0.0320   -2.0950 h1        1 DF6      0.047700
     54 H22         9.9190    0.7600   -0.4560 h1        1 DF6      0.047700
     55 H23        10.7050   -0.8220   -0.9710 h1        1 DF6      0.047700
     56 O10         2.6330    0.0150    0.6560 os        1 DF6     -0.246200
     57 N15        -2.8930    0.8910    0.5440 n         1 DF6     -0.398100
@<TRIPOS>BOND
     1    1    2 ar  
     2    1   30 ar  
     3    1   33 1   
     4    2   24 ar  
     5    2   25 ar  
     6    3    4 ar  
     7    3   24 ar  
     8    3   34 1   
     9    4   23 ar  
    10    4   35 1   
    11    5   19 ar  
    12    5   20 ar  
    13    5   36 1   
    14    6    7 1   
    15    6   12 1   
    16    6   37 1   
    17    6   38 1   
    18    7   13 ar  
    19    7   15 ar  
    20    8   14 ar  
    21    8   15 ar  
    22    8   39 1   
    23    9   13 ar  
    24    9   14 ar  
    25    9   40 1   
    26   10   19 ar  
    27   10   21 ar  
    28   10   41 1   
    29   11   12 2   
    30   12   16 1   
    31   13   42 1   
    32   14   43 1   
    33   15   44 1   
    34   16   17 1   
    35   16   45 1   
    36   17   18 2   
    37   17   57 1   
    38   19   57 1   
    39   20   22 ar  
    40   20   47 1   
    41   21   22 ar  
    42   21   48 1   
    43   22   56 1   
    44   23   25 ar  
    45   23   56 1   
    46   25   26 ar  
    47   26   27 ar  
    48   26   49 1   
    49   27   28 1   
    50   27   30 ar  
    51   28   29 1   
    52   29   50 1   
    53   29   51 1   
    54   29   52 1   
    55   30   31 1   
    56   31   32 1   
    57   32   53 1   
    58   32   54 1   
    59   32   55 1   
    60   46   57 1   
@<TRIPOS>SUBSTRUCTURE
     1 DF6         1 TEMP              0 ****  ****    0 ROOT
