@<TRIPOS>MOLECULE
DF6
   58    59     1     0     0
SMALL
bcc


@<TRIPOS>ATOM
      1 C4          2.9400   -2.4700   -1.2340 c2        1 DF6     -0.134000
      2 C5          3.7290   -1.5430   -0.3210 c3        1 DF6      0.157000
      3 C7          6.1150   -2.4430    0.1760 c1        1 DF6      0.076000
      4 C8          3.4170    1.1670    1.2000 c2        1 DF6     -0.169000
      5 C13         8.5790    1.7430   -1.1570 c2        1 DF6     -0.133000
      6 C21        11.3540   -1.7540   -5.9100 c3        1 DF6     -0.092000
      7 C22        11.9160   -2.6870   -4.8990 c2        1 DF6     -0.186000
      8 C24         7.7420   -0.9500   -5.7630 c2        1 DF6      0.096000
      9 C26         7.0160   -2.7490   -4.1850 c1        1 DF6      0.257000
     10 C28         8.0900    0.0140    0.5680 c3        1 DF6     -0.198000
     11 O20        10.9220    0.1560   -4.5660 os        1 DF6     -0.288000
     12 C19        10.3160   -0.8530   -5.3190 c2        1 DF6      0.054000
     13 C27        13.2050   -2.7200   -4.5630 c2        1 DF6     -0.221000
     14 C25         6.8050   -1.7250   -4.9880 c2        1 DF6     -0.488000
     15 C23         9.0270   -0.8830   -5.5290 c1        1 DF6     -0.272000
     16 N18        11.8750   -0.9230   -2.1240 n3        1 DF6     -0.328000
     17 C16        10.7780   -0.1540   -1.9230 c2        1 DF6      0.028000
     18 S17        10.0330    0.6920   -3.2300 ss        1 DF6      0.547000
     19 C14         8.9900    0.6360   -0.4600 c2        1 DF6     -0.050000
     20 C12         7.2330    2.2190   -1.0600 c2        1 DF6     -0.104000
     21 C29         6.7420    0.5320    0.6310 c1        1 DF6     -0.052000
     22 C11         6.3190    1.5180   -0.3060 c2        1 DF6      0.018000
     23 C9          4.0640    0.9440    0.0500 c2        1 DF6      0.045000
     24 N6          5.0220   -2.0630   -0.0470 n2        1 DF6     -0.307000
     25 C30         3.8180   -0.1410   -0.8970 c2        1 DF6     -0.144000
     26 C31         3.6970    0.0770   -2.2230 c2        1 DF6     -0.041000
     27 C32         3.4550   -1.0150   -3.1420 c2        1 DF6     -0.026000
     28 O33         3.6970   -0.7420   -4.4780 os        1 DF6     -0.236000
     29 C34         2.5480   -0.8710   -5.3220 c3        1 DF6     -0.078000
     30 C3          3.1050   -2.2490   -2.6700 c2        1 DF6      0.062000
     31 O2          2.8640   -3.2550   -3.5720 oh        1 DF6     -0.240000
     32 C1          2.1270   -3.3980   -0.7160 c2        1 DF6     -0.150000
     33 H1          3.1810   -1.4790    0.6740 h1        1 DF6      0.128000
     34 H2          3.6750    2.0080    1.8570 ha        1 DF6      0.140500
     35 H3          2.5860    0.5300    1.5280 ha        1 DF6      0.140500
     36 H4          9.2530    2.3270   -1.8140 ha        1 DF6      0.159000
     37 H5         12.1620   -1.1200   -6.3690 hc        1 DF6      0.131500
     38 H6         10.8740   -2.3480   -6.7370 hc        1 DF6      0.131500
     39 H7          7.3110   -0.3720   -6.6070 ha        1 DF6      0.170000
     40 H8         13.6060   -3.4580   -3.8540 ha        1 DF6      0.128000
     41 H9          8.5350    0.1490    1.6020 hc        1 DF6      0.198500
     42 H10        13.9550   -2.0460   -5.0030 ha        1 DF6      0.128000
     43 H11         5.7280   -1.4190   -5.0920 ha        1 DF6      0.244000
     44 H12        11.1920   -3.3980   -4.4660 ha        1 DF6      0.134000
     45 H13        12.2350   -1.0370   -3.0560 hn        1 DF6      0.277000
     46 H14        10.6340   -0.4660    0.1150 hn        1 DF6      0.268000
     47 H15         6.9500    3.1280   -1.6160 ha        1 DF6      0.173000
     48 H16         7.9860   -1.1120    0.4200 hc        1 DF6      0.198500
     49 H17         3.7770    1.0890   -2.6550 ha        1 DF6      0.164000
     50 H18         1.7470   -0.1670   -4.9960 h1        1 DF6      0.091000
     51 H19         2.1760   -1.9250   -5.3110 h1        1 DF6      0.091000
     52 H20         2.9350   -0.5940   -6.3350 h1        1 DF6      0.091000
     53 H21         1.5140   -4.0680   -1.3360 ha        1 DF6      0.136000
     54 H22         2.7080   -4.0770   -3.0830 ho        1 DF6      0.231000
     55 H23         2.0110   -3.5370    0.3680 ha        1 DF6      0.136000
     56 O10         4.9980    1.9130   -0.3850 os        1 DF6     -0.152000
     57 H182       12.3190   -1.4290   -1.3890 hn        1 DF6      0.277000
     58 N15        10.2350    0.0010   -0.6770 n3        1 DF6     -0.215000
@<TRIPOS>BOND
     1    1    2 1   
     2    1   30 1   
     3    1   32 1   
     4    2   24 1   
     5    2   25 1   
     6    2   33 1   
     7    3   24 1   
     8    4   23 1   
     9    4   34 1   
    10    4   35 1   
    11    5   19 1   
    12    5   20 1   
    13    5   36 1   
    14    6    7 1   
    15    6   12 1   
    16    6   37 1   
    17    6   38 1   
    18    7   13 1   
    19    7   44 1   
    20    8   14 1   
    21    8   15 1   
    22    8   39 1   
    23    9   14 1   
    24   10   19 1   
    25   10   21 1   
    26   10   41 1   
    27   10   48 1   
    28   11   12 1   
    29   11   18 1   
    30   12   15 1   
    31   13   40 1   
    32   13   42 1   
    33   14   43 1   
    34   16   17 1   
    35   16   45 1   
    36   16   57 1   
    37   17   18 1   
    38   17   58 1   
    39   19   58 1   
    40   20   22 1   
    41   20   47 1   
    42   21   22 1   
    43   22   56 1   
    44   23   25 1   
    45   23   56 1   
    46   25   26 1   
    47   26   27 1   
    48   26   49 1   
    49   27   28 1   
    50   27   30 1   
    51   28   29 1   
    52   29   50 1   
    53   29   51 1   
    54   29   52 1   
    55   30   31 1   
    56   31   54 1   
    57   32   53 1   
    58   32   55 1   
    59   46   58 1   
@<TRIPOS>SUBSTRUCTURE
     1 DF6         1 TEMP              0 ****  ****    0 ROOT
