@<TRIPOS>MOLECULE
DF9
   49    52     1     0     0
SMALL
bcc


@<TRIPOS>ATOM
      1 N6          0.2920    1.3900   -0.8790 nh        1 DF9     -0.915500
      2 C6          1.5080    0.7910   -0.5020 ca        1 DF9      0.648200
      3 N1          1.8320    0.5880    0.8050 nb        1 DF9     -0.748000
      4 C2          3.0730    0.0830    1.0780 ca        1 DF9      0.636900
      5 N3          4.0530   -0.2800    0.2250 nb        1 DF9     -0.664000
      6 C5          2.4720    0.4580   -1.5060 ca        1 DF9     -0.325800
      7 C4          3.7510   -0.0950   -1.0850 ca        1 DF9      0.466100
      8 N7          2.4470    0.5170   -2.9000 na        1 DF9     -0.163400
      9 C8          3.6910    0.0820   -3.3650 cc        1 DF9     -0.093100
     10 C9          4.5020   -0.3330   -2.3070 cd        1 DF9     -0.247000
     11 C10         5.8730   -0.8820   -2.3880 c3        1 DF9      0.233000
     12 N1'         5.9310   -2.3380   -2.4770 n3        1 DF9     -0.696600
     13 C2'         5.3200   -2.9010   -3.6780 c3        1 DF9      0.118800
     14 C3'         6.4190   -3.5040   -4.5900 c3        1 DF9      0.119100
     15 O3'         6.1680   -4.8610   -4.9100 oh        1 DF9     -0.590800
     16 C1'         7.3010   -2.8560   -2.4000 c3        1 DF9      0.151800
     17 C4'         7.7200   -3.4550   -3.7620 c3        1 DF9     -0.077700
     18 C5'         8.7730   -2.6320   -4.4610 c3        1 DF9     -0.013300
     19 S6'        10.2760   -2.7310   -3.5290 ss        1 DF9     -0.289200
     20 C7'        11.4110   -1.9280   -4.6350 c3        1 DF9      0.039000
     21 C21        12.7460   -1.9280   -3.9990 ca        1 DF9     -0.077300
     22 C26        13.6270   -2.9970   -4.2050 ca        1 DF9     -0.111500
     23 C25        14.8890   -2.9890   -3.6140 ca        1 DF9     -0.131000
     24 C24        15.2820   -1.9170   -2.8130 ca        1 DF9     -0.123000
     25 C23        14.4090   -0.8490   -2.6060 ca        1 DF9     -0.131000
     26 C22        13.1460   -0.8520   -3.1950 ca        1 DF9     -0.111500
     27 HN6        -0.3390    1.5590   -0.1240 hn        1 DF9      0.397300
     28 HN6A       -0.1450    0.9200   -1.6430 hn        1 DF9      0.397300
     29 H2          3.2890   -0.0530    2.1590 h5        1 DF9      0.053100
     30 HN7         1.8190    1.0770   -3.4160 hn        1 DF9      0.299700
     31 H8          3.9080    0.0810   -4.4360 h4        1 DF9      0.168000
     32 H10         6.4210   -0.5940   -1.4420 h1        1 DF9      0.045700
     33 H10A        6.4040   -0.3880   -3.2580 h1        1 DF9      0.045700
     34 H2'         4.6250   -3.7200   -3.3410 h1        1 DF9      0.053200
     35 H2'A        4.7180   -2.1390   -4.2410 h1        1 DF9      0.053200
     36 H3'         6.5110   -2.9150   -5.5430 h1        1 DF9      0.034700
     37 HO3'        5.2620   -4.9090   -5.2380 ho        1 DF9      0.401000
     38 H1'         8.0380   -2.0750   -2.0690 h1        1 DF9      0.067200
     39 H1'A        7.2860   -3.6720   -1.6250 h1        1 DF9      0.067200
     40 H4'         8.1010   -4.5020   -3.6120 hc        1 DF9      0.099700
     41 H5'         8.4460   -1.5670   -4.5480 h1        1 DF9      0.058700
     42 H5'A        8.9390   -3.0250   -5.4950 h1        1 DF9      0.058700
     43 H7'        11.0650   -0.8840   -4.8380 h1        1 DF9      0.063700
     44 H7'A       11.4350   -2.4730   -5.6120 h1        1 DF9      0.063700
     45 H26        13.3180   -3.8470   -4.8320 ha        1 DF9      0.135500
     46 H25        15.5750   -3.8340   -3.7780 ha        1 DF9      0.133000
     47 H24        16.2780   -1.9130   -2.3470 ha        1 DF9      0.132000
     48 H23        14.7150   -0.0030   -1.9740 ha        1 DF9      0.133000
     49 H22        12.4580   -0.0110   -3.0250 ha        1 DF9      0.135500
@<TRIPOS>BOND
     1    1    2 1   
     2    1   27 1   
     3    1   28 1   
     4    2    3 ar  
     5    2    6 ar  
     6    3    4 ar  
     7    4    5 ar  
     8    4   29 1   
     9    5    7 ar  
    10    6    7 ar  
    11    6    8 1   
    12    7   10 1   
    13    8    9 1   
    14    8   30 1   
    15    9   10 2   
    16    9   31 1   
    17   10   11 1   
    18   11   12 1   
    19   11   32 1   
    20   11   33 1   
    21   12   13 1   
    22   12   16 1   
    23   13   14 1   
    24   13   34 1   
    25   13   35 1   
    26   14   15 1   
    27   14   17 1   
    28   14   36 1   
    29   15   37 1   
    30   16   17 1   
    31   16   38 1   
    32   16   39 1   
    33   17   18 1   
    34   17   40 1   
    35   18   19 1   
    36   18   41 1   
    37   18   42 1   
    38   19   20 1   
    39   20   21 1   
    40   20   43 1   
    41   20   44 1   
    42   21   22 ar  
    43   21   26 ar  
    44   22   23 ar  
    45   22   45 1   
    46   23   24 ar  
    47   23   46 1   
    48   24   25 ar  
    49   24   47 1   
    50   25   26 ar  
    51   25   48 1   
    52   26   49 1   
@<TRIPOS>SUBSTRUCTURE
     1 DF9         1 TEMP              0 ****  ****    0 ROOT
