@<TRIPOS>MOLECULE
DF9
   50    53     1     0     0
SMALL
bcc


@<TRIPOS>ATOM
      1 N6          3.3340    0.8380    1.5720 n4        1 DF9     -0.815300
      2 C6          3.8070    1.0720    0.1950 ca        1 DF9      0.437200
      3 N1          4.1640    2.3450   -0.1350 nb        1 DF9     -0.669000
      4 C2          4.6020    2.5540   -1.4000 ca        1 DF9      0.647900
      5 N3          4.7320    1.6380   -2.4020 nb        1 DF9     -0.589000
      6 C5          3.8870    0.0180   -0.7320 ca        1 DF9     -0.245800
      7 C4          4.3860    0.3850   -2.0880 ca        1 DF9      0.478100
      8 N7          3.6070   -1.3350   -0.7270 na        1 DF9     -0.191400
      9 C8          3.9120   -1.8550   -1.9990 cc        1 DF9     -0.025100
     10 C9          4.3810   -0.8580   -2.8460 cd        1 DF9     -0.215000
     11 C10         4.7890   -0.9840   -4.2680 c3        1 DF9      0.218000
     12 N1'         5.2310   -2.3320   -4.6080 n3        1 DF9     -0.718600
     13 C2'         5.3050   -2.5630   -6.0530 c3        1 DF9      0.116800
     14 C3'         6.7890   -2.7350   -6.4760 c3        1 DF9      0.122100
     15 O3'         7.0060   -3.9900   -7.0930 oh        1 DF9     -0.585800
     16 C1'         6.5410   -2.6800   -4.0460 c3        1 DF9      0.144800
     17 C4'         7.6020   -2.7240   -5.1650 c3        1 DF9     -0.083700
     18 C5'         8.5420   -1.5440   -5.1160 c3        1 DF9     -0.017300
     19 S6'         9.4390   -1.4060   -3.6000 ss        1 DF9     -0.318200
     20 C7'        10.8090   -2.5170   -3.8470 c3        1 DF9      0.050000
     21 C21        11.5950   -2.5430   -2.5950 ca        1 DF9     -0.084300
     22 C26        11.4110   -3.5750   -1.6660 ca        1 DF9     -0.112000
     23 C25        12.1680   -3.6090   -0.4960 ca        1 DF9     -0.131000
     24 C24        13.1140   -2.6150   -0.2450 ca        1 DF9     -0.119000
     25 C23        13.3020   -1.5850   -1.1670 ca        1 DF9     -0.131000
     26 C22        12.5480   -1.5490   -2.3390 ca        1 DF9     -0.112000
     27 HN6         2.3820    0.4590    1.5420 hn        1 DF9      0.469800
     28 HN6A        3.9620    0.1750    2.0360 hn        1 DF9      0.469800
     29 H2          4.8880    3.6040   -1.6450 h5        1 DF9      0.097100
     30 HN7         3.2980   -1.8710    0.0410 hn        1 DF9      0.310700
     31 H8          3.7700   -2.9230   -2.2100 h4        1 DF9      0.218000
     32 H10         3.8870   -0.7370   -4.9040 h1        1 DF9      0.065700
     33 H10A        5.5780   -0.2010   -4.4800 h1        1 DF9      0.065700
     34 H2'         4.8260   -1.7380   -6.6440 h1        1 DF9      0.064200
     35 H2'A        4.7460   -3.5180   -6.2580 h1        1 DF9      0.064200
     36 H3'         7.1030   -1.9090   -7.1690 h1        1 DF9      0.048700
     37 HO3'        6.5140   -3.9860   -7.9230 ho        1 DF9      0.409000
     38 H1'         6.8560   -1.9720   -3.2320 h1        1 DF9      0.063700
     39 H1'A        6.4330   -3.7070   -3.5990 h1        1 DF9      0.063700
     40 H4'         8.1900   -3.6790   -5.0880 hc        1 DF9      0.093700
     41 H5'         7.9670   -0.5870   -5.1960 h1        1 DF9      0.076200
     42 H5'A        9.2500   -1.5960   -5.9800 h1        1 DF9      0.076200
     43 H7'        11.4320   -2.1530   -4.7020 h1        1 DF9      0.071700
     44 H7'A       10.4280   -3.5350   -4.1090 h1        1 DF9      0.071700
     45 H26        10.6710   -4.3650   -1.8640 ha        1 DF9      0.135500
     46 H25        12.0240   -4.4260    0.2260 ha        1 DF9      0.136000
     47 H24        13.7140   -2.6450    0.6760 ha        1 DF9      0.137000
     48 H23        14.0500   -0.8020   -0.9740 ha        1 DF9      0.136000
     49 H22        12.7010   -0.7380   -3.0670 ha        1 DF9      0.135500
     50 H63         3.3270    1.7220    2.1050 hn        1 DF9      0.469800
@<TRIPOS>BOND
     1    1    2 1   
     2    1   27 1   
     3    1   28 1   
     4    1   50 1   
     5    2    3 ar  
     6    2    6 ar  
     7    3    4 ar  
     8    4    5 ar  
     9    4   29 1   
    10    5    7 ar  
    11    6    7 ar  
    12    6    8 1   
    13    7   10 1   
    14    8    9 1   
    15    8   30 1   
    16    9   10 2   
    17    9   31 1   
    18   10   11 1   
    19   11   12 1   
    20   11   32 1   
    21   11   33 1   
    22   12   13 1   
    23   12   16 1   
    24   13   14 1   
    25   13   34 1   
    26   13   35 1   
    27   14   15 1   
    28   14   17 1   
    29   14   36 1   
    30   15   37 1   
    31   16   17 1   
    32   16   38 1   
    33   16   39 1   
    34   17   18 1   
    35   17   40 1   
    36   18   19 1   
    37   18   41 1   
    38   18   42 1   
    39   19   20 1   
    40   20   21 1   
    41   20   43 1   
    42   20   44 1   
    43   21   22 ar  
    44   21   26 ar  
    45   22   23 ar  
    46   22   45 1   
    47   23   24 ar  
    48   23   46 1   
    49   24   25 ar  
    50   24   47 1   
    51   25   26 ar  
    52   25   48 1   
    53   26   49 1   
@<TRIPOS>SUBSTRUCTURE
     1 DF9         1 TEMP              0 ****  ****    0 ROOT
