@<TRIPOS>MOLECULE
DF9
   49    52     1     0     0
SMALL
bcc


@<TRIPOS>ATOM
      1 N6          0.2430    1.2650   -0.8850 nv        1 DF9     -0.915500
      2 C6          1.5030    0.7740   -0.5000 ca        1 DF9      0.648200
      3 N1          1.8120    0.5350    0.8050 nb        1 DF9     -0.748000
      4 C2          3.0320   -0.0190    1.0760 ca        1 DF9      0.636900
      5 N3          4.0200   -0.3650    0.2250 nb        1 DF9     -0.664000
      6 C5          2.4660    0.4370   -1.5040 ca        1 DF9     -0.325800
      7 C4          3.7330   -0.1440   -1.0830 ca        1 DF9      0.466100
      8 N7          2.4820    0.5880   -2.8900 na        1 DF9     -0.163400
      9 C8          3.6850    0.0550   -3.3620 cc        1 DF9     -0.093100
     10 C9          4.4890   -0.3720   -2.3040 cd        1 DF9     -0.246000
     11 C10         5.8640   -0.9160   -2.3830 c3        1 DF9      0.233000
     12 N1'         5.9260   -2.3710   -2.4910 n3        1 DF9     -0.696600
     13 C2'         5.3210   -2.9220   -3.7000 c3        1 DF9      0.119800
     14 C3'         6.4260   -3.5120   -4.6150 c3        1 DF9      0.119100
     15 O3'         6.1800   -4.8660   -4.9490 oh        1 DF9     -0.589800
     16 C1'         7.2980   -2.8850   -2.4140 c3        1 DF9      0.151800
     17 C4'         7.7230   -3.4660   -3.7820 c3        1 DF9     -0.078700
     18 C5'         8.7740   -2.6300   -4.4690 c3        1 DF9     -0.013300
     19 S6'        10.2740   -2.7280   -3.5320 ss        1 DF9     -0.289200
     20 C7'        11.4090   -1.9130   -4.6290 c3        1 DF9      0.039000
     21 C21        12.7420   -1.9100   -3.9870 ca        1 DF9     -0.077300
     22 C26        13.6300   -2.9740   -4.1960 ca        1 DF9     -0.111500
     23 C25        14.8890   -2.9640   -3.5990 ca        1 DF9     -0.131000
     24 C24        15.2730   -1.8940   -2.7920 ca        1 DF9     -0.123000
     25 C23        14.3940   -0.8320   -2.5810 ca        1 DF9     -0.131000
     26 C22        13.1340   -0.8380   -3.1750 ca        1 DF9     -0.111500
     27 HN6         0.3060    1.9890   -1.5690 hn        1 DF9      0.397300
     28 HN6A       -0.3580    1.5090   -0.1250 hn        1 DF9      0.397300
     29 H2          3.2300   -0.1970    2.1540 h5        1 DF9      0.053100
     30 HN7         1.6710    0.7150   -3.4390 hn        1 DF9      0.299700
     31 H8          3.9030    0.0520   -4.4320 h4        1 DF9      0.168000
     32 H10         6.3980   -0.4090   -3.2430 h1        1 DF9      0.045700
     33 H10A        6.4050   -0.6400   -1.4300 h1        1 DF9      0.045700
     34 H2'         4.7210   -2.1550   -4.2570 h1        1 DF9      0.052700
     35 H2'A        4.6270   -3.7460   -3.3740 h1        1 DF9      0.052700
     36 H3'         6.5170   -2.9140   -5.5620 h1        1 DF9      0.034700
     37 HO3'        5.2740   -4.9160   -5.2750 ho        1 DF9      0.401000
     38 H1'         7.2830   -3.7110   -1.6500 h1        1 DF9      0.067200
     39 H1'A        8.0310   -2.1060   -2.0720 h1        1 DF9      0.067200
     40 H4'         8.1090   -4.5130   -3.6430 hc        1 DF9      0.099700
     41 H5'         8.9470   -3.0110   -5.5050 h1        1 DF9      0.058700
     42 H5'A        8.4410   -1.5660   -4.5470 h1        1 DF9      0.058700
     43 H7'        11.0600   -0.8690   -4.8270 h1        1 DF9      0.063700
     44 H7'A       11.4400   -2.4530   -5.6090 h1        1 DF9      0.063700
     45 H26        13.3270   -3.8220   -4.8290 ha        1 DF9      0.135500
     46 H25        15.5790   -3.8040   -3.7660 ha        1 DF9      0.133000
     47 H24        16.2670   -1.8880   -2.3210 ha        1 DF9      0.132000
     48 H23        14.6940    0.0120   -1.9430 ha        1 DF9      0.133000
     49 H22        12.4410   -0.0000   -3.0040 ha        1 DF9      0.135500
@<TRIPOS>BOND
     1    1    2 1   
     2    1   27 1   
     3    1   28 1   
     4    2    3 ar  
     5    2    6 ar  
     6    3    4 ar  
     7    4    5 ar  
     8    4   29 1   
     9    5    7 ar  
    10    6    7 ar  
    11    6    8 1   
    12    7   10 1   
    13    8    9 1   
    14    8   30 1   
    15    9   10 2   
    16    9   31 1   
    17   10   11 1   
    18   11   12 1   
    19   11   32 1   
    20   11   33 1   
    21   12   13 1   
    22   12   16 1   
    23   13   14 1   
    24   13   34 1   
    25   13   35 1   
    26   14   15 1   
    27   14   17 1   
    28   14   36 1   
    29   15   37 1   
    30   16   17 1   
    31   16   38 1   
    32   16   39 1   
    33   17   18 1   
    34   17   40 1   
    35   18   19 1   
    36   18   41 1   
    37   18   42 1   
    38   19   20 1   
    39   20   21 1   
    40   20   43 1   
    41   20   44 1   
    42   21   22 ar  
    43   21   26 ar  
    44   22   23 ar  
    45   22   45 1   
    46   23   24 ar  
    47   23   46 1   
    48   24   25 ar  
    49   24   47 1   
    50   25   26 ar  
    51   25   48 1   
    52   26   49 1   
@<TRIPOS>SUBSTRUCTURE
     1 DF9         1 TEMP              0 ****  ****    0 ROOT
