@<TRIPOS>MOLECULE
DF9
   49    43     1     0     0
SMALL
bcc


@<TRIPOS>ATOM
      1 N6         -7.4640    3.0850    2.4190 n3        1 DF9     -0.313000
      2 C6         -6.0720    2.8280    2.2270 c2        1 DF9      0.127000
      3 N1         -5.5870    2.4350    3.4180 n2        1 DF9     -0.222000
      4 C2         -4.3050    1.9570    3.5140 c1        1 DF9     -0.026000
      5 N3         -3.5170    1.8800    2.3980 n1        1 DF9     -0.138000
      6 C5         -5.2760    2.7510    1.0950 c1        1 DF9     -0.150000
      7 C4         -4.0050    2.2770    1.1910 c1        1 DF9      0.028000
      8 N7         -5.5070    3.0970   -0.2310 n1        1 DF9     -0.186000
      9 C8         -4.3730    2.8320   -0.9400 c1        1 DF9     -0.066000
     10 C9         -3.4350    2.3240   -0.0700 c1        1 DF9     -0.133000
     11 C10        -2.0350    2.1620   -0.6960 c2        1 DF9     -0.008000
     12 N1'        -1.5590    0.8120   -0.4740 n3        1 DF9     -0.222000
     13 C2'        -1.7220    0.1040   -1.5690 c3        1 DF9     -0.118000
     14 C3'        -0.4950   -0.8800   -1.6130 c3        1 DF9      0.008000
     15 O3'        -0.8900   -2.1280   -1.3300 oh        1 DF9     -0.318000
     16 C1'         0.0120    0.8390   -0.1940 c3        1 DF9     -0.085000
     17 C4'         0.4780   -0.3740   -0.5420 c3        1 DF9     -0.117000
     18 C5'         1.9370   -0.2490   -1.1410 c3        1 DF9     -0.274000
     19 S6'         3.0290   -1.3680   -0.2830 ss        1 DF9      0.075000
     20 C7'         4.5170   -1.5860   -1.2290 c3        1 DF9     -0.229000
     21 C21         5.4750   -2.5120   -0.4700 c2        1 DF9     -0.070000
     22 C26         5.2620   -3.8830   -0.4750 c2        1 DF9     -0.111000
     23 C25         6.1080   -4.7200    0.2410 c1        1 DF9     -0.131000
     24 C24         7.1660   -4.1850    0.9620 c1        1 DF9     -0.127000
     25 C23         7.3780   -2.8140    0.9670 c1        1 DF9     -0.127000
     26 C22         6.5320   -1.9770    0.2500 c1        1 DF9     -0.112000
     27 HN6        -7.7400    3.6210    3.1110 hn        1 DF9      0.192500
     28 HN6A       -8.0800    2.7130    1.8540 hn        1 DF9      0.192500
     29 H2         -3.9550    1.6720    4.3770 ha        1 DF9      0.190000
     30 HN7        -6.2840    3.4430   -0.5680 DU        1 DF9      0.209000
     31 H8         -4.2580    2.9510   -1.9040 DU        1 DF9      0.209000
     32 H10        -1.4160    2.7990   -0.2810 h4        1 DF9      0.085000
     33 H10A       -2.0860    2.3360   -1.6580 h4        1 DF9      0.085000
     34 H2'        -1.7170    0.6880   -2.3550 h1        1 DF9      0.092500
     35 H2'A       -2.5580   -0.3990   -1.5260 h1        1 DF9      0.092500
     36 H3'        -0.0700   -0.8510   -2.4950 h1        1 DF9      0.074000
     37 HO3'       -1.0490   -2.5680   -2.0880 ho        1 DF9      0.200000
     38 H1'         0.1810    1.0050    0.7570 h1        1 DF9      0.107000
     39 H1'A        0.4400    1.5360   -0.7400 h1        1 DF9      0.107000
     40 H4'         0.4770   -0.9730    0.2290 hc        1 DF9      0.139000
     41 H5'         1.9190   -0.4760   -2.0950 h1        1 DF9      0.098000
     42 H5'A        2.2570    0.6680   -1.0300 h1        1 DF9      0.098000
     43 H7'         4.2970   -1.9840   -2.0970 h1        1 DF9      0.103000
     44 H7'A        4.9460   -0.7150   -1.3680 h1        1 DF9      0.103000
     45 H26         4.5170   -4.2610   -0.9830 ha        1 DF9      0.136000
     46 H25         5.9580   -5.6890    0.2380 ha        1 DF9      0.133000
     47 H24         7.7620   -4.7740    1.4670 ha        1 DF9      0.132500
     48 H23         8.1250   -2.4360    1.4760 ha        1 DF9      0.132500
     49 H22         6.6820   -1.0130    0.2540 ha        1 DF9      0.135000
@<TRIPOS>BOND
     1    1    2 1   
     2    1   27 1   
     3    1   28 1   
     4    2    3 1   
     5    2    6 1   
     6    3    4 1   
     7    4   29 1   
     8    5    7 1   
     9    8    9 1   
    10    9   10 1   
    11   11   12 1   
    12   11   32 1   
    13   11   33 1   
    14   12   13 1   
    15   12   16 1   
    16   13   14 1   
    17   13   34 1   
    18   13   35 1   
    19   14   15 1   
    20   14   17 1   
    21   14   36 1   
    22   15   37 1   
    23   16   17 1   
    24   16   38 1   
    25   16   39 1   
    26   17   18 1   
    27   17   40 1   
    28   18   19 1   
    29   18   41 1   
    30   18   42 1   
    31   19   20 1   
    32   20   21 1   
    33   20   43 1   
    34   20   44 1   
    35   21   22 1   
    36   21   26 1   
    37   22   23 1   
    38   22   45 1   
    39   23   46 1   
    40   24   25 1   
    41   24   47 1   
    42   25   48 1   
    43   26   49 1   
@<TRIPOS>SUBSTRUCTURE
     1 DF9         1 TEMP              0 ****  ****    0 ROOT
