@<TRIPOS>MOLECULE
DF9
   49    52     1     0     0
SMALL
bcc


@<TRIPOS>ATOM
      1 N6          7.6390    0.7190    1.1010 nh        1 DF9     -0.915500
      2 C6          6.4350    1.1430    0.5100 ca        1 DF9      0.648200
      3 N1          6.3660    2.2770   -0.2410 nb        1 DF9     -0.748000
      4 C2          5.1340    2.6590   -0.6970 ca        1 DF9      0.636900
      5 N3          3.9390    2.0550   -0.5350 nb        1 DF9     -0.664000
      6 C5          5.2290    0.4170    0.7670 ca        1 DF9     -0.325800
      7 C4          3.9830    0.9170    0.2030 ca        1 DF9      0.466100
      8 N7          4.9640   -0.7660    1.4580 na        1 DF9     -0.163400
      9 C8          3.5860   -0.9890    1.4030 cc        1 DF9     -0.093100
     10 C9          2.9540   -0.0180    0.6250 cd        1 DF9     -0.247000
     11 C10         1.5120    0.0780    0.3040 c3        1 DF9      0.233000
     12 N1'         1.1280   -0.5920   -0.9350 n3        1 DF9     -0.696600
     13 C2'         1.3320   -2.0370   -0.9370 c3        1 DF9      0.118800
     14 C3'        -0.0410   -2.7580   -0.9460 c3        1 DF9      0.119100
     15 O3'        -0.1600   -3.6740   -2.0200 oh        1 DF9     -0.590800
     16 C1'        -0.2710   -0.3470   -1.3010 c3        1 DF9      0.151800
     17 C4'        -1.0910   -1.6490   -1.1630 c3        1 DF9     -0.077700
     18 C5'        -2.0690   -1.6020   -0.0160 c3        1 DF9     -0.013300
     19 S6'        -3.3220   -0.4090   -0.3910 ss        1 DF9     -0.289200
     20 C7'        -4.4660   -0.6920    0.9380 c3        1 DF9      0.039000
     21 C21        -5.6010    0.2420    0.7710 ca        1 DF9     -0.077300
     22 C26        -6.7180   -0.1310    0.0120 ca        1 DF9     -0.111500
     23 C25        -7.7900    0.7460   -0.1340 ca        1 DF9     -0.131000
     24 C24        -7.7590    2.0000    0.4750 ca        1 DF9     -0.123000
     25 C23        -6.6500    2.3770    1.2330 ca        1 DF9     -0.131000
     26 C22        -5.5750    1.5030    1.3820 ca        1 DF9     -0.111500
     27 HN6         8.4400    1.2580    0.8440 hn        1 DF9      0.397300
     28 HN6A        7.7910   -0.2620    0.9970 hn        1 DF9      0.397300
     29 H2          5.1330    3.5950   -1.2950 h5        1 DF9      0.053100
     30 HN7         5.5700   -1.1570    2.1320 hn        1 DF9      0.299700
     31 H8          3.1470   -1.8500    1.9150 h4        1 DF9      0.168000
     32 H10         0.9240   -0.3120    1.1900 h1        1 DF9      0.045700
     33 H10A        1.2560    1.1710    0.1740 h1        1 DF9      0.045700
     34 H2'         1.8920   -2.2900   -1.8800 h1        1 DF9      0.053200
     35 H2'A        1.9460   -2.3770   -0.0610 h1        1 DF9      0.053200
     36 H3'        -0.2080   -3.3060    0.0210 h1        1 DF9      0.034700
     37 HO3'        0.6230   -4.2380   -1.9960 ho        1 DF9      0.401000
     38 H1'        -0.7350    0.4780   -0.6960 h1        1 DF9      0.067700
     39 H1'A       -0.2630   -0.0270   -2.3800 h1        1 DF9      0.067700
     40 H4'        -1.6460   -1.8490   -2.1200 hc        1 DF9      0.099700
     41 H5'        -2.5340   -2.6090    0.1310 h1        1 DF9      0.058700
     42 H5'A       -1.5490   -1.3250    0.9340 h1        1 DF9      0.058700
     43 H7'        -4.8170   -1.7540    0.9130 h1        1 DF9      0.063700
     44 H7'A       -3.9540   -0.5270    1.9190 h1        1 DF9      0.063700
     45 H26        -6.7430   -1.1180   -0.4740 ha        1 DF9      0.135500
     46 H25        -8.6630    0.4480   -0.7340 ha        1 DF9      0.133000
     47 H24        -8.6060    2.6920    0.3580 ha        1 DF9      0.132000
     48 H23        -6.6210    3.3660    1.7130 ha        1 DF9      0.133000
     49 H22        -4.6990    1.8040    1.9770 ha        1 DF9      0.135500
@<TRIPOS>BOND
     1    1    2 1   
     2    1   27 1   
     3    1   28 1   
     4    2    3 ar  
     5    2    6 ar  
     6    3    4 ar  
     7    4    5 ar  
     8    4   29 1   
     9    5    7 ar  
    10    6    7 ar  
    11    6    8 1   
    12    7   10 1   
    13    8    9 1   
    14    8   30 1   
    15    9   10 2   
    16    9   31 1   
    17   10   11 1   
    18   11   12 1   
    19   11   32 1   
    20   11   33 1   
    21   12   13 1   
    22   12   16 1   
    23   13   14 1   
    24   13   34 1   
    25   13   35 1   
    26   14   15 1   
    27   14   17 1   
    28   14   36 1   
    29   15   37 1   
    30   16   17 1   
    31   16   38 1   
    32   16   39 1   
    33   17   18 1   
    34   17   40 1   
    35   18   19 1   
    36   18   41 1   
    37   18   42 1   
    38   19   20 1   
    39   20   21 1   
    40   20   43 1   
    41   20   44 1   
    42   21   22 ar  
    43   21   26 ar  
    44   22   23 ar  
    45   22   45 1   
    46   23   24 ar  
    47   23   46 1   
    48   24   25 ar  
    49   24   47 1   
    50   25   26 ar  
    51   25   48 1   
    52   26   49 1   
@<TRIPOS>SUBSTRUCTURE
     1 DF9         1 TEMP              0 ****  ****    0 ROOT
