@<TRIPOS>MOLECULE
DFA
   27    28     1     0     0
SMALL
bcc


@<TRIPOS>ATOM
      1 C8          2.1430   -0.0940    0.0670 c         1 DFA      0.929600
      2 O11         2.2140   -1.3550    0.0340 o         1 DFA     -0.828800
      3 C5         -1.3480    1.0940   -3.0920 ca        1 DFA     -0.147000
      4 C4         -0.6500    1.3460   -1.9120 ca        1 DFA     -0.126500
      5 C3         -0.0010    0.3080   -1.2300 ca        1 DFA     -0.017300
      6 C2         -0.0570   -0.9890   -1.7620 ca        1 DFA     -0.126500
      7 C1         -0.7560   -1.2380   -2.9400 ca        1 DFA     -0.147000
      8 C6         -1.4070   -0.2000   -3.6070 ca        1 DFA     -0.159000
      9 C10        -0.0870    0.2390    1.2300 ca        1 DFA     -0.017300
     10 C16        -0.7840    1.2400    1.9220 ca        1 DFA     -0.126500
     11 C15        -1.5630    0.9230    3.0350 ca        1 DFA     -0.147000
     12 C14        -1.6550   -0.3960    3.4720 ca        1 DFA     -0.159000
     13 C13        -0.9570   -1.3970    2.7950 ca        1 DFA     -0.147000
     14 C12        -0.1770   -1.0850    1.6840 ca        1 DFA     -0.126500
     15 C11         0.7390    0.5980    0.0370 c3        1 DFA     -0.132100
     16 O1'         3.1370    0.6760    0.1230 o         1 DFA     -0.828800
     17 H2          0.4920   -1.7950   -1.2390 ha        1 DFA      0.151500
     18 H1         -0.7890   -2.2570   -3.3490 ha        1 DFA      0.109000
     19 H6         -1.9580   -0.3990   -4.5360 ha        1 DFA      0.105000
     20 H16        -0.7110    2.2840    1.5870 ha        1 DFA      0.151500
     21 H15        -2.1030    1.7180    3.5680 ha        1 DFA      0.109000
     22 H14        -2.2690   -0.6460    4.3470 ha        1 DFA      0.105000
     23 H13        -1.0170   -2.4380    3.1430 ha        1 DFA      0.109000
     24 H12         0.4080   -1.8620    1.1570 ha        1 DFA      0.151500
     25 H11         0.9500    1.7070    0.0750 hc        1 DFA      0.057700
     26 H5         -1.8510    1.9180   -3.6170 ha        1 DFA      0.109000
     27 H4         -0.6030    2.3710   -1.5150 ha        1 DFA      0.151500
@<TRIPOS>BOND
     1    1    2 1   
     2    1   15 1   
     3    1   16 1   
     4    3    4 ar  
     5    3    8 ar  
     6    3   26 1   
     7    4    5 ar  
     8    4   27 1   
     9    5    6 ar  
    10    5   15 1   
    11    6    7 ar  
    12    6   17 1   
    13    7    8 ar  
    14    7   18 1   
    15    8   19 1   
    16    9   10 ar  
    17    9   14 ar  
    18    9   15 1   
    19   10   11 ar  
    20   10   20 1   
    21   11   12 ar  
    22   11   21 1   
    23   12   13 ar  
    24   12   22 1   
    25   13   14 ar  
    26   13   23 1   
    27   14   24 1   
    28   15   25 1   
@<TRIPOS>SUBSTRUCTURE
     1 DFA         1 TEMP              0 ****  ****    0 ROOT
