@<TRIPOS>MOLECULE
DFA
   27    28     1     0     0
SMALL
bcc


@<TRIPOS>ATOM
      1 C8          0.1280    0.1320   -0.1350 c         1 DFA      0.929600
      2 O11         0.9310    1.0760   -0.3810 o         1 DFA     -0.828800
      3 C5          0.8030   -0.9620    4.5470 ca        1 DFA     -0.147000
      4 C4         -0.0370   -0.8620    3.4390 ca        1 DFA     -0.126500
      5 C3          0.2590    0.0280    2.3970 ca        1 DFA     -0.017300
      6 C2          1.4210    0.8070    2.4830 ca        1 DFA     -0.126500
      7 C1          2.2580    0.7050    3.5910 ca        1 DFA     -0.147000
      8 C6          1.9510   -0.1760    4.6290 ca        1 DFA     -0.159000
      9 C10        -1.5650    1.3060    1.3460 ca        1 DFA     -0.017300
     10 C16        -2.8800    1.1300    1.8000 ca        1 DFA     -0.126500
     11 C15        -3.7390    2.2200    1.9290 ca        1 DFA     -0.147000
     12 C14        -3.2980    3.5010    1.6040 ca        1 DFA     -0.159000
     13 C13        -1.9940    3.6840    1.1410 ca        1 DFA     -0.147000
     14 C12        -1.1330    2.5970    1.0110 ca        1 DFA     -0.126500
     15 C11        -0.6580    0.1240    1.2190 c3        1 DFA     -0.132100
     16 O1'        -0.1000   -0.8320   -0.9120 o         1 DFA     -0.828800
     17 H2          1.6690    1.4770    1.6370 ha        1 DFA      0.151500
     18 H1          3.1680    1.3190    3.6450 ha        1 DFA      0.109000
     19 H6          2.6120   -0.2540    5.5020 ha        1 DFA      0.105000
     20 H16        -3.2370    0.1210    2.0530 ha        1 DFA      0.151500
     21 H15        -4.7670    2.0670    2.2860 ha        1 DFA      0.109000
     22 H14        -3.9740    4.3600    1.7060 ha        1 DFA      0.105000
     23 H13        -1.6450    4.6910    0.8720 ha        1 DFA      0.109000
     24 H12        -0.1080    2.7220    0.6140 ha        1 DFA      0.151500
     25 H11        -1.2940   -0.8080    1.1910 hc        1 DFA      0.057700
     26 H5          0.5600   -1.6640    5.3560 ha        1 DFA      0.109000
     27 H4         -0.9380   -1.4900    3.3790 ha        1 DFA      0.151500
@<TRIPOS>BOND
     1    1    2 1   
     2    1   15 1   
     3    1   16 1   
     4    3    4 ar  
     5    3    8 ar  
     6    3   26 1   
     7    4    5 ar  
     8    4   27 1   
     9    5    6 ar  
    10    5   15 1   
    11    6    7 ar  
    12    6   17 1   
    13    7    8 ar  
    14    7   18 1   
    15    8   19 1   
    16    9   10 ar  
    17    9   14 ar  
    18    9   15 1   
    19   10   11 ar  
    20   10   20 1   
    21   11   12 ar  
    22   11   21 1   
    23   12   13 ar  
    24   12   22 1   
    25   13   14 ar  
    26   13   23 1   
    27   14   24 1   
    28   15   25 1   
@<TRIPOS>SUBSTRUCTURE
     1 DFA         1 TEMP              0 ****  ****    0 ROOT
