@<TRIPOS>MOLECULE
DFA
   27    21     1     0     0
SMALL
bcc


@<TRIPOS>ATOM
      1 C8          0.2600   -0.6110   -2.2550 c1        1 DFA      0.349000
      2 O11        -0.2750   -0.5540   -3.3930 o         1 DFA     -0.563500
      3 C5          0.5860    3.0710   -0.3010 c1        1 DFA     -0.144875
      4 C4          0.5980    1.7160   -0.5940 c1        1 DFA     -0.126500
      5 C3         -0.5840    0.9920   -0.5740 c1        1 DFA     -0.010000
      6 C2         -1.7780    1.6230   -0.2600 c1        1 DFA     -0.144875
      7 C1         -1.7890    2.9780    0.0330 c1        1 DFA     -0.144875
      8 C6         -0.6070    3.7010    0.0130 c1        1 DFA     -0.144875
      9 C10        -0.0230   -1.3230    0.0940 c1        1 DFA     -0.010000
     10 C16        -0.4220   -2.6460    0.2100 c1        1 DFA     -0.126500
     11 C15         0.1660   -3.4660    1.1600 c1        1 DFA     -0.144875
     12 C14         1.1520   -2.9640    1.9950 c1        1 DFA     -0.144875
     13 C13         1.5500   -1.6410    1.8790 c1        1 DFA     -0.144875
     14 C12         0.9630   -0.8200    0.9290 c1        1 DFA     -0.144875
     15 C11        -0.5890   -0.4580   -1.0130 c2        1 DFA     -0.136000
     16 O1'         1.5010   -0.7910   -2.1510 o         1 DFA     -0.563500
     17 H5          1.4130    3.5870   -0.3480 ha        1 DFA      0.118625
     18 H4          1.4410    1.2700   -0.8040 ha        1 DFA      0.151500
     19 H2         -2.6110    1.1150   -0.2550 ha        1 DFA      0.118625
     20 H1         -2.6350    3.4290    0.2180 ha        1 DFA      0.118625
     21 H6         -0.6740    4.6550   -0.1850 ha        1 DFA      0.118625
     22 H16        -1.1160   -3.0000   -0.3780 ha        1 DFA      0.151500
     23 H15        -0.0950   -4.4040    1.2240 ha        1 DFA      0.118625
     24 H14         1.5660   -3.5410    2.6640 ha        1 DFA      0.118625
     25 H13         2.2450   -1.2870    2.4670 ha        1 DFA      0.118625
     26 H12         1.2600    0.1040    0.8320 ha        1 DFA      0.118625
     27 H11        -1.5040   -0.7350   -1.2080 ha        1 DFA      0.097000
@<TRIPOS>BOND
     1    1    2 1   
     2    1   16 1   
     3    3    8 1   
     4    3   17 1   
     5    4    5 1   
     6    4   18 1   
     7    5   15 1   
     8    6    7 1   
     9    6   19 1   
    10    7   20 1   
    11    8   21 1   
    12    9   10 1   
    13    9   15 1   
    14   10   22 1   
    15   11   12 1   
    16   11   23 1   
    17   12   24 1   
    18   13   14 1   
    19   13   25 1   
    20   14   26 1   
    21   15   27 1   
@<TRIPOS>SUBSTRUCTURE
     1 DFA         1 TEMP              0 ****  ****    0 ROOT
