@<TRIPOS>MOLECULE
DFA
   27    28     1     0     0
SMALL
bcc


@<TRIPOS>ATOM
      1 C8          0.1200    0.1090   -0.1290 c         1 DFA      0.929600
      2 O11         0.9180    1.0530   -0.3890 o         1 DFA     -0.828800
      3 C5          0.8220   -0.9310    4.5620 ca        1 DFA     -0.147000
      4 C4         -0.0240   -0.8460    3.4570 ca        1 DFA     -0.126500
      5 C3          0.2630    0.0330    2.4030 ca        1 DFA     -0.017300
      6 C2          1.4230    0.8180    2.4750 ca        1 DFA     -0.126500
      7 C1          2.2660    0.7300    3.5800 ca        1 DFA     -0.147000
      8 C6          1.9670   -0.1400    4.6290 ca        1 DFA     -0.159000
      9 C10        -1.5700    1.2940    1.3470 ca        1 DFA     -0.017300
     10 C16        -2.8820    1.1190    1.8110 ca        1 DFA     -0.126500
     11 C15        -3.7440    2.2070    1.9320 ca        1 DFA     -0.147000
     12 C14        -3.3080    3.4860    1.5900 ca        1 DFA     -0.159000
     13 C13        -2.0080    3.6680    1.1180 ca        1 DFA     -0.147000
     14 C12        -1.1440    2.5830    0.9960 ca        1 DFA     -0.126500
     15 C11        -0.6600    0.1140    1.2300 c3        1 DFA     -0.132100
     16 O1'        -0.1090   -0.8650   -0.8940 o         1 DFA     -0.828800
     17 H2          1.6650    1.4780    1.6210 ha        1 DFA      0.151500
     18 H1          3.1750    1.3470    3.6230 ha        1 DFA      0.109000
     19 H6          2.6330   -0.2060    5.4990 ha        1 DFA      0.105000
     20 H16        -3.2340    0.1120    2.0770 ha        1 DFA      0.151500
     21 H15        -4.7690    2.0550    2.2960 ha        1 DFA      0.109000
     22 H14        -3.9870    4.3440    1.6860 ha        1 DFA      0.105000
     23 H13        -1.6630    4.6730    0.8360 ha        1 DFA      0.109000
     24 H12        -0.1210    2.7060    0.5920 ha        1 DFA      0.151500
     25 H11        -1.2940   -0.8210    1.2150 hc        1 DFA      0.057700
     26 H5          0.5840   -1.6250    5.3800 ha        1 DFA      0.109000
     27 H4         -0.9230   -1.4770    3.4080 ha        1 DFA      0.151500
@<TRIPOS>BOND
     1    1    2 1   
     2    1   15 1   
     3    1   16 1   
     4    3    4 ar  
     5    3    8 ar  
     6    3   26 1   
     7    4    5 ar  
     8    4   27 1   
     9    5    6 ar  
    10    5   15 1   
    11    6    7 ar  
    12    6   17 1   
    13    7    8 ar  
    14    7   18 1   
    15    8   19 1   
    16    9   10 ar  
    17    9   14 ar  
    18    9   15 1   
    19   10   11 ar  
    20   10   20 1   
    21   11   12 ar  
    22   11   21 1   
    23   12   13 ar  
    24   12   22 1   
    25   13   14 ar  
    26   13   23 1   
    27   14   24 1   
    28   15   25 1   
@<TRIPOS>SUBSTRUCTURE
     1 DFA         1 TEMP              0 ****  ****    0 ROOT
