@<TRIPOS>MOLECULE
DFB
   16    16     1     0     0
SMALL
bcc


@<TRIPOS>ATOM
      1 O1         -0.0530   -0.0010    3.2500 oh        1 DFB     -0.599800
      2 C7          0.8100   -0.0010    2.1220 c3        1 DFB      0.176700
      3 C1         -0.0080   -0.0010    0.8730 ca        1 DFB     -0.096300
      4 C2          0.6630   -0.0010   -0.3680 ca        1 DFB      0.085900
      5 F2          2.0150   -0.0020   -0.4200 f         1 DFB     -0.129900
      6 C6         -1.4030    0.0000    0.8980 ca        1 DFB     -0.095000
      7 C5         -2.1350    0.0010   -0.2880 ca        1 DFB     -0.121000
      8 C4         -1.4910    0.0010   -1.5210 ca        1 DFB     -0.143000
      9 C3         -0.0870   -0.0000   -1.5730 ca        1 DFB      0.092900
     10 F3          0.5530   -0.0000   -2.7650 f         1 DFB     -0.127900
     11 HO1         0.5210   -0.0010    4.0250 ho        1 DFB      0.409000
     12 HC71        1.4660    0.9130    2.1410 h1        1 DFB      0.043700
     13 HC72        1.4650   -0.9160    2.1410 h1        1 DFB      0.043700
     14 HC6        -1.9200    0.0010    1.8720 ha        1 DFB      0.165000
     15 HC5        -3.2360    0.0020   -0.2510 ha        1 DFB      0.144000
     16 HC4        -2.0630    0.0010   -2.4610 ha        1 DFB      0.153000
@<TRIPOS>BOND
     1    1    2 1   
     2    1   11 1   
     3    2    3 1   
     4    2   12 1   
     5    2   13 1   
     6    3    4 ar  
     7    3    6 ar  
     8    4    5 1   
     9    4    9 ar  
    10    6    7 ar  
    11    6   14 1   
    12    7    8 ar  
    13    7   15 1   
    14    8    9 ar  
    15    8   16 1   
    16    9   10 1   
@<TRIPOS>SUBSTRUCTURE
     1 DFB         1 TEMP              0 ****  ****    0 ROOT
