@<TRIPOS>MOLECULE
DFB
   16    14     1     0     0
SMALL
bcc


@<TRIPOS>ATOM
      1 O1         -0.8990   -1.1970   -2.3000 oh        1 DFB     -0.316000
      2 C7         -0.7510    0.1380   -1.8680 c3        1 DFB      0.019000
      3 C1         -0.2460    0.1540   -0.4420 c2        1 DFB     -0.122000
      4 C2          1.1160    0.1120   -0.1880 c2        1 DFB      0.055000
      5 F2          1.9870    0.1440   -1.2050 f         1 DFB     -0.098000
      6 C6         -1.1470    0.1550    0.6120 c1        1 DFB     -0.107000
      7 C5         -0.6850    0.1160    1.9180 c1        1 DFB     -0.128500
      8 C4          0.6770    0.0740    2.1710 c1        1 DFB     -0.128500
      9 C3          1.5780    0.0720    1.1180 c1        1 DFB      0.064000
     10 F3          2.8940    0.0300    1.3630 f         1 DFB     -0.090000
     11 HO1        -0.3750   -1.3400   -3.0050 ho        1 DFB      0.208000
     12 HC71       -1.6170    0.5940   -1.9130 h1        1 DFB      0.098000
     13 HC72       -0.1090    0.5990   -2.4470 h1        1 DFB      0.098000
     14 HC6        -2.1060    0.1850    0.4340 ha        1 DFB      0.146000
     15 HC5        -1.3200    0.1170    2.6600 ha        1 DFB      0.150500
     16 HC4         1.0020    0.0460    3.0910 ha        1 DFB      0.150500
@<TRIPOS>BOND
     1    1    2 1   
     2    1   11 1   
     3    2    3 1   
     4    2   12 1   
     5    2   13 1   
     6    3    4 1   
     7    3    6 1   
     8    4    5 1   
     9    4    9 1   
    10    6   14 1   
    11    7    8 1   
    12    7   15 1   
    13    8   16 1   
    14    9   10 1   
@<TRIPOS>SUBSTRUCTURE
     1 DFB         1 TEMP              0 ****  ****    0 ROOT
