@<TRIPOS>MOLECULE
DFC
   32    33     1     0     0
SMALL
bcc


@<TRIPOS>ATOM
      1 OP3        -0.5930   -0.9370   -4.7570 o         1 DFC     -0.929500
      2 P          -0.5840   -0.3750   -3.3710 p5        1 DFC      1.329900
      3 OP1         0.4250    0.7140   -3.0680 o         1 DFC     -0.929500
      4 OP2        -1.9000   -0.1950   -2.6670 o         1 DFC     -0.929500
      5 O5'         0.1440   -1.6430   -2.4120 os        1 DFC     -0.553200
      6 C5'         0.1110   -1.3930   -1.0690 c3        1 DFC      0.224400
      7 C4'         1.5110   -0.9900   -0.5480 c3        1 DFC      0.050100
      8 O4'         1.6620   -1.4370    0.8280 os        1 DFC     -0.441600
      9 C3'         1.7820    0.5280   -0.5770 c3        1 DFC      0.153100
     10 O3'         2.7320    0.8620   -1.5610 oh        1 DFC     -0.668800
     11 C2'         2.3660    0.8540    0.8060 c3        1 DFC     -0.129400
     12 C1'         1.9920   -0.3540    1.6870 c3        1 DFC      0.293500
     13 N1          0.8670   -0.0860    2.6090 n         1 DFC     -0.368000
     14 C2          1.1250    0.2140    3.9910 c         1 DFC      0.823900
     15 O2          2.3120    0.2350    4.3920 o         1 DFC     -0.666500
     16 N3          0.0640    0.4950    4.8690 nc        1 DFC     -0.750100
     17 C4         -1.1940    0.4300    4.3960 cd        1 DFC      0.714500
     18 N4         -2.2730    0.6230    5.2730 nh        1 DFC     -0.897800
     19 C5         -1.4880    0.1150    3.0150 cd        1 DFC     -0.463600
     20 C6         -0.4240   -0.1350    2.1710 cc        1 DFC      0.103600
     21 H5'        -0.1840   -2.3300   -0.5100 h1        1 DFC     -0.003800
     22 H5''       -0.6350   -0.5780   -0.8350 h1        1 DFC     -0.003800
     23 H4'         2.2990   -1.5390   -1.1280 h1        1 DFC      0.074700
     24 H3'         0.8290    1.0980   -0.7640 h1        1 DFC      0.098700
     25 HO3'        2.2300    0.8750   -2.4100 ho        1 DFC      0.500000
     26 H2'         3.4800    0.9280    0.7480 hc        1 DFC      0.053200
     27 H2''        1.9720    1.8190    1.1960 hc        1 DFC      0.053200
     28 H1'         2.8500   -0.7020    2.3340 h2        1 DFC      0.087700
     29 H41        -2.0620    1.0670    6.1380 hn        1 DFC      0.396800
     30 H42        -3.0920    0.9650    4.8250 hn        1 DFC      0.396800
     31 H5         -2.5140    0.0640    2.6390 ha        1 DFC      0.158000
     32 H6         -0.5780   -0.3870    1.0940 h4        1 DFC      0.224000
@<TRIPOS>BOND
     1    1    2 1   
     2    2    3 1   
     3    2    4 1   
     4    2    5 1   
     5    5    6 1   
     6    6    7 1   
     7    6   21 1   
     8    6   22 1   
     9    7    8 1   
    10    7    9 1   
    11    7   23 1   
    12    8   12 1   
    13    9   10 1   
    14    9   11 1   
    15    9   24 1   
    16   10   25 1   
    17   11   12 1   
    18   11   26 1   
    19   11   27 1   
    20   12   13 1   
    21   12   28 1   
    22   13   14 1   
    23   13   20 1   
    24   14   15 2   
    25   14   16 1   
    26   16   17 2   
    27   17   18 1   
    28   17   19 1   
    29   18   29 1   
    30   18   30 1   
    31   19   20 2   
    32   19   31 1   
    33   20   32 1   
@<TRIPOS>SUBSTRUCTURE
     1 DFC         1 TEMP              0 ****  ****    0 ROOT
