@<TRIPOS>MOLECULE
DFC
   32    32     1     0     0
SMALL
bcc


@<TRIPOS>ATOM
      1 OP3        -3.5940   -4.2290    0.6910 o         1 DFC     -0.929500
      2 P          -2.2430   -4.6660    0.1770 p5        1 DFC      1.563500
      3 OP1        -1.3790   -5.1000    1.3380 o         1 DFC     -0.929500
      4 OP2        -2.4180   -5.8210   -0.7790 o         1 DFC     -0.929500
      5 O5'        -1.5490   -3.4610   -0.5730 os        1 DFC     -0.715000
      6 C5'        -1.8860   -2.1480   -0.1890 c3        1 DFC      0.074000
      7 C4'        -1.1830   -1.1610   -1.0970 c3        1 DFC     -0.061000
      8 O4'         0.2810   -0.8160   -0.5110 os        1 DFC     -0.298000
      9 C3'        -1.8330   -0.0490   -1.1280 c3        1 DFC      0.042000
     10 O3'        -2.7500   -0.0240   -2.2950 oh        1 DFC     -0.396000
     11 C2'        -0.7350    1.0570   -1.2780 c3        1 DFC     -0.208000
     12 C1'         0.6070    0.3450   -1.0080 c3        1 DFC      0.145000
     13 N1          1.3870    1.0930   -0.0580 n         1 DFC     -0.261000
     14 C2          1.5610    0.5890    1.3020 c2        1 DFC      0.342000
     15 O2          1.1110   -0.4970    1.6100 o         1 DFC     -0.391000
     16 N3          2.2580    1.3990    2.2990 n2        1 DFC     -0.323000
     17 C4          2.9100    2.5970    1.9100 c1        1 DFC      0.188000
     18 N4          3.5960    3.3780    2.8760 n2        1 DFC     -0.336000
     19 C5          2.8010    3.0730    0.5220 c2        1 DFC     -0.377000
     20 C6          2.0260    2.2950   -0.4570 c2        1 DFC      0.101000
     21 H5'        -2.8550   -2.0250   -0.2620 h1        1 DFC      0.035500
     22 H5''       -1.6050   -1.9970    0.7370 h1        1 DFC      0.035500
     23 H4'        -1.1050   -1.5310   -1.9990 h1        1 DFC      0.114000
     24 H3'        -2.3330    0.0770   -0.2980 h1        1 DFC      0.138000
     25 HO3'       -3.4550    0.4840   -2.1060 ho        1 DFC      0.299000
     26 H2'        -0.7470    1.4250   -2.1840 hc        1 DFC      0.092500
     27 H2''       -0.8790    1.7680   -0.6210 hc        1 DFC      0.092500
     28 H1'         1.1040    0.2300   -1.8420 h2        1 DFC      0.127000
     29 H41         3.6580    3.0850    3.7390 hn        1 DFC      0.192000
     30 H42         3.9920    4.1640    2.6300 hn        1 DFC      0.192000
     31 H5          3.3050    3.8570    0.2340 ha        1 DFC      0.158000
     32 H6          1.9510    2.6070   -1.3790 h4        1 DFC      0.224000
@<TRIPOS>BOND
     1    1    2 1   
     2    2    3 1   
     3    2    4 1   
     4    2    5 1   
     5    5    6 1   
     6    6    7 1   
     7    6   21 1   
     8    6   22 1   
     9    7    8 1   
    10    7    9 1   
    11    7   23 1   
    12    8   12 1   
    13    9   10 1   
    14    9   11 1   
    15    9   24 1   
    16   10   25 1   
    17   11   12 1   
    18   11   26 1   
    19   11   27 1   
    20   12   13 1   
    21   12   28 1   
    22   13   14 1   
    23   13   20 1   
    24   14   15 1   
    25   14   16 1   
    26   16   17 1   
    27   17   19 1   
    28   18   29 1   
    29   18   30 1   
    30   19   20 1   
    31   19   31 1   
    32   20   32 1   
@<TRIPOS>SUBSTRUCTURE
     1 DFC         1 TEMP              0 ****  ****    0 ROOT
