@<TRIPOS>MOLECULE
DFD
   35    34     1     0     0
SMALL
bcc


@<TRIPOS>ATOM
      1 C11         7.4920   -0.4150   -0.0000 c3        1 DFD     -0.093100
      2 C10         6.2520    0.4410   -0.0000 c3        1 DFD     -0.080400
      3 C9          4.9950   -0.4020    0.0000 c3        1 DFD     -0.079400
      4 C8          3.7520    0.4620    0.0000 c3        1 DFD     -0.079400
      5 C7          2.4960   -0.3830    0.0000 c3        1 DFD     -0.079400
      6 C6          1.2530    0.4810    0.0000 c3        1 DFD     -0.079400
      7 C5         -0.0020   -0.3640    0.0000 c3        1 DFD     -0.078400
      8 C4         -1.2450    0.5010   -0.0000 c3        1 DFD     -0.078400
      9 C3         -2.4960   -0.3490    0.0000 c3        1 DFD     -0.085400
     10 C2         -3.7320    0.5310   -0.0000 c3        1 DFD      0.131400
     11 O2         -4.8590   -0.3550    0.0000 os        1 DFD     -0.429900
     12 C1         -6.0850    0.2590   -0.0000 c         1 DFD      0.619900
     13 O1         -7.0290   -0.5250   -0.0000 o         1 DFD     -0.486000
     14 H111        8.4070    0.2260   -0.0000 hc        1 DFD      0.032700
     15 H112        7.5200   -1.0690    0.9050 hc        1 DFD      0.032700
     16 H113        7.5200   -1.0690   -0.9050 hc        1 DFD      0.032700
     17 H101        6.2550    1.1080    0.9020 hc        1 DFD      0.038700
     18 H102        6.2550    1.1080   -0.9030 hc        1 DFD      0.038700
     19 H91         4.9900   -1.0690   -0.9020 hc        1 DFD      0.039700
     20 H92         4.9900   -1.0680    0.9030 hc        1 DFD      0.039700
     21 H81         3.7580    1.1280    0.9030 hc        1 DFD      0.039700
     22 H82         3.7570    1.1280   -0.9030 hc        1 DFD      0.039700
     23 H71         2.4910   -1.0490   -0.9020 hc        1 DFD      0.040700
     24 H72         2.4910   -1.0490    0.9030 hc        1 DFD      0.040700
     25 H61         1.2590    1.1480    0.9020 hc        1 DFD      0.039700
     26 H62         1.2590    1.1470   -0.9030 hc        1 DFD      0.039700
     27 H51        -0.0080   -1.0310   -0.9020 hc        1 DFD      0.043700
     28 H52        -0.0080   -1.0300    0.9030 hc        1 DFD      0.043700
     29 H41        -1.2390    1.1670    0.9030 hc        1 DFD      0.040700
     30 H42        -1.2390    1.1660   -0.9040 hc        1 DFD      0.040700
     31 H31        -2.5150   -1.0150   -0.9020 hc        1 DFD      0.062700
     32 H32        -2.5150   -1.0150    0.9030 hc        1 DFD      0.062700
     33 H21        -3.7690    1.1780    0.9150 h1        1 DFD      0.035700
     34 H22        -3.7690    1.1770   -0.9160 h1        1 DFD      0.035700
     35 H1         -6.1230    1.3630   -0.0010 h5        1 DFD      0.037200
@<TRIPOS>BOND
     1    1    2 1   
     2    1   14 1   
     3    1   15 1   
     4    1   16 1   
     5    2    3 1   
     6    2   17 1   
     7    2   18 1   
     8    3    4 1   
     9    3   19 1   
    10    3   20 1   
    11    4    5 1   
    12    4   21 1   
    13    4   22 1   
    14    5    6 1   
    15    5   23 1   
    16    5   24 1   
    17    6    7 1   
    18    6   25 1   
    19    6   26 1   
    20    7    8 1   
    21    7   27 1   
    22    7   28 1   
    23    8    9 1   
    24    8   29 1   
    25    8   30 1   
    26    9   10 1   
    27    9   31 1   
    28    9   32 1   
    29   10   11 1   
    30   10   33 1   
    31   10   34 1   
    32   11   12 1   
    33   12   13 2   
    34   12   35 1   
@<TRIPOS>SUBSTRUCTURE
     1 DFD         1 TEMP              0 ****  ****    0 ROOT
