@<TRIPOS>MOLECULE
DFD
   35    34     1     0     0
SMALL
bcc


@<TRIPOS>ATOM
      1 C11        -5.4280   -0.0140   -3.1860 c3        1 DFD     -0.093100
      2 C10        -3.9180    0.0840   -3.1970 c3        1 DFD     -0.080400
      3 C9         -3.3950   -0.0270   -1.7820 c3        1 DFD     -0.079400
      4 C8         -1.8840    0.0300   -1.7960 c3        1 DFD     -0.079400
      5 C7         -1.3640    0.0180   -0.3750 c3        1 DFD     -0.079400
      6 C6          0.1480    0.0410   -0.3910 c3        1 DFD     -0.079400
      7 C5          0.6680   -0.0270    1.0280 c3        1 DFD     -0.078400
      8 C4          2.1800    0.0110    1.0130 c3        1 DFD     -0.078400
      9 C3          2.6990   -0.0040    2.4350 c3        1 DFD     -0.085400
     10 C2          4.2110   -0.0580    2.4190 c3        1 DFD      0.131400
     11 O2          4.7040    0.2120    3.7110 os        1 DFD     -0.429900
     12 C1          6.0820   -0.0170    3.8530 c         1 DFD      0.619900
     13 O1          6.6250    0.1840    4.9230 o         1 DFD     -0.486000
     14 H111       -5.7000   -0.8150   -2.6920 hc        1 DFD      0.032700
     15 H112       -5.8030    0.7810   -2.7520 hc        1 DFD      0.032700
     16 H113       -5.7580   -0.0700   -4.1070 hc        1 DFD      0.032700
     17 H101       -3.6500    0.9440   -3.5770 hc        1 DFD      0.038700
     18 H102       -3.5480   -0.6420   -3.7390 hc        1 DFD      0.038700
     19 H91        -3.6860   -0.8760   -1.3920 hc        1 DFD      0.039700
     20 H92        -3.7440    0.7140   -1.2460 hc        1 DFD      0.039700
     21 H81        -1.5930    0.8510   -2.2430 hc        1 DFD      0.039700
     22 H82        -1.5330   -0.7450   -2.2790 hc        1 DFD      0.039700
     23 H71        -1.6980    0.8040    0.1010 hc        1 DFD      0.040700
     24 H72        -1.6730   -0.7930    0.0770 hc        1 DFD      0.040700
     25 H61         0.4570    0.8690   -0.8120 hc        1 DFD      0.039700
     26 H62         0.4810   -0.7260   -0.8980 hc        1 DFD      0.039700
     27 H51         0.3670   -0.8590    1.4460 hc        1 DFD      0.043700
     28 H52         0.3280    0.7350    1.5370 hc        1 DFD      0.043700
     29 H41         2.5220   -0.7700    0.5340 hc        1 DFD      0.040700
     30 H42         2.4820    0.8260    0.5650 hc        1 DFD      0.040700
     31 H31         2.4070    0.8070    2.8970 hc        1 DFD      0.062700
     32 H32         2.3490   -0.7890    2.9010 hc        1 DFD      0.062700
     33 H21         4.5030   -0.9500    2.1380 h1        1 DFD      0.035700
     34 H22         4.5550    0.6110    1.7920 h1        1 DFD      0.035700
     35 H1          6.6060   -0.3400    3.0930 h5        1 DFD      0.037200
@<TRIPOS>BOND
     1    1    2 1   
     2    1   14 1   
     3    1   15 1   
     4    1   16 1   
     5    2    3 1   
     6    2   17 1   
     7    2   18 1   
     8    3    4 1   
     9    3   19 1   
    10    3   20 1   
    11    4    5 1   
    12    4   21 1   
    13    4   22 1   
    14    5    6 1   
    15    5   23 1   
    16    5   24 1   
    17    6    7 1   
    18    6   25 1   
    19    6   26 1   
    20    7    8 1   
    21    7   27 1   
    22    7   28 1   
    23    8    9 1   
    24    8   29 1   
    25    8   30 1   
    26    9   10 1   
    27    9   31 1   
    28    9   32 1   
    29   10   11 1   
    30   10   33 1   
    31   10   34 1   
    32   11   12 1   
    33   12   13 2   
    34   12   35 1   
@<TRIPOS>SUBSTRUCTURE
     1 DFD         1 TEMP              0 ****  ****    0 ROOT
