@<TRIPOS>MOLECULE
DFE
   15    14     1     0     0
SMALL
bcc


@<TRIPOS>ATOM
      1 CAA         2.8360    0.0810    1.2460 c3        1 DFE     -0.107100
      2 CAI         1.9770   -0.0010   -0.0230 c3        1 DFE      0.597400
      3 FAB         2.1640    1.0240   -0.9130 f         1 DFE     -0.246300
      4 FAC         2.1640   -1.1320   -0.7740 f         1 DFE     -0.246300
      5 OAH         0.6210    0.0240    0.3800 os        1 DFE     -0.449600
      6 CAG        -0.3480   -0.0430   -0.6570 c3        1 DFE      0.094400
      7 CAJ        -1.7310    0.0040    0.0660 c3        1 DFE      0.637900
      8 FAE        -1.9470    1.1430    0.7940 f         1 DFE     -0.230300
      9 FAF        -2.7740   -0.0530   -0.8240 f         1 DFE     -0.230300
     10 FAD        -1.9470   -1.0310    0.9350 f         1 DFE     -0.230300
     11 HAA1        2.5990    1.0290    1.7820 hc        1 DFE      0.080033
     12 HAA2        2.5990   -0.7910    1.9000 hc        1 DFE      0.080033
     13 HAA3        3.9110    0.0620    0.9530 hc        1 DFE      0.080033
     14 HAG1       -0.2590    0.8400   -1.3390 h1        1 DFE      0.085700
     15 HAG2       -0.2590   -1.0060   -1.2200 h1        1 DFE      0.085700
@<TRIPOS>BOND
     1    1    2 1   
     2    1   11 1   
     3    1   12 1   
     4    1   13 1   
     5    2    3 1   
     6    2    4 1   
     7    2    5 1   
     8    5    6 1   
     9    6    7 1   
    10    6   14 1   
    11    6   15 1   
    12    7    8 1   
    13    7    9 1   
    14    7   10 1   
@<TRIPOS>SUBSTRUCTURE
     1 DFE         1 TEMP              0 ****  ****    0 ROOT
