@<TRIPOS>MOLECULE
DFE
   15    14     1     0     0
SMALL
bcc


@<TRIPOS>ATOM
      1 CAA         0.0070    0.0990   -0.0700 c3        1 DFE     -0.107100
      2 CAI         1.5300    0.0670    0.1190 c3        1 DFE      0.590400
      3 FAB         1.9940    0.7460    1.2120 f         1 DFE     -0.242800
      4 FAC         2.0720   -1.1850    0.2530 f         1 DFE     -0.242800
      5 OAH         2.1140    0.6430   -1.0380 os        1 DFE     -0.441600
      6 CAG         3.5190    0.7810   -1.0650 c3        1 DFE      0.104400
      7 CAJ         3.8740    2.3050   -1.0650 c3        1 DFE      0.606900
      8 FAE         3.4140    2.9970    0.0220 f         1 DFE     -0.233300
      9 FAF         5.2310    2.5180   -1.0750 f         1 DFE     -0.233300
     10 FAD         3.4030    2.9890   -2.1540 f         1 DFE     -0.233300
     11 HAA1       -0.2540   -0.4540   -1.0020 hc        1 DFE      0.080033
     12 HAA2       -0.3240    1.1590   -0.1540 hc        1 DFE      0.080033
     13 HAA3       -0.4720   -0.3850    0.8120 hc        1 DFE      0.080033
     14 HAG1        4.0230    0.2920   -0.1950 h1        1 DFE      0.096700
     15 HAG2        3.8600    0.3420   -2.0410 h1        1 DFE      0.096700
@<TRIPOS>BOND
     1    1    2 1   
     2    1   11 1   
     3    1   12 1   
     4    1   13 1   
     5    2    3 1   
     6    2    4 1   
     7    2    5 1   
     8    5    6 1   
     9    6    7 1   
    10    6   14 1   
    11    6   15 1   
    12    7    8 1   
    13    7    9 1   
    14    7   10 1   
@<TRIPOS>SUBSTRUCTURE
     1 DFE         1 TEMP              0 ****  ****    0 ROOT
