@<TRIPOS>MOLECULE
DFE
   15    14     1     0     0
SMALL
bcc


@<TRIPOS>ATOM
      1 CAA        -0.0160    0.0810   -0.0470 c3        1 DFE     -0.107100
      2 CAI         1.5040   -0.1030    0.0590 c3        1 DFE      0.597400
      3 FAB         1.9900   -0.1600    1.3390 f         1 DFE     -0.246300
      4 FAC         1.9910   -1.2390   -0.5320 f         1 DFE     -0.246300
      5 OAH         2.1110    1.0050   -0.5790 os        1 DFE     -0.449600
      6 CAG         3.5310    1.0270   -0.5920 c3        1 DFE      0.094400
      7 CAJ         3.9170    2.3370   -1.3470 c3        1 DFE      0.637900
      8 FAE         3.4670    3.4840   -0.7510 f         1 DFE     -0.230300
      9 FAF         5.2780    2.4930   -1.4370 f         1 DFE     -0.230300
     10 FAD         3.4670    2.3960   -2.6380 f         1 DFE     -0.230300
     11 HAA1       -0.3010    0.1230   -1.1230 hc        1 DFE      0.080033
     12 HAA2       -0.3020    1.0340    0.4560 hc        1 DFE      0.080033
     13 HAA3       -0.5170   -0.7820    0.4510 hc        1 DFE      0.080033
     14 HAG1        3.9350    1.0710    0.4520 h1        1 DFE      0.085700
     15 HAG2        3.9350    0.1460   -1.1510 h1        1 DFE      0.085700
@<TRIPOS>BOND
     1    1    2 1   
     2    1   11 1   
     3    1   12 1   
     4    1   13 1   
     5    2    3 1   
     6    2    4 1   
     7    2    5 1   
     8    5    6 1   
     9    6    7 1   
    10    6   14 1   
    11    6   15 1   
    12    7    8 1   
    13    7    9 1   
    14    7   10 1   
@<TRIPOS>SUBSTRUCTURE
     1 DFE         1 TEMP              0 ****  ****    0 ROOT
