@<TRIPOS>MOLECULE
DFE
   15    14     1     0     0
SMALL
bcc


@<TRIPOS>ATOM
      1 CAA        -2.1850    0.9450    0.5450 c3        1 DFE     -0.107100
      2 CAI        -0.6720    0.9450    0.5450 c3        1 DFE      0.590400
      3 FAB        -0.2260    0.9450    1.8080 f         1 DFE     -0.242800
      4 FAC        -0.2260    2.0380   -0.0860 f         1 DFE     -0.242800
      5 OAH        -0.2040   -0.2020   -0.1170 os        1 DFE     -0.441600
      6 CAG         1.2010   -0.2980   -0.1690 c3        1 DFE      0.104400
      7 CAJ         1.5930   -1.5610   -0.9030 c3        1 DFE      0.606900
      8 FAE         1.0950   -2.6240   -0.2600 f         1 DFE     -0.233300
      9 FAF         2.9290   -1.6530   -0.9500 f         1 DFE     -0.233300
     10 FAD         1.1050   -1.5230   -2.1490 f         1 DFE     -0.233300
     11 HAA1       -2.5100    1.7420    1.0050 hc        1 DFE      0.080033
     12 HAA2       -2.5100    0.1480    1.0060 hc        1 DFE      0.080033
     13 HAA3       -2.5100    0.9440   -0.3750 hc        1 DFE      0.080033
     14 HAG1        1.5620    0.4780   -0.6380 h1        1 DFE      0.096700
     15 HAG2        1.5590   -0.3250    0.7390 h1        1 DFE      0.096700
@<TRIPOS>BOND
     1    1    2 1   
     2    1   11 1   
     3    1   12 1   
     4    1   13 1   
     5    2    3 1   
     6    2    4 1   
     7    2    5 1   
     8    5    6 1   
     9    6    7 1   
    10    6   14 1   
    11    6   15 1   
    12    7    8 1   
    13    7    9 1   
    14    7   10 1   
@<TRIPOS>SUBSTRUCTURE
     1 DFE         1 TEMP              0 ****  ****    0 ROOT
