@<TRIPOS>MOLECULE
DFG
   35    37     1     0     0
SMALL
bcc


@<TRIPOS>ATOM
      1 OP3        -0.0230   -0.4990    6.0850 o         1 DFG     -0.930167
      2 P          -0.0680   -0.9580    4.6620 p5        1 DFG      1.331900
      3 OP1         1.2460   -1.3830    4.0350 o         1 DFG     -0.930167
      4 OP2        -1.2510   -1.7600    4.2040 o         1 DFG     -0.930167
      5 O5'        -0.2900    0.5230    3.7590 os        1 DFG     -0.553200
      6 C5'        -0.3900    0.3330    2.4100 c3        1 DFG      0.229400
      7 C4'         0.9490    0.6750    1.7130 c3        1 DFG      0.053100
      8 O4'         0.6930    1.3540    0.4530 os        1 DFG     -0.433600
      9 C3'         1.8290   -0.5550    1.4160 c3        1 DFG      0.158100
     10 O3'         3.0360   -0.5070    2.1420 oh        1 DFG     -0.673800
     11 C2'         2.1590   -0.4690   -0.0820 c3        1 DFG     -0.129400
     12 C1'         1.2330    0.6330   -0.6370 c3        1 DFG      0.251800
     13 N9          0.1400    0.1250   -1.4730 na        1 DFG     -0.181900
     14 C8         -1.1210   -0.3470   -1.0550 cc        1 DFG      0.452400
     15 N7         -1.9320   -0.6860   -2.0830 nd        1 DFG     -0.631000
     16 C5         -1.1860   -0.4230   -3.2300 cd        1 DFG      0.196800
     17 C6         -1.5120   -0.5910   -4.6290 c         1 DFG      0.645000
     18 O6         -2.5620   -1.0160   -5.1430 o         1 DFG     -0.642500
     19 N1         -0.4780   -0.1970   -5.5180 n         1 DFG     -0.498400
     20 C2          0.7690    0.2810   -5.0650 cd        1 DFG      0.595800
     21 N2          1.7440    0.5540   -6.0910 nh        1 DFG     -0.866800
     22 N3          1.0970    0.4630   -3.7770 nc        1 DFG     -0.623100
     23 C4          0.1170    0.0920   -2.8670 cc        1 DFG      0.050800
     24 H5'        -1.1690    1.0330    1.9820 h1        1 DFG     -0.004300
     25 H5''       -0.6850   -0.7290    2.1710 h1        1 DFG     -0.004300
     26 H4'         1.5130    1.4220    2.3350 h1        1 DFG      0.082700
     27 H3'         1.2810   -1.5060    1.6650 h1        1 DFG      0.105700
     28 HO3'        2.7930   -0.7760    3.0600 ho        1 DFG      0.502000
     29 H2'         3.2220   -0.1550   -0.2290 hc        1 DFG      0.054200
     30 H2''        2.0110   -1.4540   -0.5810 hc        1 DFG      0.054200
     31 H1'         1.7940    1.3790   -1.2740 h2        1 DFG      0.066700
     32 H8         -1.3660   -0.4070    0.0230 h5        1 DFG      0.118100
     33 H1         -0.6200   -0.3580   -6.4890 hn        1 DFG      0.322500
     34 H21         2.6520    0.7100   -5.6940 hn        1 DFG      0.382300
     35 H22         1.4640    1.3450   -6.6370 hn        1 DFG      0.382300
@<TRIPOS>BOND
     1    1    2 1   
     2    2    3 1   
     3    2    4 1   
     4    2    5 1   
     5    5    6 1   
     6    6    7 1   
     7    6   24 1   
     8    6   25 1   
     9    7    8 1   
    10    7    9 1   
    11    7   26 1   
    12    8   12 1   
    13    9   10 1   
    14    9   11 1   
    15    9   27 1   
    16   10   28 1   
    17   11   12 1   
    18   11   29 1   
    19   11   30 1   
    20   12   13 1   
    21   12   31 1   
    22   13   14 1   
    23   13   23 1   
    24   14   15 2   
    25   14   32 1   
    26   15   16 1   
    27   16   17 1   
    28   16   23 2   
    29   17   18 2   
    30   17   19 1   
    31   19   20 1   
    32   19   33 1   
    33   20   21 1   
    34   20   22 2   
    35   21   34 1   
    36   21   35 1   
    37   22   23 1   
@<TRIPOS>SUBSTRUCTURE
     1 DFG         1 TEMP              0 ****  ****    0 ROOT
