@<TRIPOS>MOLECULE
DFG
   35    34     1     0     0
SMALL
bcc


@<TRIPOS>ATOM
      1 OP3        -3.2760   -5.4080   -0.4120 o         1 DFG     -0.922833
      2 P          -1.7890   -5.6750   -0.4860 p5        1 DFG      1.558500
      3 OP1        -1.2780   -6.0630    0.8840 o         1 DFG     -0.922833
      4 OP2        -1.5270   -6.8010   -1.4600 o         1 DFG     -0.922833
      5 O5'        -1.0330   -4.3520   -0.9830 os        1 DFG     -0.738000
      6 C5'        -1.2280   -3.1450   -0.2540 c3        1 DFG      0.051000
      7 C4'        -0.3060   -2.0630   -0.8060 c3        1 DFG     -0.047000
      8 O4'        -0.0690   -0.9210    0.3040 os        1 DFG     -0.294000
      9 C3'        -0.8610   -1.4830   -1.8110 c3        1 DFG      0.013000
     10 O3'        -0.4090   -2.1070   -3.0800 oh        1 DFG     -0.393000
     11 C2'        -0.3770    0.0070   -1.7370 c3        1 DFG     -0.197000
     12 C1'         0.2710    0.1590   -0.3520 c3        1 DFG      0.162000
     13 N9         -0.2400    1.3270    0.3120 n3        1 DFG     -0.146000
     14 C8         -1.5110    1.7970    0.3790 c1        1 DFG     -0.018000
     15 N7         -1.4770    3.0180    0.9750 n2        1 DFG     -0.113000
     16 C5         -0.1880    3.3020    1.2750 c1        1 DFG     -0.210000
     17 C6          0.4620    4.5170    1.8850 c1        1 DFG      0.390000
     18 O6         -0.2050    5.5020    2.1320 o         1 DFG     -0.372000
     19 N1          1.8510    4.5490    2.0680 n3        1 DFG     -0.336000
     20 C2          2.6460    3.4330    1.6780 c2        1 DFG      0.131000
     21 N2          4.0660    3.4510    1.8950 n3        1 DFG     -0.303000
     22 N3          2.0230    2.2720    1.0960 n1        1 DFG     -0.194000
     23 C4          0.5800    2.2550    0.8650 c1        1 DFG     -0.018000
     24 H5'        -2.1580   -2.8570   -0.3420 h1        1 DFG      0.055000
     25 H5''       -1.0220   -3.2990    0.6940 h1        1 DFG      0.055000
     26 H4'         0.5490   -2.4540   -1.0730 h1        1 DFG      0.083000
     27 H3'        -1.8330   -1.5280   -1.7360 h1        1 DFG      0.196000
     28 HO3'       -0.9990   -1.9320   -3.7230 ho        1 DFG      0.284000
     29 H2'         0.2790    0.1850   -2.4390 hc        1 DFG      0.090500
     30 H2''       -1.1420    0.6170   -1.8230 hc        1 DFG      0.090500
     31 H1'         1.2430    0.2130   -0.4360 h2        1 DFG      0.104000
     32 H8         -2.3160    1.3160    0.1030 DU        1 DFG      0.311000
     33 H1          2.2350    5.2520    2.4930 hn        1 DFG      0.233000
     34 H21         4.5830    2.7410    1.6200 hn        1 DFG      0.171000
     35 H22         4.4580    4.1750    2.2960 hn        1 DFG      0.171000
@<TRIPOS>BOND
     1    1    2 1   
     2    2    3 1   
     3    2    4 1   
     4    2    5 1   
     5    5    6 1   
     6    6    7 1   
     7    6   24 1   
     8    6   25 1   
     9    7    8 1   
    10    7    9 1   
    11    7   26 1   
    12    8   12 1   
    13    9   10 1   
    14    9   11 1   
    15    9   27 1   
    16   10   28 1   
    17   11   12 1   
    18   11   29 1   
    19   11   30 1   
    20   12   13 1   
    21   12   31 1   
    22   13   14 1   
    23   13   23 1   
    24   14   15 1   
    25   15   16 1   
    26   16   23 1   
    27   17   18 1   
    28   17   19 1   
    29   19   20 1   
    30   19   33 1   
    31   20   21 1   
    32   20   22 1   
    33   21   34 1   
    34   21   35 1   
@<TRIPOS>SUBSTRUCTURE
     1 DFG         1 TEMP              0 ****  ****    0 ROOT
