@<TRIPOS>MOLECULE
DFH
   29    30     1     0     0
SMALL
bcc


@<TRIPOS>ATOM
      1 C1          0.0050    0.4440   -0.0220 ca        1 DFH     -0.113500
      2 C2          1.3990    0.4610   -0.0120 ca        1 DFH     -0.133750
      3 C3          2.0980    0.0790    1.1320 ca        1 DFH     -0.125500
      4 C4          1.3970   -0.3230    2.2690 ca        1 DFH     -0.133750
      5 C5          0.0040   -0.3410    2.2620 ca        1 DFH     -0.113500
      6 C6         -0.7040    0.0440    1.1160 ca        1 DFH     -0.096800
      7 C7         -2.2170    0.0090    1.1370 c3        1 DFH      0.249400
      8 C8         -2.7210   -1.3680    0.7700 ca        1 DFH     -0.096800
      9 C9         -2.2930   -1.9600   -0.4260 ca        1 DFH     -0.113500
     10 C10        -2.7630   -3.2190   -0.7930 ca        1 DFH     -0.133750
     11 C11        -3.6620   -3.8980    0.0300 ca        1 DFH     -0.125500
     12 O15        -2.6820    0.2890    2.4650 oh        1 DFH     -0.598800
     13 C14        -2.8220    1.0500    0.1910 c3        1 DFH     -0.119100
     14 C13        -3.6200   -2.0530    1.5930 ca        1 DFH     -0.113500
     15 C12        -4.0870   -3.3140    1.2220 ca        1 DFH     -0.133750
     16 H1         -0.5320    0.7490   -0.9330 ha        1 DFH      0.141000
     17 H2          1.9480    0.7760   -0.9120 ha        1 DFH      0.131250
     18 H3          3.1970    0.0920    1.1370 ha        1 DFH      0.131000
     19 H4          1.9430   -0.6290    3.1740 ha        1 DFH      0.131250
     20 H5         -0.5530   -0.6620    3.1560 ha        1 DFH      0.141000
     21 H6         -1.5760   -1.4290   -1.0710 ha        1 DFH      0.141000
     22 H7         -2.4220   -3.6780   -1.7320 ha        1 DFH      0.131250
     23 H8         -4.0310   -4.8930   -0.2600 ha        1 DFH      0.131000
     24 H9         -2.3310    1.1560    2.6990 ho        1 DFH      0.406000
     25 H10        -3.9070    1.1710    0.4250 hc        1 DFH      0.048367
     26 H11        -2.7190    0.7210   -0.8690 hc        1 DFH      0.048367
     27 H12        -2.3120    2.0340    0.3220 hc        1 DFH      0.048367
     28 H13        -3.9580   -1.5940    2.5360 ha        1 DFH      0.141000
     29 H14        -4.7940   -3.8470    1.8750 ha        1 DFH      0.131250
@<TRIPOS>BOND
     1    1    2 ar  
     2    1    6 ar  
     3    1   16 1   
     4    2    3 ar  
     5    2   17 1   
     6    3    4 ar  
     7    3   18 1   
     8    4    5 ar  
     9    4   19 1   
    10    5    6 ar  
    11    5   20 1   
    12    6    7 1   
    13    7    8 1   
    14    7   12 1   
    15    7   13 1   
    16    8    9 ar  
    17    8   14 ar  
    18    9   10 ar  
    19    9   21 1   
    20   10   11 ar  
    21   10   22 1   
    22   11   15 ar  
    23   11   23 1   
    24   12   24 1   
    25   13   25 1   
    26   13   26 1   
    27   13   27 1   
    28   14   15 ar  
    29   14   28 1   
    30   15   29 1   
@<TRIPOS>SUBSTRUCTURE
     1 DFH         1 TEMP              0 ****  ****    0 ROOT
