@<TRIPOS>MOLECULE
DFH
   29    30     1     0     0
SMALL
bcc


@<TRIPOS>ATOM
      1 C1         -2.1150    0.3770   -1.2430 ca        1 DFH     -0.118250
      2 C2         -3.2660    1.0540   -0.8340 ca        1 DFH     -0.131000
      3 C3         -3.5650    1.1780    0.5210 ca        1 DFH     -0.126000
      4 C4         -2.7060    0.6250    1.4720 ca        1 DFH     -0.131000
      5 C5         -1.5570   -0.0480    1.0650 ca        1 DFH     -0.118250
      6 C6         -1.2500   -0.1800   -0.2970 ca        1 DFH     -0.112800
      7 C7         -0.0020   -0.9410   -0.6930 c3        1 DFH      0.248400
      8 C8          1.2210   -0.2870   -0.0840 ca        1 DFH     -0.112800
      9 C9          1.3900    1.1000   -0.1730 ca        1 DFH     -0.118250
     10 C10         2.5270    1.7050    0.3580 ca        1 DFH     -0.131000
     11 C11         3.5060    0.9310    0.9810 ca        1 DFH     -0.126000
     12 O15        -0.1170   -2.3000   -0.2620 oh        1 DFH     -0.591800
     13 C14         0.1930   -1.0380   -2.2070 c3        1 DFH     -0.081100
     14 C13         2.2090   -1.0600    0.5340 ca        1 DFH     -0.118250
     15 C12         3.3450   -0.4520    1.0670 ca        1 DFH     -0.131000
     16 H1         -1.9040    0.2880   -2.3190 ha        1 DFH      0.137500
     17 H2         -3.9390    1.4870   -1.5880 ha        1 DFH      0.132500
     18 H3         -4.4730    1.7090    0.8410 ha        1 DFH      0.132000
     19 H4         -2.9340    0.7220    2.5430 ha        1 DFH      0.132500
     20 H5         -0.8750   -0.4680    1.8200 ha        1 DFH      0.137500
     21 H6          0.6160    1.7120   -0.6620 ha        1 DFH      0.137500
     22 H7          2.6510    2.7960    0.2850 ha        1 DFH      0.132500
     23 H8          4.4030    1.4090    1.4010 ha        1 DFH      0.132000
     24 H9         -0.3180   -2.2870    0.6820 ho        1 DFH      0.403000
     25 H10         0.3170   -0.0170   -2.6370 hc        1 DFH      0.050367
     26 H11         1.1080   -1.6410   -2.4210 hc        1 DFH      0.050367
     27 H12        -0.6830   -1.5470   -2.6730 hc        1 DFH      0.050367
     28 H13         2.0910   -2.1540    0.5890 ha        1 DFH      0.137500
     29 H14         4.1170   -1.0660    1.5530 ha        1 DFH      0.132500
@<TRIPOS>BOND
     1    1    2 ar  
     2    1    6 ar  
     3    1   16 1   
     4    2    3 ar  
     5    2   17 1   
     6    3    4 ar  
     7    3   18 1   
     8    4    5 ar  
     9    4   19 1   
    10    5    6 ar  
    11    5   20 1   
    12    6    7 1   
    13    7    8 1   
    14    7   12 1   
    15    7   13 1   
    16    8    9 ar  
    17    8   14 ar  
    18    9   10 ar  
    19    9   21 1   
    20   10   11 ar  
    21   10   22 1   
    22   11   15 ar  
    23   11   23 1   
    24   12   24 1   
    25   13   25 1   
    26   13   26 1   
    27   13   27 1   
    28   14   15 ar  
    29   14   28 1   
    30   15   29 1   
@<TRIPOS>SUBSTRUCTURE
     1 DFH         1 TEMP              0 ****  ****    0 ROOT
