@<TRIPOS>MOLECULE
DFH
   29    24     1     0     0
SMALL
bcc


@<TRIPOS>ATOM
      1 C1          1.6050    1.0730   -0.5630 c1        1 DFH     -0.121000
      2 C2          3.0060    1.1130   -0.5340 c1        1 DFH     -0.126833
      3 C3          3.6880    0.7780    0.6310 c1        1 DFH     -0.126833
      4 C4          2.9830    0.4040    1.7620 c1        1 DFH     -0.126833
      5 C5          1.5780    0.3640    1.7330 c1        1 DFH     -0.126833
      6 C6          0.8990    0.6990    0.5710 c1        1 DFH     -0.110000
      7 C7         -0.6550    0.7260    0.5640 c2        1 DFH      0.163000
      8 C8         -1.1860   -0.5160   -0.1710 c2        1 DFH     -0.069000
      9 C9         -1.3990   -1.7120    0.5320 c2        1 DFH     -0.100000
     10 C10        -1.8970   -2.8210   -0.1270 c1        1 DFH     -0.136000
     11 C11        -2.1870   -2.7500   -1.4840 c1        1 DFH     -0.126833
     12 O15        -1.1440    0.7270    1.9310 oh        1 DFH     -0.326000
     13 C14        -1.1390    1.9740   -0.1460 c3        1 DFH     -0.237000
     14 C13        -1.4760   -0.4470   -1.5250 c1        1 DFH     -0.122000
     15 C12        -1.9740   -1.5560   -2.1840 c1        1 DFH     -0.126833
     16 H1          1.1260    1.3090   -1.3800 ha        1 DFH      0.132000
     17 H2          3.5070    1.3790   -1.3380 ha        1 DFH      0.134000
     18 H3          4.6580    0.8060    0.6500 ha        1 DFH      0.134000
     19 H4          3.4610    0.1690    2.5780 ha        1 DFH      0.134000
     20 H5          1.0740    0.0970    2.5400 ha        1 DFH      0.134000
     21 H6         -1.1920   -1.7630    1.4960 ha        1 DFH      0.152000
     22 H7         -2.0450   -3.6540    0.3610 ha        1 DFH      0.131000
     23 H8         -2.5400   -3.5370   -1.9520 ha        1 DFH      0.134000
     24 H9         -1.5070    1.5130    2.1140 ho        1 DFH      0.205000
     25 H10        -0.7000    2.0430   -1.0240 hc        1 DFH      0.087667
     26 H11        -2.1210    1.9220   -0.2710 hc        1 DFH      0.087667
     27 H12        -0.9160    2.7710    0.3980 hc        1 DFH      0.087667
     28 H13        -1.3280    0.3930   -2.0180 ha        1 DFH      0.132000
     29 H14        -2.1790   -1.5060   -3.1420 ha        1 DFH      0.134000
@<TRIPOS>BOND
     1    1    6 1   
     2    1   16 1   
     3    2    3 1   
     4    2   17 1   
     5    3   18 1   
     6    4    5 1   
     7    4   19 1   
     8    5   20 1   
     9    7    8 1   
    10    7   12 1   
    11    7   13 1   
    12    8    9 1   
    13    8   14 1   
    14    9   10 1   
    15    9   21 1   
    16   10   22 1   
    17   11   15 1   
    18   11   23 1   
    19   12   24 1   
    20   13   25 1   
    21   13   26 1   
    22   13   27 1   
    23   14   28 1   
    24   15   29 1   
@<TRIPOS>SUBSTRUCTURE
     1 DFH         1 TEMP              0 ****  ****    0 ROOT
