@<TRIPOS>MOLECULE
DFH
   29    30     1     0     0
SMALL
bcc


@<TRIPOS>ATOM
      1 C1         -0.0140    0.4450   -0.0560 ca        1 DFH     -0.113500
      2 C2          1.3800    0.4730   -0.0610 ca        1 DFH     -0.133750
      3 C3          2.0930    0.1140    1.0820 ca        1 DFH     -0.125500
      4 C4          1.4070   -0.2760    2.2320 ca        1 DFH     -0.133750
      5 C5          0.0140   -0.3060    2.2390 ca        1 DFH     -0.113500
      6 C6         -0.7080    0.0560    1.0950 ca        1 DFH     -0.096800
      7 C7         -2.2200    0.0090    1.1320 c3        1 DFH      0.249400
      8 C8         -2.7160   -1.3780    0.7890 ca        1 DFH     -0.096800
      9 C9         -2.2960   -1.9840   -0.4020 ca        1 DFH     -0.113500
     10 C10        -2.7590   -3.2520   -0.7460 ca        1 DFH     -0.133750
     11 C11        -3.6430   -3.9270    0.0970 ca        1 DFH     -0.125500
     12 O15        -2.6740    0.3040    2.4600 oh        1 DFH     -0.598800
     13 C14        -2.8430    1.0310    0.1770 c3        1 DFH     -0.119100
     14 C13        -3.6010   -2.0580    1.6320 ca        1 DFH     -0.113500
     15 C12        -4.0610   -3.3290    1.2840 ca        1 DFH     -0.133750
     16 H1         -0.5630    0.7320   -0.9660 ha        1 DFH      0.141000
     17 H2          1.9170    0.7800   -0.9700 ha        1 DFH      0.131250
     18 H3          3.1930    0.1370    1.0760 ha        1 DFH      0.131000
     19 H4          1.9650   -0.5640    3.1360 ha        1 DFH      0.131250
     20 H5         -0.5310   -0.6190    3.1440 ha        1 DFH      0.141000
     21 H6         -1.5910   -1.4560   -1.0620 ha        1 DFH      0.141000
     22 H7         -2.4240   -3.7210   -1.6820 ha        1 DFH      0.131250
     23 H8         -4.0070   -4.9280   -0.1750 ha        1 DFH      0.131000
     24 H9         -2.3280    1.1780    2.6770 ho        1 DFH      0.406000
     25 H10        -3.9270    1.1470    0.4200 hc        1 DFH      0.048367
     26 H11        -2.7480    0.6870   -0.8800 hc        1 DFH      0.048367
     27 H12        -2.3400    2.0200    0.2880 hc        1 DFH      0.048367
     28 H13        -3.9320   -1.5890    2.5720 ha        1 DFH      0.141000
     29 H14        -4.7560   -3.8580    1.9520 ha        1 DFH      0.131250
@<TRIPOS>BOND
     1    1    2 ar  
     2    1    6 ar  
     3    1   16 1   
     4    2    3 ar  
     5    2   17 1   
     6    3    4 ar  
     7    3   18 1   
     8    4    5 ar  
     9    4   19 1   
    10    5    6 ar  
    11    5   20 1   
    12    6    7 1   
    13    7    8 1   
    14    7   12 1   
    15    7   13 1   
    16    8    9 ar  
    17    8   14 ar  
    18    9   10 ar  
    19    9   21 1   
    20   10   11 ar  
    21   10   22 1   
    22   11   15 ar  
    23   11   23 1   
    24   12   24 1   
    25   13   25 1   
    26   13   26 1   
    27   13   27 1   
    28   14   15 ar  
    29   14   28 1   
    30   15   29 1   
@<TRIPOS>SUBSTRUCTURE
     1 DFH         1 TEMP              0 ****  ****    0 ROOT
