@<TRIPOS>MOLECULE
DFI
   28    27     1     0     0
SMALL
bcc


@<TRIPOS>ATOM
      1 N          -0.0290    1.8270    1.1950 n3        1 DFI     -0.900800
      2 CA          0.1290    0.3890    1.0730 c3        1 DFI      0.162500
      3 CB         -0.4980   -0.3810    2.2430 c3        1 DFI     -0.061400
      4 CG          0.1730   -0.1070    3.5800 c3        1 DFI     -0.069700
      5 CD1        -0.7270   -0.5650    4.7120 c3        1 DFI     -0.086600
      6 CD2         1.5170   -0.8000    3.6770 c3        1 DFI     -0.086600
      7 CH         -0.4410   -0.1980   -0.2440 c3        1 DFI      0.082100
      8 OH         -1.8370    0.0230   -0.2410 oh        1 DFI     -0.632800
      9 CM          0.1980    0.4410   -1.5250 c3        1 DFI      0.207600
     10 F1         -0.2930    1.7150   -1.7470 f         1 DFI     -0.264300
     11 F2          1.5410    0.6970   -1.3460 f         1 DFI     -0.264300
     12 C          -0.1080   -0.5310   -2.7540 c         1 DFI      0.919600
     13 O          -1.3080   -0.9040   -2.8410 o         1 DFI     -0.792800
     14 OXT         0.8460   -0.8530   -3.4910 o         1 DFI     -0.792800
     15 H          -1.0050    2.0570    1.1370 hn        1 DFI      0.350800
     16 H2          0.4380    2.2680    0.4220 hn        1 DFI      0.350800
     17 HA          1.2410    0.1800    1.0570 h1        1 DFI      0.060700
     18 HB2        -0.4310   -1.4770    2.0130 hc        1 DFI      0.045200
     19 HB3        -1.5870   -0.1210    2.3050 hc        1 DFI      0.045200
     20 HG          0.3370    1.0020    3.6860 hc        1 DFI      0.066700
     21 HD11       -0.2360   -0.3830    5.6980 hc        1 DFI      0.025700
     22 HD12       -1.6940   -0.0080    4.6880 hc        1 DFI      0.025700
     23 HD13       -0.9460   -1.6560    4.6220 hc        1 DFI      0.025700
     24 HD21        1.3990   -1.9060    3.5720 hc        1 DFI      0.025700
     25 HD22        2.2010   -0.4400    2.8720 hc        1 DFI      0.025700
     26 HD23        1.9920   -0.5880    4.6650 hc        1 DFI      0.025700
     27 HC         -0.2290   -1.3010   -0.2890 h1        1 DFI      0.052700
     28 HH         -2.1600   -0.2250   -1.1270 ho        1 DFI      0.454000
@<TRIPOS>BOND
     1    1    2 1   
     2    1   15 1   
     3    1   16 1   
     4    2    3 1   
     5    2    7 1   
     6    2   17 1   
     7    3    4 1   
     8    3   18 1   
     9    3   19 1   
    10    4    5 1   
    11    4    6 1   
    12    4   20 1   
    13    5   21 1   
    14    5   22 1   
    15    5   23 1   
    16    6   24 1   
    17    6   25 1   
    18    6   26 1   
    19    7    8 1   
    20    7    9 1   
    21    7   27 1   
    22    8   28 1   
    23    9   10 1   
    24    9   11 1   
    25    9   12 1   
    26   12   13 1   
    27   12   14 1   
@<TRIPOS>SUBSTRUCTURE
     1 DFI         1 TEMP              0 ****  ****    0 ROOT
