@<TRIPOS>MOLECULE
DFI
   28    27     1     0     0
SMALL
bcc


@<TRIPOS>ATOM
      1 N          -1.8640   -0.0550   -0.3930 n3        1 DFI     -0.900800
      2 CA         -0.4570   -0.0230   -0.4320 c3        1 DFI      0.162500
      3 CB          0.0930   -0.0310    0.9950 c3        1 DFI     -0.061400
      4 CG          0.1980    1.4280    1.5190 c3        1 DFI     -0.069700
      5 CD1         1.6710    1.7990    1.7100 c3        1 DFI     -0.086600
      6 CD2        -0.5340    1.5430    2.8590 c3        1 DFI     -0.086600
      7 CH          0.0560   -1.2390   -1.1800 c3        1 DFI      0.082100
      8 OH         -0.7180   -2.3590   -0.8350 oh        1 DFI     -0.632800
      9 CM         -0.0440   -0.9930   -2.6870 c3        1 DFI      0.207600
     10 F1          0.7030    0.0680   -3.0150 f         1 DFI     -0.264300
     11 F2         -1.3290   -0.7570   -3.0190 f         1 DFI     -0.264300
     12 C           0.4610   -2.2280   -3.4430 c         1 DFI      0.919600
     13 O          -0.3500   -3.1120   -3.8150 o         1 DFI     -0.792800
     14 OXT         1.6770   -2.3180   -3.7590 o         1 DFI     -0.792800
     15 H          -2.1410   -0.2320    0.4580 hn        1 DFI      0.350800
     16 H2         -2.1950    0.7550   -0.6580 hn        1 DFI      0.350800
     17 HA         -0.1600    0.7960   -0.8940 h1        1 DFI      0.060700
     18 HB2        -0.5120   -0.5450    1.5760 hc        1 DFI      0.045200
     19 HB3         0.9780   -0.4440    1.0010 hc        1 DFI      0.045200
     20 HG         -0.2050    2.0300    0.8800 hc        1 DFI      0.066700
     21 HD11        2.1060    1.1260    2.2690 hc        1 DFI      0.025700
     22 HD12        1.7340    2.6760    2.1450 hc        1 DFI      0.025700
     23 HD13        2.1140    1.8350    0.8380 hc        1 DFI      0.025700
     24 HD21       -0.2030    0.8510    3.4730 hc        1 DFI      0.025700
     25 HD22       -0.3700    2.4350    3.2490 hc        1 DFI      0.025700
     26 HD23       -1.5000    1.4200    2.7160 hc        1 DFI      0.025700
     27 HC          0.9790   -1.4000   -0.9400 h1        1 DFI      0.052700
     28 HH         -0.1880   -3.0260   -0.6160 ho        1 DFI      0.454000
@<TRIPOS>BOND
     1    1    2 1   
     2    1   15 1   
     3    1   16 1   
     4    2    3 1   
     5    2    7 1   
     6    2   17 1   
     7    3    4 1   
     8    3   18 1   
     9    3   19 1   
    10    4    5 1   
    11    4    6 1   
    12    4   20 1   
    13    5   21 1   
    14    5   22 1   
    15    5   23 1   
    16    6   24 1   
    17    6   25 1   
    18    6   26 1   
    19    7    8 1   
    20    7    9 1   
    21    7   27 1   
    22    8   28 1   
    23    9   10 1   
    24    9   11 1   
    25    9   12 1   
    26   12   13 1   
    27   12   14 1   
@<TRIPOS>SUBSTRUCTURE
     1 DFI         1 TEMP              0 ****  ****    0 ROOT
