@<TRIPOS>MOLECULE
DFJ
   74    76     1     0     0
SMALL
bcc


@<TRIPOS>ATOM
      1 C1          0.0000    0.0000    0.0000 ca        1 DFJ     -0.051500
      2 C2          1.3820    0.0000    0.0000 ca        1 DFJ     -0.079300
      3 C3          2.0740    0.0000    1.1970 ca        1 DFJ     -0.051500
      4 C4          1.3820    0.0040    2.3940 ca        1 DFJ     -0.093000
      5 C5         -0.0000   -0.0010    2.3940 ca        1 DFJ     -0.148300
      6 C6         -0.6920    0.0000    1.1970 ca        1 DFJ     -0.093000
      7 C11         2.1360   -0.0000   -1.3050 c3        1 DFJ      0.392700
      8 P12         2.3820    1.7170   -1.8650 p5        1 DFJ      0.564700
      9 F13         3.3790   -0.6150   -1.1250 f         1 DFJ     -0.222800
     10 F14         1.4020   -0.7040   -2.2660 f         1 DFJ     -0.222800
     11 O15         0.9510    2.4360   -2.0340 o         1 DFJ     -0.456167
     12 O16         3.2600    2.5150   -0.7770 o         1 DFJ     -0.456167
     13 O17         3.0900    1.7150   -3.1650 o         1 DFJ     -0.456167
     14 C20        -0.7540   -0.0010    3.6990 c3        1 DFJ     -0.008100
     15 C21        -1.0050   -1.4220    4.1340 c         1 DFJ      0.321100
     16 O24        -0.6110   -2.3440    3.4510 o         1 DFJ     -0.406100
     17 N25        -1.6680   -1.6690    5.2810 ny        1 DFJ      0.157200
     18 C26        -1.9130   -3.0500    5.7030 c3        1 DFJ     -0.041500
     19 C27        -3.1230   -3.0950    6.5990 c         1 DFJ     -0.032900
     20 O30        -3.7230   -2.0730    6.8600 o         1 DFJ     -0.691100
     21 N31        -3.5400   -4.2690    7.1110 ny        1 DFJ      0.325200
     22 C32        -4.7170   -4.3130    7.9820 c3        1 DFJ     -0.025500
     23 C33        -4.3050   -4.0070    9.3990 c         1 DFJ     -0.111900
     24 O34        -3.1430   -3.7760    9.6560 o         1 DFJ     -0.681100
     25 C35        -5.3450   -5.7070    7.9230 c3        1 DFJ      0.020900
     26 C37        -5.8670   -5.9650    6.5340 ca        1 DFJ     -0.168300
     27 N40        -5.2290   -3.9910   10.3810 nz        1 DFJ      0.366600
     28 C43         0.4880   -3.6460    5.5350 ca        1 DFJ     -0.147300
     29 C46         1.3290   -2.5570    5.4010 ca        1 DFJ     -0.108500
     30 C47         2.4140   -2.6220    4.5470 ca        1 DFJ     -0.072000
     31 C48         2.6590   -3.7770    3.8270 ca        1 DFJ     -0.069000
     32 C49         1.8180   -4.8660    3.9620 ca        1 DFJ     -0.072000
     33 C50         0.7360   -4.8020    4.8190 ca        1 DFJ     -0.108500
     34 C56        -5.0490   -6.5460    5.5840 ca        1 DFJ     -0.115500
     35 C57        -5.5280   -6.7820    4.3090 ca        1 DFJ     -0.045000
     36 C58        -6.8270   -6.4380    3.9840 ca        1 DFJ     -0.078300
     37 C59        -7.6460   -5.8570    4.9340 ca        1 DFJ     -0.045000
     38 C60        -7.1680   -5.6250    6.2100 ca        1 DFJ     -0.115500
     39 C65        -7.3500   -6.6940    2.5940 c3        1 DFJ      0.392700
     40 F66        -8.2490   -5.6820    2.2400 f         1 DFJ     -0.223300
     41 F67        -6.2830   -6.7060    1.6900 f         1 DFJ     -0.223300
     42 P68        -8.2010   -8.3050    2.5530 p5        1 DFJ      0.556700
     43 O69        -8.7540   -8.5360    1.2000 o         1 DFJ     -0.470167
     44 O70        -7.1530   -9.4740    2.9110 o         1 DFJ     -0.470167
     45 O71        -9.3970   -8.3090    3.6290 o         1 DFJ     -0.470167
     46 C7         -0.6950   -3.5740    6.4660 c3        1 DFJ      0.016900
     47 H1         -0.5410   -0.0280   -0.9380 ha        1 DFJ      0.130500
     48 H3          3.1560    0.0350    1.1970 ha        1 DFJ      0.130500
     49 H4          1.9220    0.0750    3.3310 ha        1 DFJ      0.093000
     50 H6         -1.7740    0.0430    1.1970 ha        1 DFJ      0.093000
     51 H201       -1.7000    0.5100    3.5700 hc        1 DFJ      0.044700
     52 H202       -0.1680    0.5090    4.4540 hc        1 DFJ      0.044700
     53 H25        -1.1510   -1.2280    6.0160 hn        1 DFJ      0.271300
     54 H26        -2.0860   -3.6690    4.8310 hx        1 DFJ      0.084700
     55 H31        -2.7760   -4.6460    7.6360 hn        1 DFJ      0.186300
     56 H32        -5.4400   -3.5780    7.6500 hx        1 DFJ      0.077700
     57 H351       -6.1610   -5.7660    8.6330 hc        1 DFJ      0.024200
     58 H352       -4.5970   -6.4510    8.1710 hc        1 DFJ      0.024200
     59 H401       -5.3200   -4.9090   10.7690 hn        1 DFJ      0.158133
     60 H402       -6.1090   -3.6980   10.0060 hn        1 DFJ      0.158133
     61 H46         1.1790   -1.6790    6.0180 ha        1 DFJ      0.099500
     62 H47         3.0730   -1.7680    4.4430 ha        1 DFJ      0.113500
     63 H48         3.5080   -3.8270    3.1560 ha        1 DFJ      0.117000
     64 H49         2.0140   -5.7730    3.4030 ha        1 DFJ      0.113500
     65 H50         0.0770   -5.6550    4.9240 ha        1 DFJ      0.099500
     66 H56        -4.0310   -6.8160    5.8390 ha        1 DFJ      0.089500
     67 H57        -4.8860   -7.2380    3.5650 ha        1 DFJ      0.131000
     68 H59        -8.6480   -5.5420    4.6660 ha        1 DFJ      0.131000
     69 H60        -7.8210   -5.2050    6.9650 ha        1 DFJ      0.089500
     70 H7C1       -0.9090   -4.5630    6.8540 hc        1 DFJ      0.045700
     71 H7C2       -0.4680   -2.9050    7.2880 hc        1 DFJ      0.045700
     72 H252       -2.5610   -1.2240    5.2040 hn        1 DFJ      0.271300
     73 H312       -3.7200   -4.8770    6.3360 hn        1 DFJ      0.186300
     74 H403       -4.9440   -3.3510   11.0960 hn        1 DFJ      0.158133
@<TRIPOS>BOND
     1    1    2 ar  
     2    1    6 ar  
     3    1   47 1   
     4    2    3 ar  
     5    2    7 1   
     6    3    4 ar  
     7    3   48 1   
     8    4    5 ar  
     9    4   49 1   
    10    5    6 ar  
    11    5   14 1   
    12    6   50 1   
    13    7    8 1   
    14    7    9 1   
    15    7   10 1   
    16    8   11 1   
    17    8   12 1   
    18    8   13 1   
    19   14   15 1   
    20   14   51 1   
    21   14   52 1   
    22   15   16 2   
    23   15   17 1   
    24   17   18 1   
    25   17   53 1   
    26   17   72 1   
    27   18   19 1   
    28   18   46 1   
    29   18   54 1   
    30   19   20 2   
    31   19   21 1   
    32   21   22 1   
    33   21   55 1   
    34   21   73 1   
    35   22   23 1   
    36   22   25 1   
    37   22   56 1   
    38   23   24 2   
    39   23   27 1   
    40   25   26 1   
    41   25   57 1   
    42   25   58 1   
    43   26   34 ar  
    44   26   38 ar  
    45   27   59 1   
    46   27   60 1   
    47   27   74 1   
    48   28   29 ar  
    49   28   33 ar  
    50   28   46 1   
    51   29   30 ar  
    52   29   61 1   
    53   30   31 ar  
    54   30   62 1   
    55   31   32 ar  
    56   31   63 1   
    57   32   33 ar  
    58   32   64 1   
    59   33   65 1   
    60   34   35 ar  
    61   34   66 1   
    62   35   36 ar  
    63   35   67 1   
    64   36   37 ar  
    65   36   39 1   
    66   37   38 ar  
    67   37   68 1   
    68   38   69 1   
    69   39   40 1   
    70   39   41 1   
    71   39   42 1   
    72   42   43 1   
    73   42   44 1   
    74   42   45 1   
    75   46   70 1   
    76   46   71 1   
@<TRIPOS>SUBSTRUCTURE
     1 DFJ         1 TEMP              0 ****  ****    0 ROOT
