@<TRIPOS>MOLECULE
DFJ
   71    71     1     0     0
SMALL
bcc


@<TRIPOS>ATOM
      1 C1         -6.7370   -0.1390    0.0230 ca        1 DFJ     -0.270500
      2 C2         -6.9230    0.8370    1.0630 ca        1 DFJ      0.058000
      3 C3         -5.7860    1.1010    1.9050 ca        1 DFJ     -0.270500
      4 C4         -4.6130    0.4060    1.7470 ca        1 DFJ     -0.045500
      5 C5         -4.4610   -0.5830    0.7550 ca        1 DFJ     -0.344000
      6 C6         -5.5520   -0.8150   -0.1080 ca        1 DFJ     -0.045500
      7 C11        -8.1260    1.4680    1.2440 c2        1 DFJ     -0.095000
      8 P12       -11.0510    2.8800    1.7520 p3        1 DFJ      2.410500
      9 F13        -8.4860    2.3920    2.1720 f         1 DFJ     -0.145500
     10 F14        -9.2830    1.3170    0.5490 f         1 DFJ     -0.145500
     11 O15       -11.7940    1.6030    1.7730 o         1 DFJ     -1.141000
     12 O16       -10.7810    3.5540    3.0400 o         1 DFJ     -1.141000
     13 O17       -10.9730    3.6660    0.5030 o         1 DFJ     -1.141000
     14 C20        -3.2500   -1.4190    0.6720 c3        1 DFJ     -0.068000
     15 C21        -2.1410   -0.8220   -0.1880 c2        1 DFJ      0.308000
     16 O24        -1.8170   -1.3180   -1.2890 o         1 DFJ     -0.416000
     17 N25        -1.4510    0.2640    0.3310 n         1 DFJ     -0.366000
     18 C26        -0.4830    1.0100   -0.4210 c3        1 DFJ      0.021000
     19 C27         0.9280    0.9250    0.2370 c2        1 DFJ      0.284000
     20 O30         1.0960    1.2580    1.4280 o         1 DFJ     -0.389000
     21 N31         1.9560    0.4520   -0.5520 n         1 DFJ     -0.341000
     22 C32         3.3540    0.6150   -0.2120 c3        1 DFJ     -0.007000
     23 C33         3.9980    1.7790   -1.0030 c2        1 DFJ      0.278000
     24 O34         3.4800    2.2400   -2.0490 o         1 DFJ     -0.438000
     25 C35         4.1710   -0.6730   -0.4890 c3        1 DFJ     -0.059000
     26 C37         5.6070   -0.5410   -0.1740 ca        1 DFJ     -0.362000
     27 N40         5.1430    2.3410   -0.4860 n         1 DFJ     -0.383000
     28 C43        -1.9330    2.8250   -1.4130 ca        1 DFJ     -0.078000
     29 C46        -3.2530    2.6230   -0.9910 ca        1 DFJ     -0.120000
     30 C47        -4.3180    2.9400   -1.8350 ca        1 DFJ     -0.131000
     31 C48        -4.0740    3.4670   -3.1020 ca        1 DFJ     -0.144000
     32 C49        -2.7620    3.6710   -3.5290 ca        1 DFJ     -0.131000
     33 C50        -1.6960    3.3510   -2.6900 ca        1 DFJ     -0.120000
     34 C56         6.0710   -0.4810    1.1570 ca        1 DFJ     -0.052500
     35 C57         7.4080   -0.4120    1.4570 ca        1 DFJ     -0.272000
     36 C58         8.4040   -0.4180    0.4190 ca        1 DFJ      0.055000
     37 C59         7.9190   -0.4890   -0.9340 ca        1 DFJ     -0.272000
     38 C60         6.5750   -0.5520   -1.2000 ca        1 DFJ     -0.052500
     39 C65         9.7440   -0.3640    0.6960 c2        1 DFJ     -0.089000
     40 F66        10.7940   -0.3680   -0.1660 f         1 DFJ     -0.144500
     41 F67        10.3780   -0.3010    1.8940 f         1 DFJ     -0.144500
     42 P68        12.9740   -0.2870    1.3090 p3        1 DFJ      2.410500
     43 O69        12.9370   -1.3520    2.3330 o         1 DFJ     -1.141000
     44 O70        13.4860   -0.6280   -0.0350 o         1 DFJ     -1.141000
     45 O71        12.9250    1.1320    1.7150 o         1 DFJ     -1.141000
     46 C7         -0.7870    2.5210   -0.5170 c3        1 DFJ     -0.140000
     47 H1         -7.5800   -0.3310   -0.6530 ha        1 DFJ      0.108500
     48 H3         -5.8940    1.8660    2.6830 ha        1 DFJ      0.108500
     49 H4         -3.7660    0.6140    2.4200 ha        1 DFJ      0.078000
     50 H6         -5.4400   -1.5670   -0.9060 ha        1 DFJ      0.078000
     51 H201       -3.4970   -2.4140    0.2110 hc        1 DFJ      0.078500
     52 H202       -2.8340   -1.6100    1.6980 hc        1 DFJ      0.078500
     53 H25        -1.7990    0.6890    1.1590 hn        1 DFJ      0.232000
     54 H26        -0.4540    0.5790   -1.4680 h1        1 DFJ      0.135000
     55 H31         1.7770    0.3410   -1.5250 hn        1 DFJ      0.223000
     56 H32         3.4200    0.8450    0.8940 h1        1 DFJ      0.140000
     57 H351        3.7180   -1.4920    0.1350 hc        1 DFJ      0.068000
     58 H352        4.0380   -0.9590   -1.5670 hc        1 DFJ      0.068000
     59 H401        5.6620    2.9330   -1.0910 hn        1 DFJ      0.221500
     60 H402        5.6860    1.7770    0.1370 hn        1 DFJ      0.221500
     61 H46        -3.4670    2.1910    0.0030 ha        1 DFJ      0.144000
     62 H47        -5.3510    2.7610   -1.4920 ha        1 DFJ      0.135000
     63 H48        -4.9150    3.7160   -3.7640 ha        1 DFJ      0.116000
     64 H49        -2.5650    4.0810   -4.5290 ha        1 DFJ      0.135000
     65 H50        -0.6630    3.5080   -3.0320 ha        1 DFJ      0.144000
     66 H56         5.3280   -0.4890    1.9700 ha        1 DFJ      0.083000
     67 H57         7.7550   -0.3620    2.4960 ha        1 DFJ      0.109000
     68 H59         8.6610   -0.4990   -1.7420 ha        1 DFJ      0.109000
     69 H60         6.2340   -0.6150   -2.2460 ha        1 DFJ      0.083000
     70 H7C1       -0.9880    2.9260    0.5110 hc        1 DFJ      0.100500
     71 H7C2        0.1400    3.0270   -0.8990 hc        1 DFJ      0.100500
@<TRIPOS>BOND
     1    1    2 1   
     2    1    6 1   
     3    1   47 1   
     4    2    3 1   
     5    2    7 1   
     6    3    4 1   
     7    3   48 1   
     8    4    5 1   
     9    4   49 1   
    10    5    6 1   
    11    5   14 1   
    12    6   50 1   
    13    7    9 1   
    14    7   10 1   
    15    8   11 1   
    16    8   12 1   
    17    8   13 1   
    18   14   15 1   
    19   14   51 1   
    20   14   52 1   
    21   15   16 1   
    22   15   17 1   
    23   17   18 1   
    24   17   53 1   
    25   18   19 1   
    26   18   46 1   
    27   18   54 1   
    28   19   20 1   
    29   19   21 1   
    30   21   22 1   
    31   21   55 1   
    32   22   23 1   
    33   22   25 1   
    34   22   56 1   
    35   23   24 1   
    36   23   27 1   
    37   25   26 1   
    38   25   57 1   
    39   25   58 1   
    40   26   34 1   
    41   26   38 1   
    42   27   59 1   
    43   27   60 1   
    44   28   29 1   
    45   28   33 1   
    46   28   46 1   
    47   29   30 1   
    48   29   61 1   
    49   30   31 1   
    50   30   62 1   
    51   31   32 1   
    52   31   63 1   
    53   32   33 1   
    54   32   64 1   
    55   33   65 1   
    56   34   35 1   
    57   34   66 1   
    58   35   36 1   
    59   35   67 1   
    60   36   37 1   
    61   36   39 1   
    62   37   38 1   
    63   37   68 1   
    64   38   69 1   
    65   39   40 1   
    66   39   41 1   
    67   42   43 1   
    68   42   44 1   
    69   42   45 1   
    70   46   70 1   
    71   46   71 1   
@<TRIPOS>SUBSTRUCTURE
     1 DFJ         1 TEMP              0 ****  ****    0 ROOT
