@<TRIPOS>MOLECULE
DFJ
   71    65     1     0     0
SMALL
bcc


@<TRIPOS>ATOM
      1 C1         -1.6220    3.0820   -3.4910 c1        1 DFJ     -0.142667
      2 C2         -1.5660    3.7830   -4.6860 c1        1 DFJ      0.058500
      3 C3         -0.3830    4.3800   -5.0850 c1        1 DFJ     -0.271500
      4 C4          0.7450    4.2780   -4.2950 c1        1 DFJ     -0.043000
      5 C5          0.6950    3.5770   -3.0990 c1        1 DFJ     -0.341000
      6 C6         -0.4870    2.9790   -2.6960 c1        1 DFJ     -0.142667
      7 C11        -2.7810    3.8750   -5.5560 c3        1 DFJ     -0.091000
      8 P12        -3.7650    5.3040   -5.0700 p5        1 DFJ      1.452500
      9 F13        -2.4040    4.0060   -6.8310 f         1 DFJ     -0.145750
     10 F14        -3.5190    2.7530   -5.4170 f         1 DFJ     -0.145750
     11 O15        -4.0450    5.2450   -3.5850 o         1 DFJ     -0.821667
     12 O16        -2.9980    6.5780   -5.3900 o         1 DFJ     -0.821667
     13 O17        -5.0780    5.2940   -5.8300 o         1 DFJ     -0.821667
     14 C20         1.9620    3.4440   -2.2310 c3        1 DFJ     -0.056000
     15 C21         2.3100    1.9550   -2.0480 c2        1 DFJ      0.314000
     16 O24         2.2160    1.1850   -2.9960 o         1 DFJ     -0.419000
     17 N25         2.8800    1.4910   -0.7900 n         1 DFJ     -0.382000
     18 C26         2.6260    0.1950   -0.3510 c3        1 DFJ      0.016000
     19 C27         1.4550    0.2070    0.5920 c2        1 DFJ      0.285000
     20 O30         0.9710    1.2730    0.9530 o         1 DFJ     -0.384000
     21 N31         0.9440   -1.0190    1.1060 n         1 DFJ     -0.343000
     22 C32         0.1920   -1.0300    2.3310 c3        1 DFJ     -0.010000
     23 C33         1.0280   -0.5030    3.4310 c2        1 DFJ      0.282000
     24 O34         2.1330   -0.9380    3.6060 o         1 DFJ     -0.449000
     25 C35        -0.2360   -2.4710    2.6580 c3        1 DFJ     -0.056000
     26 C37        -1.7330   -2.4910    3.0600 c2        1 DFJ     -0.367000
     27 N40         0.4840    0.4560    4.3460 n         1 DFJ     -0.383000
     28 C43         4.6920   -1.2580   -0.5720 c1        1 DFJ     -0.079000
     29 C46         6.0370   -0.9790   -0.8210 c1        1 DFJ     -0.142667
     30 C47         6.7890   -1.8400   -1.6010 c1        1 DFJ     -0.142667
     31 C48         6.2070   -2.9830   -2.1380 c1        1 DFJ     -0.142667
     32 C49         4.8710   -3.2620   -1.8920 c1        1 DFJ     -0.142667
     33 C50         4.1120   -2.3960   -1.1060 c1        1 DFJ     -0.133000
     34 C56        -2.4790   -3.4710    2.4150 c2        1 DFJ     -0.053000
     35 C57        -3.8250   -3.6330    2.7190 c1        1 DFJ     -0.269000
     36 C58        -4.4280   -2.8120    3.6700 c1        1 DFJ      0.058500
     37 C59        -3.6810   -1.8300    4.3150 c1        1 DFJ     -0.271500
     38 C60        -2.3350   -1.6700    4.0110 c1        1 DFJ     -0.050000
     39 C65        -5.9200   -2.9230    3.9320 c3        1 DFJ     -0.091000
     40 F66        -6.4330   -1.6960    4.1180 f         1 DFJ     -0.145750
     41 F67        -6.5230   -3.5120    2.8710 f         1 DFJ     -0.145750
     42 P68        -6.2040   -3.9420    5.4420 p5        1 DFJ      1.452500
     43 O69        -7.6810   -3.9950    5.7430 o         1 DFJ     -0.821667
     44 O70        -5.6810   -5.3480    5.2070 o         1 DFJ     -0.821667
     45 O71        -5.4800   -3.3290    6.6050 o         1 DFJ     -0.821667
     46 C7          3.8880   -0.3690    0.3910 c3        1 DFJ     -0.151000
     47 H1         -2.4760    2.7230   -3.1750 ha        1 DFJ      0.120167
     48 H3         -0.3520    4.8930   -5.9120 ha        1 DFJ      0.107500
     49 H4          1.5540    4.7670   -4.5390 ha        1 DFJ      0.072000
     50 H6         -0.5400    2.5440   -1.8290 ha        1 DFJ      0.120167
     51 H201        1.8020    3.8490   -1.3560 hc        1 DFJ      0.072000
     52 H202        2.7080    3.9030   -2.6710 hc        1 DFJ      0.072000
     53 H25         3.3420    2.0850   -0.2400 hn        1 DFJ      0.237000
     54 H26         2.4150   -0.3850   -1.1330 h1        1 DFJ      0.137000
     55 H31         1.0660   -1.8070    0.6310 hn        1 DFJ      0.225000
     56 H32        -0.6140   -0.4620    2.2290 h1        1 DFJ      0.141000
     57 H351       -0.1040   -3.0320    1.8780 hc        1 DFJ      0.066500
     58 H352        0.3140   -2.8150    3.4120 hc        1 DFJ      0.066500
     59 H401        1.0110    0.8030    5.0090 hn        1 DFJ      0.225500
     60 H402       -0.4140    0.6830    4.3010 hn        1 DFJ      0.225500
     61 H46         6.4520   -0.1650   -0.4400 ha        1 DFJ      0.120167
     62 H47         7.7270   -1.6450   -1.7750 ha        1 DFJ      0.120167
     63 H48         6.7470   -3.5980   -2.6960 ha        1 DFJ      0.120167
     64 H49         4.4630   -4.0870   -2.2560 ha        1 DFJ      0.120167
     65 H50         3.1670   -2.5920   -0.9320 ha        1 DFJ      0.172000
     66 H56        -2.0490   -4.0840    1.8270 ha        1 DFJ      0.085000
     67 H57        -4.3320   -4.3750    2.3200 ha        1 DFJ      0.111000
     68 H59        -4.0890   -1.2930    5.0350 ha        1 DFJ      0.107500
     69 H60        -1.7960   -1.0210    4.5060 ha        1 DFJ      0.079000
     70 H7C1        3.6000   -0.9010    1.1670 hc        1 DFJ      0.110000
     71 H7C2        4.4480    0.3710    0.6940 hc        1 DFJ      0.110000
@<TRIPOS>BOND
     1    1    6 1   
     2    1   47 1   
     3    2    3 1   
     4    2    7 1   
     5    3   48 1   
     6    4    5 1   
     7    4   49 1   
     8    5   14 1   
     9    6   50 1   
    10    7    8 1   
    11    7    9 1   
    12    7   10 1   
    13    8   11 1   
    14    8   12 1   
    15    8   13 1   
    16   14   15 1   
    17   14   51 1   
    18   14   52 1   
    19   15   16 1   
    20   15   17 1   
    21   17   18 1   
    22   17   53 1   
    23   18   19 1   
    24   18   46 1   
    25   18   54 1   
    26   19   20 1   
    27   19   21 1   
    28   21   22 1   
    29   21   55 1   
    30   22   23 1   
    31   22   25 1   
    32   22   56 1   
    33   23   24 1   
    34   23   27 1   
    35   25   26 1   
    36   25   57 1   
    37   25   58 1   
    38   26   34 1   
    39   26   38 1   
    40   27   59 1   
    41   27   60 1   
    42   28   33 1   
    43   28   46 1   
    44   29   30 1   
    45   29   61 1   
    46   30   62 1   
    47   31   32 1   
    48   31   63 1   
    49   32   64 1   
    50   33   65 1   
    51   34   35 1   
    52   34   66 1   
    53   35   67 1   
    54   36   37 1   
    55   36   39 1   
    56   37   68 1   
    57   38   69 1   
    58   39   40 1   
    59   39   41 1   
    60   39   42 1   
    61   42   43 1   
    62   42   44 1   
    63   42   45 1   
    64   46   70 1   
    65   46   71 1   
@<TRIPOS>SUBSTRUCTURE
     1 DFJ         1 TEMP              0 ****  ****    0 ROOT
