@<TRIPOS>MOLECULE
DFK
   68    69     1     0     0
SMALL
bcc


@<TRIPOS>ATOM
      1 N1          0.2500   -0.7620   -1.6100 nz        1 DFK     -0.838600
      2 CA1         1.4620    0.0030   -1.1650 c3        1 DFK      0.059500
      3 C1          1.7940   -0.3170    0.3050 c         1 DFK      0.657100
      4 O1          1.4650   -1.4120    0.8040 o         1 DFK     -0.599100
      5 CB1         2.6830   -0.3680   -2.0410 c3        1 DFK     -0.038100
      6 CG1         2.3680   -0.2020   -3.4830 ca        1 DFK     -0.201300
      7 CD1         2.4620    1.0580   -4.0870 ca        1 DFK     -0.131000
      8 CD2         2.0420   -1.3220   -4.2630 ca        1 DFK     -0.131000
      9 CE1         2.2260    1.1980   -5.4540 ca        1 DFK     -0.103000
     10 CE2         1.8080   -1.1780   -5.6290 ca        1 DFK     -0.103000
     11 CZ1         1.9000    0.0820   -6.2270 ca        1 DFK     -0.071000
     12 N2          2.4590    0.6180    1.0760 n         1 DFK     -0.449800
     13 CA2         3.1290    0.2290    2.3000 c3        1 DFK      0.065700
     14 C2          2.1670    0.1930    3.5100 c         1 DFK      0.529100
     15 O2          1.0680    0.6880    3.6450 o         1 DFK     -0.379100
     16 CB2         4.2330    1.2820    2.5770 c3        1 DFK     -0.096400
     17 CG2         4.0470    2.3840    1.5370 c3        1 DFK     -0.096400
     18 CD3         2.9060    1.9310    0.6140 c3        1 DFK      0.072000
     19 N3          2.7230   -0.5950    4.7120 ny        1 DFK     -0.687800
     20 CA3         1.9880   -0.4220    6.0130 c3        1 DFK      0.082500
     21 C3          2.7030    0.6040    6.9540 c3        1 DFK      0.144100
     22 O3          1.7930    0.8610    8.0100 oh        1 DFK     -0.641800
     23 CB3         1.8250   -1.7670    6.7530 c3        1 DFK     -0.089400
     24 CG3         0.7300   -1.7260    7.8140 c3        1 DFK     -0.092400
     25 CD4         1.3310   -1.8540    9.2190 c3        1 DFK      0.102800
     26 NE          0.2570   -1.9160   10.2840 ny        1 DFK     -0.785000
     27 CZ3         0.8160   -2.1470   11.6730 c2        1 DFK      0.613100
     28 NH1         2.0080   -2.0050   12.0860 n2        1 DFK     -0.576100
     29 NH2        -0.2070   -2.5890   12.6870 nz        1 DFK     -0.820600
     30 CH2         3.1430    1.8650    6.2440 c3        1 DFK     -0.171100
     31 HN11        0.2670   -0.8270   -2.6470 hn        1 DFK      0.480467
     32 HN12        0.2700   -1.7120   -1.2140 hn        1 DFK      0.480467
     33 HA1         1.2260    1.1020   -1.3020 hx        1 DFK      0.136700
     34 HB11        2.9960   -1.4250   -1.8220 hc        1 DFK      0.092700
     35 HB12        3.5320    0.3070   -1.7500 hc        1 DFK      0.092700
     36 HD1         2.7470    1.9380   -3.4910 ha        1 DFK      0.132000
     37 HD2         2.0230   -2.3260   -3.8130 ha        1 DFK      0.132000
     38 HE1         2.3140    2.1900   -5.9290 ha        1 DFK      0.173000
     39 HE2         1.5710   -2.0620   -6.2440 ha        1 DFK      0.173000
     40 HZ1         1.7280    0.1920   -7.3120 ha        1 DFK      0.180000
     41 HA2         3.5550   -0.8140    2.1800 h1        1 DFK      0.113700
     42 HB21        5.2380    0.7980    2.4660 hc        1 DFK      0.081700
     43 HB22        4.1540    1.7000    3.6110 hc        1 DFK      0.081700
     44 HG21        3.7900    3.3600    2.0220 hc        1 DFK      0.105700
     45 HG22        4.9890    2.5390    0.9500 hc        1 DFK      0.105700
     46 HD31        2.0380    2.6480    0.6660 h1        1 DFK      0.086700
     47 HD32        3.2640    1.8740   -0.4510 h1        1 DFK      0.086700
     48 HN3         2.7080   -1.5880    4.4430 hn        1 DFK      0.464800
     49 HA3         0.9600   -0.0130    5.7650 hx        1 DFK      0.137700
     50 H3          3.5880    0.0990    7.4410 h1        1 DFK      0.083700
     51 HO3         1.4370    1.7580    7.9070 ho        1 DFK      0.458000
     52 HB31        2.8090   -2.0590    7.2070 hc        1 DFK      0.085700
     53 HB32        1.5460   -2.5760    6.0200 hc        1 DFK      0.085700
     54 HG31        0.0150   -2.5730    7.6220 hc        1 DFK      0.096200
     55 HG32        0.1530   -0.7630    7.7370 hc        1 DFK      0.096200
     56 HD41        1.9430   -2.7990    9.2930 hx        1 DFK      0.131200
     57 HD42        1.9730   -0.9440    9.4190 hx        1 DFK      0.131200
     58 HNE        -0.4000   -2.6700   10.0270 hn        1 DFK      0.485300
     59 HNH1        2.7970   -1.7150   11.5390 hn        1 DFK      0.542400
     60 HN21       -0.6020   -3.5100   12.4360 hn        1 DFK      0.520133
     61 HN22       -0.9610   -1.8900   12.7840 hn        1 DFK      0.520133
     62 HH21        2.3810    2.2030    5.4990 hc        1 DFK      0.084367
     63 HH22        3.2870    2.6910    6.9910 hc        1 DFK      0.084367
     64 HH23        4.1280    1.7180    5.7380 hc        1 DFK      0.084367
     65 H13        -0.6070   -0.2910   -1.3110 hn        1 DFK      0.480467
     66 H32         3.7040   -0.3140    4.8380 hn        1 DFK      0.464800
     67 HE3        -0.2580   -1.0180   10.2770 hn        1 DFK      0.485300
     68 HH24        0.2570   -2.6880   13.6230 hn        1 DFK      0.520133
@<TRIPOS>BOND
     1    1    2 1   
     2    1   31 1   
     3    1   32 1   
     4    1   65 1   
     5    2    3 1   
     6    2    5 1   
     7    2   33 1   
     8    3    4 2   
     9    3   12 1   
    10    5    6 1   
    11    5   34 1   
    12    5   35 1   
    13    6    7 ar  
    14    6    8 ar  
    15    7    9 ar  
    16    7   36 1   
    17    8   10 ar  
    18    8   37 1   
    19    9   11 ar  
    20    9   38 1   
    21   10   11 ar  
    22   10   39 1   
    23   11   40 1   
    24   12   13 1   
    25   12   18 1   
    26   13   14 1   
    27   13   16 1   
    28   13   41 1   
    29   14   15 2   
    30   14   19 1   
    31   16   17 1   
    32   16   42 1   
    33   16   43 1   
    34   17   18 1   
    35   17   44 1   
    36   17   45 1   
    37   18   46 1   
    38   18   47 1   
    39   19   20 1   
    40   19   48 1   
    41   19   66 1   
    42   20   21 1   
    43   20   23 1   
    44   20   49 1   
    45   21   22 1   
    46   21   30 1   
    47   21   50 1   
    48   22   51 1   
    49   23   24 1   
    50   23   52 1   
    51   23   53 1   
    52   24   25 1   
    53   24   54 1   
    54   24   55 1   
    55   25   26 1   
    56   25   56 1   
    57   25   57 1   
    58   26   27 1   
    59   26   58 1   
    60   26   67 1   
    61   27   28 2   
    62   27   29 1   
    63   28   59 1   
    64   29   60 1   
    65   29   61 1   
    66   29   68 1   
    67   30   62 1   
    68   30   63 1   
    69   30   64 1   
@<TRIPOS>SUBSTRUCTURE
     1 DFK         1 TEMP              0 ****  ****    0 ROOT
