@<TRIPOS>MOLECULE
DFK
   64    62     1     0     0
SMALL
bcc


@<TRIPOS>ATOM
      1 N1         -1.3840    0.6190   -4.1180 n3        1 DFK     -0.336000
      2 CA1        -0.2740   -0.2480   -4.0040 c3        1 DFK     -0.020000
      3 C1          0.2420   -0.2290   -2.5760 c2        1 DFK      0.251000
      4 O1         -0.3530   -0.7710   -1.7370 o         1 DFK     -0.376000
      5 CB1        -0.7000   -1.6960   -4.3770 c3        1 DFK     -0.112000
      6 CG1        -1.5620   -1.6650   -5.6870 c2        1 DFK     -0.072000
      7 CD1        -0.9380   -1.5920   -6.9410 c1        1 DFK     -0.128000
      8 CD2        -2.9120   -1.7690   -5.6080 c2        1 DFK     -0.105000
      9 CE1        -1.7040   -1.6260   -8.0970 c1        1 DFK     -0.130500
     10 CE2        -3.6860   -1.8030   -6.7820 c1        1 DFK     -0.131000
     11 CZ1        -3.0800   -1.7320   -8.0120 c1        1 DFK     -0.130500
     12 N2          1.5230    0.4360   -2.2580 n         1 DFK     -0.319000
     13 CA2         2.1120    0.4980   -1.0810 c3        1 DFK      0.000000
     14 C2          1.0520    0.5200    0.0220 c2        1 DFK      0.297000
     15 O2         -0.0430    0.2920   -0.2310 o         1 DFK     -0.384000
     16 CB2         2.9960    1.8740   -1.1860 c3        1 DFK     -0.167000
     17 CG2         3.4380    1.9410   -2.3780 c3        1 DFK     -0.170000
     18 CD3         2.4350    1.1890   -3.2280 c3        1 DFK     -0.033000
     19 N3          1.4580    0.6930    1.4170 n         1 DFK     -0.361000
     20 CA3         0.4990    0.6290    2.4400 c3        1 DFK      0.034000
     21 C3         -0.0090    2.0380    2.7460 c3        1 DFK      0.004000
     22 O3          0.7660    2.5960    3.7550 oh        1 DFK     -0.330000
     23 CB3         1.1400    0.0230    3.7260 c3        1 DFK     -0.166000
     24 CG3         0.1160   -0.8890    4.4340 c3        1 DFK     -0.165000
     25 CD4         0.4180   -0.9340    5.8940 c3        1 DFK     -0.071000
     26 NE         -0.7250   -1.4490    6.6100 n3        1 DFK     -0.309000
     27 CZ3        -0.7490   -1.4060    8.1240 c2        1 DFK      0.127000
     28 NH1        -0.5690   -2.4860    8.7970 n1        1 DFK     -0.288000
     29 NH2        -0.9800   -0.1140    8.8330 n3        1 DFK     -0.345000
     30 CH2        -1.4780    1.9730    3.2070 c3        1 DFK     -0.249000
     31 HN11       -1.5250    1.0180   -3.3480 hn        1 DFK      0.158000
     32 HN12       -1.2190    1.2340   -4.7470 hn        1 DFK      0.158000
     33 HA1         0.4480    0.0560   -4.6210 h1        1 DFK      0.117000
     34 HB11        0.1410   -2.2750   -4.5300 hc        1 DFK      0.107000
     35 HB12       -1.2870   -2.1210   -3.5680 hc        1 DFK      0.107000
     36 HD1         0.0020   -1.5220   -6.9980 ha        1 DFK      0.128000
     37 HD2        -3.3300   -1.8190   -4.7660 ha        1 DFK      0.134000
     38 HE1        -1.2880   -1.5760   -8.9390 ha        1 DFK      0.130000
     39 HE2        -4.6230   -1.8750   -6.7250 ha        1 DFK      0.131000
     40 HZ1        -3.6370   -1.7590   -8.8510 ha        1 DFK      0.130000
     41 HA2         2.6620   -0.2580   -0.8020 h1        1 DFK      0.124000
     42 HB21        3.7140    1.8430   -0.5830 hc        1 DFK      0.114500
     43 HB22        2.4400    2.6370   -0.9960 hc        1 DFK      0.114500
     44 HG21        4.3830    1.4900   -2.4400 hc        1 DFK      0.096500
     45 HG22        3.4860    2.8390   -2.6550 hc        1 DFK      0.096500
     46 HD31        1.9100    1.8200   -3.7590 h1        1 DFK      0.089000
     47 HD32        2.9020    0.5510   -3.8220 h1        1 DFK      0.089000
     48 HN3         2.3710    0.9380    1.6250 hn        1 DFK      0.257000
     49 HA3        -0.2550    0.0600    2.1480 h1        1 DFK      0.127000
     50 H3          0.0580    2.5940    1.9360 h1        1 DFK      0.082000
     51 HO3         0.6250    3.4650    3.7890 ho        1 DFK      0.201000
     52 HB31        1.3890    0.7190    4.3090 hc        1 DFK      0.097500
     53 HB32        1.9150   -0.4880    3.4900 hc        1 DFK      0.097500
     54 HG31       -0.8630   -0.5000    4.2880 hc        1 DFK      0.092000
     55 HG32        0.1690   -1.8170    4.0520 hc        1 DFK      0.092000
     56 HD41        0.6130   -0.0640    6.2000 h1        1 DFK      0.071000
     57 HD42        1.1990   -1.5230    6.0520 h1        1 DFK      0.071000
     58 HNE        -1.4910   -1.7470    6.1310 hn        1 DFK      0.179000
     59 HNH1       -0.4360   -3.2260    8.3890 DU        1 DFK      0.167000
     60 HN21       -0.5710    0.6040    8.5750 hn        1 DFK      0.186500
     61 HN22       -1.5770   -0.0800    9.5710 hn        1 DFK      0.186500
     62 HH21       -1.6090    1.1780    3.7560 hc        1 DFK      0.084667
     63 HH22       -2.0770    1.9290    2.4120 hc        1 DFK      0.084667
     64 HH23       -1.6900    2.7590    3.7240 hc        1 DFK      0.084667
@<TRIPOS>BOND
     1    1    2 1   
     2    1   31 1   
     3    1   32 1   
     4    2    3 1   
     5    2    5 1   
     6    2   33 1   
     7    3    4 1   
     8    3   12 1   
     9    5    6 1   
    10    5   34 1   
    11    5   35 1   
    12    6    7 1   
    13    6    8 1   
    14    7   36 1   
    15    8   10 1   
    16    8   37 1   
    17    9   11 1   
    18    9   38 1   
    19   10   39 1   
    20   11   40 1   
    21   12   13 1   
    22   12   18 1   
    23   13   14 1   
    24   13   16 1   
    25   13   41 1   
    26   14   15 1   
    27   14   19 1   
    28   16   17 1   
    29   16   42 1   
    30   16   43 1   
    31   17   18 1   
    32   17   44 1   
    33   17   45 1   
    34   18   46 1   
    35   18   47 1   
    36   19   20 1   
    37   19   48 1   
    38   20   21 1   
    39   20   23 1   
    40   20   49 1   
    41   21   22 1   
    42   21   30 1   
    43   21   50 1   
    44   22   51 1   
    45   23   24 1   
    46   23   52 1   
    47   23   53 1   
    48   24   25 1   
    49   24   54 1   
    50   24   55 1   
    51   25   26 1   
    52   25   56 1   
    53   25   57 1   
    54   26   27 1   
    55   26   58 1   
    56   27   28 1   
    57   27   29 1   
    58   29   60 1   
    59   29   61 1   
    60   30   62 1   
    61   30   63 1   
    62   30   64 1   
@<TRIPOS>SUBSTRUCTURE
     1 DFK         1 TEMP              0 ****  ****    0 ROOT
