@<TRIPOS>MOLECULE
DFK
   68    69     1     0     0
SMALL
bcc


@<TRIPOS>ATOM
      1 N1          0.2070   -0.7490   -1.5960 n4        1 DFK     -0.838600
      2 CA1         1.4390   -0.0090   -1.1630 c3        1 DFK      0.059500
      3 C1          1.7740   -0.3290    0.3060 c         1 DFK      0.657100
      4 O1          1.4230   -1.4130    0.8140 o         1 DFK     -0.599100
      5 CB1         2.6450   -0.4120   -2.0440 c3        1 DFK     -0.038100
      6 CG1         2.3250   -0.2460   -3.4850 ca        1 DFK     -0.201300
      7 CD1         2.4440    1.0080   -4.0970 ca        1 DFK     -0.131000
      8 CD2         1.9690   -1.3620   -4.2570 ca        1 DFK     -0.131000
      9 CE1         2.2020    1.1470   -5.4630 ca        1 DFK     -0.103000
     10 CE2         1.7300   -1.2200   -5.6220 ca        1 DFK     -0.103000
     11 CZ1         1.8460    0.0340   -6.2280 ca        1 DFK     -0.071000
     12 N2          2.4650    0.5960    1.0680 n         1 DFK     -0.449800
     13 CA2         3.1330    0.1980    2.2900 c3        1 DFK      0.065700
     14 C2          2.1790    0.1900    3.5070 c         1 DFK      0.529100
     15 O2          1.0910    0.7090    3.6460 o         1 DFK     -0.379100
     16 CB2         4.2620    1.2270    2.5550 c3        1 DFK     -0.096400
     17 CG2         4.0950    2.3270    1.5100 c3        1 DFK     -0.096400
     18 CD3         2.9380    1.8960    0.5970 c3        1 DFK      0.072000
     19 N3          2.7250   -0.6030    4.7100 n4        1 DFK     -0.687800
     20 CA3         2.0010   -0.4080    6.0140 c3        1 DFK      0.082500
     21 C3          2.7410    0.6090    6.9450 c3        1 DFK      0.144100
     22 O3          1.8420    0.8910    8.0050 oh        1 DFK     -0.641800
     23 CB3         1.8170   -1.7450    6.7630 c3        1 DFK     -0.089400
     24 CG3         0.7280   -1.6760    7.8300 c3        1 DFK     -0.092400
     25 CD4         1.3350   -1.8080    9.2330 c3        1 DFK      0.102800
     26 NE          0.2670   -1.8420   10.3040 n4        1 DFK     -0.785000
     27 CZ3         0.8290   -2.0760   11.6910 c2        1 DFK      0.613100
     28 NH1         2.0260   -1.9520   12.0970 n2        1 DFK     -0.576100
     29 NH2        -0.1950   -2.4950   12.7130 n4        1 DFK     -0.820600
     30 CH2         3.2010    1.8580    6.2240 c3        1 DFK     -0.171100
     31 HN11       -0.6370   -0.2570   -1.2930 hn        1 DFK      0.480467
     32 HN12        0.2080   -1.6970   -1.1950 hn        1 DFK      0.480467
     33 HA1         1.2270    1.0950   -1.3040 hx        1 DFK      0.136700
     34 HB11        3.5120    0.2450   -1.7630 hc        1 DFK      0.092700
     35 HB12        2.9370   -1.4740   -1.8220 hc        1 DFK      0.092700
     36 HD1         2.7520    1.8850   -3.5070 ha        1 DFK      0.132000
     37 HD2         1.9310   -2.3640   -3.8020 ha        1 DFK      0.132000
     38 HE1         2.3100    2.1340   -5.9440 ha        1 DFK      0.173000
     39 HE2         1.4680   -2.1030   -6.2310 ha        1 DFK      0.173000
     40 HZ1         1.6700    0.1420   -7.3120 ha        1 DFK      0.180000
     41 HA2         3.5340   -0.8550    2.1740 h1        1 DFK      0.113700
     42 HB21        5.2550    0.7200    2.4400 hc        1 DFK      0.081700
     43 HB22        4.1990    1.6520    3.5870 hc        1 DFK      0.081700
     44 HG21        5.0360    2.4580    0.9170 hc        1 DFK      0.105700
     45 HG22        3.8620    3.3120    1.9910 hc        1 DFK      0.105700
     46 HD31        2.0870    2.6320    0.6500 h1        1 DFK      0.086700
     47 HD32        3.2870    1.8250   -0.4700 h1        1 DFK      0.086700
     48 HN3         3.7120   -0.3420    4.8290 hn        1 DFK      0.464800
     49 HA3         0.9800    0.0190    5.7690 hx        1 DFK      0.137700
     50 H3          3.6190    0.0900    7.4290 h1        1 DFK      0.083700
     51 HO3         1.5030    1.7930    7.8980 ho        1 DFK      0.458000
     52 HB31        2.7970   -2.0540    7.2140 hc        1 DFK      0.085700
     53 HB32        1.5180   -2.5530    6.0370 hc        1 DFK      0.085700
     54 HG31        0.1700   -0.7030    7.7500 hc        1 DFK      0.096200
     55 HG32       -0.0030   -2.5110    7.6470 hc        1 DFK      0.096200
     56 HD41        1.9300   -2.7640    9.3090 hx        1 DFK      0.131200
     57 HD42        1.9960   -0.9080    9.4230 hx        1 DFK      0.131200
     58 HNE        -0.4060   -2.5840   10.0550 hn        1 DFK      0.485300
     59 HNH1        2.8170   -1.6800   11.5430 hn        1 DFK      0.542400
     60 HN21       -0.9360   -1.7820   12.8110 hn        1 DFK      0.520133
     61 HN22       -0.6080   -3.4090   12.4690 hn        1 DFK      0.520133
     62 HH21        4.1810    1.6880    5.7140 hc        1 DFK      0.084367
     63 HH22        3.3660    2.6850    6.9660 hc        1 DFK      0.084367
     64 HH23        2.4420    2.2060    5.4820 hc        1 DFK      0.084367
     65 H13         0.2160   -0.8190   -2.6320 hn        1 DFK      0.480467
     66 H32         2.6880   -1.5970    4.4470 hn        1 DFK      0.464800
     67 HE3        -0.2300   -0.9350   10.2950 hn        1 DFK      0.485300
     68 HH24        0.2720   -2.5970   13.6470 hn        1 DFK      0.520133
@<TRIPOS>BOND
     1    1    2 1   
     2    1   31 1   
     3    1   32 1   
     4    1   65 1   
     5    2    3 1   
     6    2    5 1   
     7    2   33 1   
     8    3    4 2   
     9    3   12 1   
    10    5    6 1   
    11    5   34 1   
    12    5   35 1   
    13    6    7 ar  
    14    6    8 ar  
    15    7    9 ar  
    16    7   36 1   
    17    8   10 ar  
    18    8   37 1   
    19    9   11 ar  
    20    9   38 1   
    21   10   11 ar  
    22   10   39 1   
    23   11   40 1   
    24   12   13 1   
    25   12   18 1   
    26   13   14 1   
    27   13   16 1   
    28   13   41 1   
    29   14   15 2   
    30   14   19 1   
    31   16   17 1   
    32   16   42 1   
    33   16   43 1   
    34   17   18 1   
    35   17   44 1   
    36   17   45 1   
    37   18   46 1   
    38   18   47 1   
    39   19   20 1   
    40   19   48 1   
    41   19   66 1   
    42   20   21 1   
    43   20   23 1   
    44   20   49 1   
    45   21   22 1   
    46   21   30 1   
    47   21   50 1   
    48   22   51 1   
    49   23   24 1   
    50   23   52 1   
    51   23   53 1   
    52   24   25 1   
    53   24   54 1   
    54   24   55 1   
    55   25   26 1   
    56   25   56 1   
    57   25   57 1   
    58   26   27 1   
    59   26   58 1   
    60   26   67 1   
    61   27   28 2   
    62   27   29 1   
    63   28   59 1   
    64   29   60 1   
    65   29   61 1   
    66   29   68 1   
    67   30   62 1   
    68   30   63 1   
    69   30   64 1   
@<TRIPOS>SUBSTRUCTURE
     1 DFK         1 TEMP              0 ****  ****    0 ROOT
