@<TRIPOS>MOLECULE
DFK
   68    69     1     0     0
SMALL
bcc


@<TRIPOS>ATOM
      1 N1          0.3190   -0.8150   -1.6260 n4        1 DFK     -0.838600
      2 CA1         1.5030   -0.0140   -1.1680 c3        1 DFK      0.059500
      3 C1          1.8290   -0.3240    0.3050 c         1 DFK      0.657100
      4 O1          1.5260   -1.4280    0.8020 o         1 DFK     -0.599100
      5 CB1         2.7440   -0.3500   -2.0300 c3        1 DFK     -0.038100
      6 CG1         2.4400   -0.1930   -3.4760 ca        1 DFK     -0.202300
      7 CD1         2.5040    1.0690   -4.0800 ca        1 DFK     -0.131000
      8 CD2         2.1560   -1.3220   -4.2580 ca        1 DFK     -0.131000
      9 CE1         2.2790    1.2020   -5.4490 ca        1 DFK     -0.103000
     10 CE2         1.9330   -1.1850   -5.6270 ca        1 DFK     -0.103000
     11 CZ1         1.9940    0.0760   -6.2250 ca        1 DFK     -0.071000
     12 N2          2.4580    0.6310    1.0830 n         1 DFK     -0.449800
     13 CA2         3.1250    0.2610    2.3140 c3        1 DFK      0.065700
     14 C2          2.1510    0.1980    3.5150 c         1 DFK      0.529100
     15 O2          1.0370    0.6620    3.6370 o         1 DFK     -0.379100
     16 CB2         4.1940    1.3460    2.6030 c3        1 DFK     -0.096400
     17 CG2         3.9880    2.4420    1.5610 c3        1 DFK     -0.096400
     18 CD3         2.8710    1.9560    0.6260 c3        1 DFK      0.072000
     19 N3          2.7160   -0.5740    4.7220 n4        1 DFK     -0.687800
     20 CA3         1.9640   -0.4200    6.0160 c3        1 DFK      0.082500
     21 C3          2.6410    0.6230    6.9640 c3        1 DFK      0.144100
     22 O3          1.7130    0.8570    8.0110 oh        1 DFK     -0.641800
     23 CB3         1.8280   -1.7690    6.7530 c3        1 DFK     -0.089400
     24 CG3         0.7210   -1.7570    7.8030 c3        1 DFK     -0.092400
     25 CD4         1.3100   -1.8700    9.2150 c3        1 DFK      0.102800
     26 NE          0.2280   -1.9600   10.2680 n4        1 DFK     -0.785000
     27 CZ3         0.7780   -2.1760   11.6630 c2        1 DFK      0.613100
     28 NH1         1.9620   -2.0040   12.0880 n2        1 DFK     -0.576100
     29 NH2        -0.2430   -2.6440   12.6670 n4        1 DFK     -0.820600
     30 CH2         3.0550    1.8960    6.2580 c3        1 DFK     -0.171100
     31 HN11        0.3490   -0.8790   -2.6620 hn        1 DFK      0.480467
     32 HN12        0.3620   -1.7640   -1.2290 hn        1 DFK      0.480467
     33 HA1         1.2370    1.0780   -1.3080 hx        1 DFK      0.136700
     34 HB11        3.0860   -1.3970   -1.8070 hc        1 DFK      0.092700
     35 HB12        3.5700    0.3500   -1.7310 hc        1 DFK      0.092700
     36 HD1         2.7560    1.9570   -3.4810 ha        1 DFK      0.132000
     37 HD2         2.1620   -2.3270   -3.8080 ha        1 DFK      0.132000
     38 HE1         2.3430    2.1960   -5.9240 ha        1 DFK      0.173000
     39 HE2         1.7280   -2.0770   -6.2440 ha        1 DFK      0.173000
     40 HZ1         1.8310    0.1800   -7.3120 ha        1 DFK      0.180000
     41 HA2         3.5820   -0.7680    2.2000 h1        1 DFK      0.113700
     42 HB21        5.2140    0.8920    2.5020 hc        1 DFK      0.081700
     43 HB22        4.0930    1.7620    3.6350 hc        1 DFK      0.081700
     44 HG21        3.6970    3.4100    2.0420 hc        1 DFK      0.105700
     45 HG22        4.9320    2.6250    0.9840 hc        1 DFK      0.105700
     46 HD31        1.9820    2.6470    0.6670 h1        1 DFK      0.086700
     47 HD32        3.2410    1.9090   -0.4360 h1        1 DFK      0.086700
     48 HN3         2.7320   -1.5670    4.4540 hn        1 DFK      0.464800
     49 HA3         0.9270   -0.0390    5.7560 hx        1 DFK      0.137700
     50 H3          3.5340    0.1420    7.4600 h1        1 DFK      0.083700
     51 HO3         1.3350    1.7440    7.9040 ho        1 DFK      0.458000
     52 HB31        1.5780   -2.5860    6.0180 hc        1 DFK      0.085700
     53 HB32        2.8150   -2.0360    7.2190 hc        1 DFK      0.085700
     54 HG31        0.1200   -0.8100    7.7200 hc        1 DFK      0.096200
     55 HG32        0.0320   -2.6230    7.6040 hc        1 DFK      0.096200
     56 HD41        1.9470   -2.7980    9.2960 hx        1 DFK      0.131200
     57 HD42        1.9270   -0.9430    9.4210 hx        1 DFK      0.131200
     58 HNE        -0.4060   -2.7310   10.0050 hn        1 DFK      0.485300
     59 HNH1        2.7490   -1.6940   11.5490 hn        1 DFK      0.542400
     60 HN21       -1.0160   -1.9650   12.7560 hn        1 DFK      0.520133
     61 HN22        0.2130   -2.7320   13.6070 hn        1 DFK      0.520133
     62 HH21        4.0490    1.7750    5.7630 hc        1 DFK      0.084367
     63 HH22        3.1690    2.7250    7.0070 hc        1 DFK      0.084367
     64 HH23        2.2920    2.2140    5.5060 hc        1 DFK      0.084367
     65 H13        -0.5550   -0.3690   -1.3360 hn        1 DFK      0.480467
     66 H32         3.6870   -0.2660    4.8580 hn        1 DFK      0.464800
     67 HE3        -0.3100   -1.0760   10.2560 hn        1 DFK      0.485300
     68 HH24       -0.6130   -3.5750   12.4120 hn        1 DFK      0.520133
@<TRIPOS>BOND
     1    1    2 1   
     2    1   31 1   
     3    1   32 1   
     4    1   65 1   
     5    2    3 1   
     6    2    5 1   
     7    2   33 1   
     8    3    4 2   
     9    3   12 1   
    10    5    6 1   
    11    5   34 1   
    12    5   35 1   
    13    6    7 ar  
    14    6    8 ar  
    15    7    9 ar  
    16    7   36 1   
    17    8   10 ar  
    18    8   37 1   
    19    9   11 ar  
    20    9   38 1   
    21   10   11 ar  
    22   10   39 1   
    23   11   40 1   
    24   12   13 1   
    25   12   18 1   
    26   13   14 1   
    27   13   16 1   
    28   13   41 1   
    29   14   15 2   
    30   14   19 1   
    31   16   17 1   
    32   16   42 1   
    33   16   43 1   
    34   17   18 1   
    35   17   44 1   
    36   17   45 1   
    37   18   46 1   
    38   18   47 1   
    39   19   20 1   
    40   19   48 1   
    41   19   66 1   
    42   20   21 1   
    43   20   23 1   
    44   20   49 1   
    45   21   22 1   
    46   21   30 1   
    47   21   50 1   
    48   22   51 1   
    49   23   24 1   
    50   23   52 1   
    51   23   53 1   
    52   24   25 1   
    53   24   54 1   
    54   24   55 1   
    55   25   26 1   
    56   25   56 1   
    57   25   57 1   
    58   26   27 1   
    59   26   58 1   
    60   26   67 1   
    61   27   28 2   
    62   27   29 1   
    63   28   59 1   
    64   29   60 1   
    65   29   61 1   
    66   29   68 1   
    67   30   62 1   
    68   30   63 1   
    69   30   64 1   
@<TRIPOS>SUBSTRUCTURE
     1 DFK         1 TEMP              0 ****  ****    0 ROOT
