@<TRIPOS>MOLECULE
DFK
   64    65     1     0     0
SMALL
bcc


@<TRIPOS>ATOM
      1 N1          0.7560   -2.0450    0.6570 n3        1 DFK     -0.893800
      2 CA1         1.6140   -0.8850    0.6060 c3        1 DFK      0.124500
      3 C1          0.8820    0.4230    1.0070 c         1 DFK      0.615100
      4 O1          0.0050    0.4000    1.9000 o         1 DFK     -0.640100
      5 CB1         2.8380   -1.0050    1.5360 c3        1 DFK     -0.030100
      6 CG1         3.8570   -1.9370    0.9840 ca        1 DFK     -0.083300
      7 CD1         4.9680   -1.4350    0.2940 ca        1 DFK     -0.117000
      8 CD2         3.7250   -3.3190    1.1600 ca        1 DFK     -0.117000
      9 CE1         5.9330   -2.3050   -0.2110 ca        1 DFK     -0.131000
     10 CE2         4.6910   -4.1860    0.6530 ca        1 DFK     -0.131000
     11 CZ1         5.7970   -3.6810   -0.0320 ca        1 DFK     -0.127000
     12 N2          1.1670    1.5940    0.3400 n         1 DFK     -0.461800
     13 CA2         0.5980    2.8810    0.7260 c3        1 DFK      0.033700
     14 C2         -0.8240    3.0670    0.1380 c         1 DFK      0.650100
     15 O2         -1.0330    3.8160   -0.8360 o         1 DFK     -0.611100
     16 CB2         1.5530    3.9740    0.2020 c3        1 DFK     -0.086400
     17 CG2         2.5930    3.2670   -0.6600 c3        1 DFK     -0.088400
     18 CD3         2.2960    1.7620   -0.5570 c3        1 DFK      0.089000
     19 N3         -1.8360    2.3890    0.7760 n         1 DFK     -0.554900
     20 CA3        -3.1690    2.2910    0.2270 c3        1 DFK      0.065700
     21 C3         -4.1930    3.1270    1.0500 c3        1 DFK      0.134100
     22 O3         -5.4540    3.1130    0.3940 oh        1 DFK     -0.595800
     23 CB3        -3.6670    0.8370    0.1480 c3        1 DFK     -0.098400
     24 CG3        -2.6930   -0.0760   -0.5650 c3        1 DFK     -0.090400
     25 CD4        -3.3310   -1.4520   -0.7680 c3        1 DFK      0.178800
     26 NE         -2.4020   -2.3920   -1.3680 nh        1 DFK     -0.800200
     27 CZ3        -2.8890   -3.7270   -1.6140 c2        1 DFK      0.743100
     28 NH1        -4.0910   -4.0840   -1.2340 n2        1 DFK     -0.871100
     29 NH2        -1.9610   -4.5780   -2.3060 nh        1 DFK     -0.933800
     30 CH2        -3.7790    4.5850    1.1420 c3        1 DFK     -0.092100
     31 HN11        0.4280   -2.2040    1.5910 hn        1 DFK      0.367800
     32 HN12       -0.0330   -1.9260    0.0500 hn        1 DFK      0.367800
     33 HA1         1.9780   -0.7950   -0.4610 h1        1 DFK      0.079700
     34 HB11        3.2880    0.0160    1.6650 hc        1 DFK      0.059200
     35 HB12        2.5110   -1.3530    2.5530 hc        1 DFK      0.059200
     36 HD1         5.0810   -0.3500    0.1530 ha        1 DFK      0.132500
     37 HD2         2.8480   -3.7190    1.6910 ha        1 DFK      0.132500
     38 HE1         6.8040   -1.9030   -0.7500 ha        1 DFK      0.131500
     39 HE2         4.5810   -5.2710    0.7940 ha        1 DFK      0.131500
     40 HZ1         6.5590   -4.3660   -0.4300 ha        1 DFK      0.132000
     41 HA2         0.5240    2.9330    1.8530 h1        1 DFK      0.080700
     42 HB21        0.9910    4.7370   -0.3940 hc        1 DFK      0.073700
     43 HB22        2.0360    4.4920    1.0670 hc        1 DFK      0.073700
     44 HG21        2.5200    3.6000   -1.7240 hc        1 DFK      0.058200
     45 HG22        3.6280    3.4840   -0.3000 hc        1 DFK      0.058200
     46 HD31        2.0320    1.3410   -1.5670 h1        1 DFK      0.049200
     47 HD32        3.1940    1.2050   -0.1700 h1        1 DFK      0.049200
     48 HN3        -1.6030    1.7550    1.5090 hn        1 DFK      0.336500
     49 HA3        -3.1560    2.7220   -0.8210 h1        1 DFK      0.095700
     50 H3         -4.2980    2.6860    2.0810 h1        1 DFK      0.030700
     51 HO3        -5.8350    2.2380    0.5290 ho        1 DFK      0.397000
     52 HB31       -3.8630    0.4450    1.1810 hc        1 DFK      0.050200
     53 HB32       -4.6410    0.8410   -0.4080 hc        1 DFK      0.050200
     54 HG31       -2.4140    0.3730   -1.5540 hc        1 DFK      0.050200
     55 HG32       -1.7520   -0.1830    0.0390 hc        1 DFK      0.050200
     56 HD41       -3.6400   -1.8640    0.2350 h1        1 DFK      0.055700
     57 HD42       -4.2680   -1.3310   -1.3860 h1        1 DFK      0.055700
     58 HNE        -1.9720   -2.0060   -2.1880 hn        1 DFK      0.387800
     59 HNH1       -4.3140   -5.0470   -1.3620 hn        1 DFK      0.391400
     60 HN21       -1.0110   -4.2760   -2.2860 hn        1 DFK      0.390800
     61 HN22       -2.0480   -5.5390   -2.0560 hn        1 DFK      0.390800
     62 HH21       -4.6690    5.2160    1.3790 hc        1 DFK      0.050033
     63 HH22       -3.0170    4.7100    1.9460 hc        1 DFK      0.050033
     64 HH23       -3.3440    4.9290    0.1730 hc        1 DFK      0.050033
@<TRIPOS>BOND
     1    1    2 1   
     2    1   31 1   
     3    1   32 1   
     4    2    3 1   
     5    2    5 1   
     6    2   33 1   
     7    3    4 2   
     8    3   12 1   
     9    5    6 1   
    10    5   34 1   
    11    5   35 1   
    12    6    7 ar  
    13    6    8 ar  
    14    7    9 ar  
    15    7   36 1   
    16    8   10 ar  
    17    8   37 1   
    18    9   11 ar  
    19    9   38 1   
    20   10   11 ar  
    21   10   39 1   
    22   11   40 1   
    23   12   13 1   
    24   12   18 1   
    25   13   14 1   
    26   13   16 1   
    27   13   41 1   
    28   14   15 2   
    29   14   19 1   
    30   16   17 1   
    31   16   42 1   
    32   16   43 1   
    33   17   18 1   
    34   17   44 1   
    35   17   45 1   
    36   18   46 1   
    37   18   47 1   
    38   19   20 1   
    39   19   48 1   
    40   20   21 1   
    41   20   23 1   
    42   20   49 1   
    43   21   22 1   
    44   21   30 1   
    45   21   50 1   
    46   22   51 1   
    47   23   24 1   
    48   23   52 1   
    49   23   53 1   
    50   24   25 1   
    51   24   54 1   
    52   24   55 1   
    53   25   26 1   
    54   25   56 1   
    55   25   57 1   
    56   26   27 1   
    57   26   58 1   
    58   27   28 2   
    59   27   29 1   
    60   28   59 1   
    61   29   60 1   
    62   29   61 1   
    63   30   62 1   
    64   30   63 1   
    65   30   64 1   
@<TRIPOS>SUBSTRUCTURE
     1 DFK         1 TEMP              0 ****  ****    0 ROOT
