@<TRIPOS>MOLECULE
DFL
   30    32     1     0     0
SMALL
bcc


@<TRIPOS>ATOM
      1 C1          0.0150    0.0920   -0.0350 ca        1 DFL     -0.071000
      2 C2          1.4110    0.1780   -0.0180 ca        1 DFL     -0.178000
      3 C3          2.0980    0.1250    1.1900 ca        1 DFL     -0.041000
      4 C4          1.4020   -0.0150    2.3980 ca        1 DFL     -0.245600
      5 C5         -0.0010   -0.1180    2.3650 ca        1 DFL      0.166100
      6 C6         -0.7010   -0.0610    1.1470 ca        1 DFL     -0.171000
      7 C7          2.1150   -0.0260    3.6830 c         1 DFL      0.587700
      8 C8          1.2280   -0.0050    4.8970 c3        1 DFL     -0.211400
      9 C9         -0.0710   -0.7620    4.6490 c3        1 DFL      0.203400
     10 O1         -0.7750   -0.2400    3.4990 os        1 DFL     -0.322900
     11 C10        -1.0020   -0.6420    5.8160 ca        1 DFL     -0.134300
     12 C11        -1.8070    0.4920    5.9780 ca        1 DFL     -0.071000
     13 C12        -2.6580    0.6060    7.0710 ca        1 DFL     -0.188000
     14 C13        -2.6980   -0.4340    8.0150 ca        1 DFL      0.134100
     15 C14        -1.8990   -1.5770    7.8610 ca        1 DFL     -0.188000
     16 C15        -1.0580   -1.6760    6.7560 ca        1 DFL     -0.071000
     17 O2          3.3470   -0.0190    3.7770 o         1 DFL     -0.530100
     18 O4         -3.5540   -0.2650    9.0780 oh        1 DFL     -0.494100
     19 H1         -0.5240    0.1390   -0.9940 ha        1 DFL      0.138000
     20 H2          1.9650    0.2910   -0.9610 ha        1 DFL      0.140000
     21 H3          3.1980    0.1960    1.2190 ha        1 DFL      0.156000
     22 H6         -1.7970   -0.1360    1.1490 ha        1 DFL      0.154000
     23 H81         1.0030    1.0680    5.1430 hc        1 DFL      0.089200
     24 H82         1.7600   -0.4550    5.7740 hc        1 DFL      0.089200
     25 H9          0.1560   -1.8470    4.4360 h1        1 DFL      0.061700
     26 H11        -1.7700    1.2920    5.2220 ha        1 DFL      0.142000
     27 H12        -3.2970    1.4890    7.2080 ha        1 DFL      0.145500
     28 H14        -1.9400   -2.3870    8.6030 ha        1 DFL      0.145500
     29 H15        -0.4350   -2.5740    6.6280 ha        1 DFL      0.142000
     30 HO4        -3.4890   -1.0490    9.6430 ho        1 DFL      0.421000
@<TRIPOS>BOND
     1    1    2 ar  
     2    1    6 ar  
     3    1   19 1   
     4    2    3 ar  
     5    2   20 1   
     6    3    4 ar  
     7    3   21 1   
     8    4    5 ar  
     9    4    7 1   
    10    5    6 ar  
    11    5   10 1   
    12    6   22 1   
    13    7    8 1   
    14    7   17 2   
    15    8    9 1   
    16    8   23 1   
    17    8   24 1   
    18    9   10 1   
    19    9   11 1   
    20    9   25 1   
    21   11   12 ar  
    22   11   16 ar  
    23   12   13 ar  
    24   12   26 1   
    25   13   14 ar  
    26   13   27 1   
    27   14   15 ar  
    28   14   18 1   
    29   15   16 ar  
    30   15   28 1   
    31   16   29 1   
    32   18   30 1   
@<TRIPOS>SUBSTRUCTURE
     1 DFL         1 TEMP              0 ****  ****    0 ROOT
