@<TRIPOS>MOLECULE
DFL
   30    32     1     0     0
SMALL
bcc


@<TRIPOS>ATOM
      1 C1          1.9550    0.2420   -4.0260 ca        1 DFL     -0.071000
      2 C2          0.7470    0.0460   -4.7030 ca        1 DFL     -0.178000
      3 C3         -0.4340   -0.1160   -3.9880 ca        1 DFL     -0.041000
      4 C4         -0.4270   -0.0850   -2.5860 ca        1 DFL     -0.245600
      5 C5          0.7930    0.1290   -1.9190 ca        1 DFL      0.166100
      6 C6          1.9910    0.2900   -2.6370 ca        1 DFL     -0.171000
      7 C7         -1.6620   -0.3010   -1.8210 c         1 DFL      0.587700
      8 C8         -1.4700   -0.4150   -0.3340 c3        1 DFL     -0.211400
      9 C9         -0.3260    0.4660    0.1480 c3        1 DFL      0.203400
     10 O1          0.9060    0.1580   -0.5450 os        1 DFL     -0.322900
     11 C10        -0.0600    0.2640    1.6080 ca        1 DFL     -0.134300
     12 C11         0.7120   -0.8150    2.0540 ca        1 DFL     -0.071000
     13 C12         0.9430   -1.0080    3.4110 ca        1 DFL     -0.188000
     14 C13         0.3870   -0.1030    4.3320 ca        1 DFL      0.134100
     15 C14        -0.3840    0.9840    3.8970 ca        1 DFL     -0.188000
     16 C15        -0.5980    1.1640    2.5330 ca        1 DFL     -0.071000
     17 O2         -2.7760   -0.4160   -2.3440 o         1 DFL     -0.530100
     18 O4          0.6440   -0.3470    5.6610 oh        1 DFL     -0.494100
     19 H1          2.8880    0.3650   -4.5970 ha        1 DFL      0.138000
     20 H2          0.7330    0.0180   -5.8020 ha        1 DFL      0.140000
     21 H3         -1.3940   -0.2750   -4.5080 ha        1 DFL      0.156000
     22 H6          2.9320    0.4490   -2.0920 ha        1 DFL      0.154000
     23 H81        -1.2510   -1.4910   -0.0940 hc        1 DFL      0.089200
     24 H82        -2.4120   -0.1290    0.2020 hc        1 DFL      0.089200
     25 H9         -0.5640    1.5490   -0.0630 h1        1 DFL      0.061700
     26 H11         1.1480   -1.5080    1.3170 ha        1 DFL      0.142000
     27 H12         1.5490   -1.8500    3.7740 ha        1 DFL      0.145500
     28 H14        -0.8110    1.6880    4.6240 ha        1 DFL      0.145500
     29 H15        -1.1960    2.0210    2.1870 ha        1 DFL      0.142000
     30 HO4         0.2130    0.3470    6.1810 ho        1 DFL      0.421000
@<TRIPOS>BOND
     1    1    2 ar  
     2    1    6 ar  
     3    1   19 1   
     4    2    3 ar  
     5    2   20 1   
     6    3    4 ar  
     7    3   21 1   
     8    4    5 ar  
     9    4    7 1   
    10    5    6 ar  
    11    5   10 1   
    12    6   22 1   
    13    7    8 1   
    14    7   17 2   
    15    8    9 1   
    16    8   23 1   
    17    8   24 1   
    18    9   10 1   
    19    9   11 1   
    20    9   25 1   
    21   11   12 ar  
    22   11   16 ar  
    23   12   13 ar  
    24   12   26 1   
    25   13   14 ar  
    26   13   27 1   
    27   14   15 ar  
    28   14   18 1   
    29   15   16 ar  
    30   15   28 1   
    31   16   29 1   
    32   18   30 1   
@<TRIPOS>SUBSTRUCTURE
     1 DFL         1 TEMP              0 ****  ****    0 ROOT
