@<TRIPOS>MOLECULE
DFL
   30    32     1     0     0
SMALL
bcc


@<TRIPOS>ATOM
      1 C1          0.0090    0.0720   -0.0410 ca        1 DFL     -0.071000
      2 C2          1.4040    0.1590   -0.0250 ca        1 DFL     -0.178000
      3 C3          2.0930    0.1100    1.1810 ca        1 DFL     -0.041000
      4 C4          1.3980   -0.0250    2.3910 ca        1 DFL     -0.245600
      5 C5         -0.0050   -0.1280    2.3600 ca        1 DFL      0.166100
      6 C6         -0.7060   -0.0760    1.1420 ca        1 DFL     -0.171000
      7 C7          2.1130   -0.0300    3.6750 c         1 DFL      0.587700
      8 C8          1.2270   -0.0040    4.8900 c3        1 DFL     -0.211400
      9 C9         -0.0710   -0.7630    4.6470 c3        1 DFL      0.203400
     10 O1         -0.7780   -0.2450    3.4960 os        1 DFL     -0.322900
     11 C10        -1.0010   -0.6390    5.8140 ca        1 DFL     -0.134300
     12 C11        -1.8090    0.4940    5.9710 ca        1 DFL     -0.071000
     13 C12        -2.6580    0.6130    7.0650 ca        1 DFL     -0.188000
     14 C13        -2.6950   -0.4230    8.0150 ca        1 DFL      0.134100
     15 C14        -1.8930   -1.5640    7.8660 ca        1 DFL     -0.188000
     16 C15        -1.0540   -1.6670    6.7610 ca        1 DFL     -0.071000
     17 O2          3.3450   -0.0230    3.7680 o         1 DFL     -0.530100
     18 O4         -3.5490   -0.2490    9.0780 oh        1 DFL     -0.494100
     19 H1         -0.5320    0.1150   -0.9990 ha        1 DFL      0.138000
     20 H2          1.9570    0.2680   -0.9700 ha        1 DFL      0.140000
     21 H3          3.1930    0.1820    1.2090 ha        1 DFL      0.156000
     22 H6         -1.8020   -0.1510    1.1460 ha        1 DFL      0.154000
     23 H81         1.0020    1.0690    5.1320 hc        1 DFL      0.089200
     24 H82         1.7600   -0.4500    5.7690 hc        1 DFL      0.089200
     25 H9          0.1550   -1.8480    4.4380 h1        1 DFL      0.061700
     26 H11        -1.7750    1.2910    5.2110 ha        1 DFL      0.142000
     27 H12        -3.2990    1.4950    7.1980 ha        1 DFL      0.145500
     28 H14        -1.9310   -2.3700    8.6120 ha        1 DFL      0.145500
     29 H15        -0.4290   -2.5650    6.6360 ha        1 DFL      0.142000
     30 HO4        -3.4820   -1.0300    9.6470 ho        1 DFL      0.421000
@<TRIPOS>BOND
     1    1    2 ar  
     2    1    6 ar  
     3    1   19 1   
     4    2    3 ar  
     5    2   20 1   
     6    3    4 ar  
     7    3   21 1   
     8    4    5 ar  
     9    4    7 1   
    10    5    6 ar  
    11    5   10 1   
    12    6   22 1   
    13    7    8 1   
    14    7   17 2   
    15    8    9 1   
    16    8   23 1   
    17    8   24 1   
    18    9   10 1   
    19    9   11 1   
    20    9   25 1   
    21   11   12 ar  
    22   11   16 ar  
    23   12   13 ar  
    24   12   26 1   
    25   13   14 ar  
    26   13   27 1   
    27   14   15 ar  
    28   14   18 1   
    29   15   16 ar  
    30   15   28 1   
    31   16   29 1   
    32   18   30 1   
@<TRIPOS>SUBSTRUCTURE
     1 DFL         1 TEMP              0 ****  ****    0 ROOT
