@<TRIPOS>MOLECULE
DFL
   30    27     1     0     0
SMALL
bcc


@<TRIPOS>ATOM
      1 C1         -0.1220   -0.9960   -3.9520 c1        1 DFL     -0.116250
      2 C2          1.1970   -0.4530   -3.8620 c1        1 DFL     -0.116250
      3 C3          1.8040   -0.2630   -2.5940 c1        1 DFL     -0.116250
      4 C4          1.1150   -0.6060   -1.4330 c1        1 DFL     -0.218000
      5 C5         -0.2330   -1.1600   -1.5230 c1        1 DFL      0.119000
      6 C6         -0.8270   -1.3460   -2.7740 c1        1 DFL     -0.116250
      7 C7          1.8860   -0.7760   -0.0840 c2        1 DFL      0.285000
      8 C8          1.2980   -1.5960    0.9070 c3        1 DFL     -0.236000
      9 C9         -0.1960   -1.4920    0.9330 c3        1 DFL      0.086000
     10 O1         -0.8670   -1.6950   -0.2610 os        1 DFL     -0.203000
     11 C10        -0.5740   -0.0350    1.4640 c2        1 DFL     -0.148000
     12 C11        -1.1610    0.1180    2.7210 c2        1 DFL     -0.082000
     13 C12        -1.4830    1.3850    3.1860 c1        1 DFL     -0.211000
     14 C13        -1.2210    2.4980    2.4020 c1        1 DFL      0.087000
     15 C14        -0.6360    2.3460    1.1520 c1        1 DFL     -0.155000
     16 C15        -0.3130    1.0760    0.6840 c1        1 DFL     -0.073000
     17 O2          3.0650   -0.4990   -0.0210 o         1 DFL     -0.290000
     18 O4         -1.5740    3.7860    2.8650 oh        1 DFL     -0.249000
     19 H1         -0.5390   -1.1270   -4.8300 ha        1 DFL      0.146750
     20 H2          1.6840   -0.2120   -4.6790 ha        1 DFL      0.146750
     21 H3          2.7060    0.1090   -2.5350 ha        1 DFL      0.146750
     22 H6         -1.7280   -1.7160   -2.8360 ha        1 DFL      0.146750
     23 H81         1.7040   -1.3710    1.7810 hc        1 DFL      0.125000
     24 H82         1.5640   -2.5350    0.8130 hc        1 DFL      0.125000
     25 H9         -0.5310   -2.1470    1.5800 h1        1 DFL      0.127000
     26 H11        -1.3460   -0.6690    3.2750 ha        1 DFL      0.132000
     27 H12        -1.8950    1.4930    4.0690 ha        1 DFL      0.136000
     28 H14        -0.4530    3.1300    0.6010 ha        1 DFL      0.154000
     29 H15         0.0950    0.9700   -0.1910 ha        1 DFL      0.148000
     30 HO4        -2.4210    3.7800    3.1430 ho        1 DFL      0.219000
@<TRIPOS>BOND
     1    1    6 1   
     2    1   19 1   
     3    2    3 1   
     4    2   20 1   
     5    3   21 1   
     6    4    5 1   
     7    4    7 1   
     8    5   10 1   
     9    6   22 1   
    10    7    8 1   
    11    7   17 1   
    12    8    9 1   
    13    8   23 1   
    14    8   24 1   
    15    9   10 1   
    16    9   11 1   
    17    9   25 1   
    18   11   12 1   
    19   11   16 1   
    20   12   13 1   
    21   12   26 1   
    22   13   27 1   
    23   14   15 1   
    24   14   18 1   
    25   15   28 1   
    26   16   29 1   
    27   18   30 1   
@<TRIPOS>SUBSTRUCTURE
     1 DFL         1 TEMP              0 ****  ****    0 ROOT
