@<TRIPOS>MOLECULE
DFM
   58    59     1     0     0
SMALL
bcc


@<TRIPOS>ATOM
      1 C1          0.0000    0.0000    0.0000 c3        1 DFM      0.356700
      2 O6         -2.4060    1.1650    0.1210 o         1 DFM     -0.285833
      3 O7         -0.4740    2.2590    1.3390 o         1 DFM     -0.285833
      4 O9         -0.5490    2.3790   -1.2830 o         1 DFM     -0.285833
      5 C11         1.4910    0.0000    0.0000 ca        1 DFM     -0.098300
      6 C12         2.1890    0.0000    1.2080 ca        1 DFM     -0.045000
      7 C13         3.5840    0.0010    1.2080 ca        1 DFM     -0.104500
      8 C14         4.2630    0.0010    0.0000 ca        1 DFM     -0.134300
      9 C15         3.5840    0.0010   -1.2080 ca        1 DFM     -0.104500
     10 C16         2.1890    0.0000   -1.2080 ca        1 DFM     -0.045000
     11 C21         5.7730    0.0020    0.0000 c3        1 DFM      0.049900
     12 C22         6.3650    1.4160    0.0000 c3        1 DFM     -0.085500
     13 C25         7.8140    1.3830    0.4600 c         1 DFM      0.017100
     14 O26         8.7670    1.1970   -0.2940 o         1 DFM     -0.581100
     15 N27         7.9530    1.6350    1.8090 nz        1 DFM      0.283600
     16 N45         6.3490    2.0150   -1.3150 ny        1 DFM      0.181200
     17 C47         5.7090    3.2140   -1.5990 c         1 DFM      0.058100
     18 C48         5.8080    3.5770   -3.0760 c3        1 DFM     -0.092500
     19 O49         5.0920    3.8940   -0.7820 o         1 DFM     -0.609100
     20 N51         4.5540    4.1810   -3.4520 ny        1 DFM      0.099200
     21 C4          6.9970    4.5150   -3.3160 c3        1 DFM      0.047900
     22 C5          7.4270    4.5550   -4.7620 ca        1 DFM     -0.159300
     23 C30         8.3820    3.6570   -5.2120 ca        1 DFM     -0.097000
     24 C31         8.7790    3.6940   -6.5480 ca        1 DFM     -0.075500
     25 C6          8.2150    4.6280   -7.4180 ca        1 DFM     -0.066000
     26 C33         7.2550    5.5250   -6.9500 ca        1 DFM     -0.075500
     27 C34         6.8580    5.4880   -5.6150 ca        1 DFM     -0.097000
     28 C67         3.4550    3.4510   -3.8700 c         1 DFM      0.380100
     29 O70         3.3930    2.2320   -3.9800 o         1 DFM     -0.431100
     30 C71         2.2620    4.2830   -4.2080 c3        1 DFM     -0.087100
     31 F66        -0.5630   -0.6180   -1.0710 f         1 DFM     -0.192800
     32 F67        -0.5690   -0.5480    1.1040 f         1 DFM     -0.192800
     33 P68        -0.8480    1.5540   -0.0670 p5        1 DFM      0.630700
     34 H12         1.6470   -0.0000    2.1460 ha        1 DFM      0.130500
     35 H16         1.6470    0.0000   -2.1460 ha        1 DFM      0.130500
     36 H13         4.1300    0.0010    2.1430 ha        1 DFM      0.104000
     37 H15         4.1250   -0.1560   -2.1330 ha        1 DFM      0.104000
     38 H211        6.1220   -0.5230    0.8810 hc        1 DFM      0.035700
     39 H212        6.1220   -0.5220   -0.8810 hc        1 DFM      0.035700
     40 H22         5.7930    2.0380    0.6780 hx        1 DFM      0.083700
     41 H45         7.3080    2.1450   -1.5720 hn        1 DFM      0.216800
     42 H271        8.9210    1.7730    2.0250 hn        1 DFM      0.199467
     43 H272        7.6030    0.8560    2.3320 hn        1 DFM      0.199467
     44 H48         5.9500    2.6720   -3.6530 hx        1 DFM      0.075700
     45 H51         4.2510    4.7060   -2.6560 hn        1 DFM      0.277800
     46 H4C1        6.7210    5.5150   -3.0060 hc        1 DFM      0.046200
     47 H4C2        7.8320    4.1800   -2.7130 hc        1 DFM      0.046200
     48 H30         8.7060    2.8450   -4.5730 ha        1 DFM      0.101000
     49 H34         6.1130    6.1820   -5.2460 ha        1 DFM      0.101000
     50 H31         9.5250    2.9970   -6.9110 ha        1 DFM      0.119000
     51 H6          8.5240    4.6570   -8.4560 ha        1 DFM      0.121000
     52 H33         6.8180    6.2510   -7.6250 ha        1 DFM      0.119000
     53 H711        1.9650    4.8570   -3.3380 hc        1 DFM      0.062033
     54 H712        2.5100    4.9580   -5.0180 hc        1 DFM      0.062033
     55 H713        1.4470    3.6380   -4.5110 hc        1 DFM      0.062033
     56 H273        7.4370    2.4580    2.0500 hn        1 DFM      0.199467
     57 H452        5.9400    1.3340   -1.9240 hn        1 DFM      0.216800
     58 H512        4.7650    4.8140   -4.1970 hn        1 DFM      0.277800
@<TRIPOS>BOND
     1    1    5 1   
     2    1   31 1   
     3    1   32 1   
     4    1   33 1   
     5    2   33 1   
     6    3   33 1   
     7    4   33 1   
     8    5    6 ar  
     9    5   10 ar  
    10    6    7 ar  
    11    6   34 1   
    12    7    8 ar  
    13    7   36 1   
    14    8    9 ar  
    15    8   11 1   
    16    9   10 ar  
    17    9   37 1   
    18   10   35 1   
    19   11   12 1   
    20   11   38 1   
    21   11   39 1   
    22   12   13 1   
    23   12   16 1   
    24   12   40 1   
    25   13   14 2   
    26   13   15 1   
    27   15   42 1   
    28   15   43 1   
    29   15   56 1   
    30   16   17 1   
    31   16   41 1   
    32   16   57 1   
    33   17   18 1   
    34   17   19 2   
    35   18   20 1   
    36   18   21 1   
    37   18   44 1   
    38   20   28 1   
    39   20   45 1   
    40   20   58 1   
    41   21   22 1   
    42   21   46 1   
    43   21   47 1   
    44   22   23 ar  
    45   22   27 ar  
    46   23   24 ar  
    47   23   48 1   
    48   24   25 ar  
    49   24   50 1   
    50   25   26 ar  
    51   25   51 1   
    52   26   27 ar  
    53   26   52 1   
    54   27   49 1   
    55   28   29 2   
    56   28   30 1   
    57   30   53 1   
    58   30   54 1   
    59   30   55 1   
@<TRIPOS>SUBSTRUCTURE
     1 DFM         1 TEMP              0 ****  ****    0 ROOT
