@<TRIPOS>MOLECULE
DFM
   55    55     1     0     0
SMALL
bcc


@<TRIPOS>ATOM
      1 C1         -2.6580    1.9130   -3.4300 c2        1 DFM     -0.097000
      2 O6         -6.3610    2.5300   -4.0370 o         1 DFM     -1.139667
      3 O7         -5.7240    0.3430   -5.1660 o         1 DFM     -1.139667
      4 O9         -5.5530    0.5550   -2.6250 o         1 DFM     -1.139667
      5 C11        -1.3870    2.0470   -2.9390 ca        1 DFM      0.045000
      6 C12        -0.3390    1.1230   -3.2790 ca        1 DFM     -0.278000
      7 C13         0.8560    1.1460   -2.6050 ca        1 DFM     -0.048500
      8 C14         1.1080    2.0820   -1.5830 ca        1 DFM     -0.352000
      9 C15         0.1550    3.0980   -1.3660 ca        1 DFM     -0.048500
     10 C16        -1.0500    3.1030   -2.0220 ca        1 DFM     -0.278000
     11 C21         2.2420    1.9110   -0.6530 c3        1 DFM     -0.060000
     12 C22         1.9740    0.7450    0.3350 c3        1 DFM     -0.001000
     13 C25         2.9130    0.8670    1.5550 c2        1 DFM      0.296000
     14 O26         3.7350    1.7990    1.6920 o         1 DFM     -0.417000
     15 N27         2.8690   -0.1410    2.4860 n         1 DFM     -0.435000
     16 N45         0.5840    0.6560    0.7400 n         1 DFM     -0.326000
     17 C47        -0.0360   -0.5740    0.8350 c2        1 DFM      0.285000
     18 C48        -1.5720   -0.7090    0.6580 c3        1 DFM      0.024000
     19 O49         0.6270   -1.5950    1.1410 o         1 DFM     -0.440000
     20 N51        -2.2270    0.4700    0.1680 n         1 DFM     -0.377000
     21 C4         -1.7940   -1.9410   -0.2520 c3        1 DFM     -0.138000
     22 C5         -3.2140   -2.3850   -0.2540 ca        1 DFM     -0.090000
     23 C30        -3.6040   -3.4810    0.5290 ca        1 DFM     -0.116500
     24 C31        -4.9280   -3.9130    0.5250 ca        1 DFM     -0.130000
     25 C6         -5.8780   -3.2510   -0.2550 ca        1 DFM     -0.156000
     26 C33        -5.4980   -2.1600   -1.0330 ca        1 DFM     -0.130000
     27 C34        -4.1680   -1.7330   -1.0410 ca        1 DFM     -0.116500
     28 C67        -3.2710    1.0790    0.8530 c2        1 DFM      0.321000
     29 O70        -3.4470    0.8630    2.0740 o         1 DFM     -0.426000
     30 C71        -4.1460    2.0110    0.0610 c3        1 DFM     -0.269000
     31 F66        -3.7560    2.6580   -3.1440 f         1 DFM     -0.142500
     32 F67        -3.1690    0.9470   -4.2330 f         1 DFM     -0.142500
     33 P68        -5.7760    1.1790   -3.9520 p3        1 DFM      2.415000
     34 H12        -0.5350    0.3950   -4.0750 ha        1 DFM      0.112500
     35 H16        -1.7910    3.8940   -1.8550 ha        1 DFM      0.112500
     36 H13         1.6340    0.4050   -2.8450 ha        1 DFM      0.083000
     37 H15         0.3820    3.8910   -0.6360 ha        1 DFM      0.083000
     38 H211        3.1900    1.6610   -1.1960 hc        1 DFM      0.076000
     39 H212        2.4240    2.8490   -0.0660 hc        1 DFM      0.076000
     40 H22         2.2650   -0.2200   -0.1860 h1        1 DFM      0.105000
     41 H45         0.0280    1.4310    0.4300 hn        1 DFM      0.257000
     42 H271        3.3960   -0.0610    3.3170 hn        1 DFM      0.223500
     43 H272        2.1830   -0.8550    2.4180 hn        1 DFM      0.223500
     44 H48        -1.9740   -0.9410    1.6920 h1        1 DFM      0.141000
     45 H51        -2.1550    0.6490   -0.8160 hn        1 DFM      0.258000
     46 H4C1       -1.1310   -2.7660    0.1210 hc        1 DFM      0.105000
     47 H4C2       -1.4760   -1.6940   -1.3010 hc        1 DFM      0.105000
     48 H30        -2.8600   -3.9990    1.1510 ha        1 DFM      0.154000
     49 H34        -3.9140   -0.8610   -1.6770 ha        1 DFM      0.154000
     50 H31        -5.2240   -4.7730    1.1410 ha        1 DFM      0.140000
     51 H6         -6.9230   -3.5880   -0.2490 ha        1 DFM      0.106000
     52 H33        -6.2210   -1.5950   -1.6490 ha        1 DFM      0.140000
     53 H711       -4.8150    2.5670    0.7570 hc        1 DFM      0.131333
     54 H712       -3.5390    2.7350   -0.5390 hc        1 DFM      0.131333
     55 H713       -4.7690    1.4150   -0.6680 hc        1 DFM      0.131333
@<TRIPOS>BOND
     1    1    5 1   
     2    1   31 1   
     3    1   32 1   
     4    2   33 1   
     5    3   33 1   
     6    4   33 1   
     7    5    6 1   
     8    5   10 1   
     9    6    7 1   
    10    6   34 1   
    11    7    8 1   
    12    7   36 1   
    13    8    9 1   
    14    8   11 1   
    15    9   10 1   
    16    9   37 1   
    17   10   35 1   
    18   11   12 1   
    19   11   38 1   
    20   11   39 1   
    21   12   13 1   
    22   12   16 1   
    23   12   40 1   
    24   13   14 1   
    25   13   15 1   
    26   15   42 1   
    27   15   43 1   
    28   16   17 1   
    29   16   41 1   
    30   17   18 1   
    31   17   19 1   
    32   18   20 1   
    33   18   21 1   
    34   18   44 1   
    35   20   28 1   
    36   20   45 1   
    37   21   22 1   
    38   21   46 1   
    39   21   47 1   
    40   22   23 1   
    41   22   27 1   
    42   23   24 1   
    43   23   48 1   
    44   24   25 1   
    45   24   50 1   
    46   25   26 1   
    47   25   51 1   
    48   26   27 1   
    49   26   52 1   
    50   27   49 1   
    51   28   29 1   
    52   28   30 1   
    53   30   53 1   
    54   30   54 1   
    55   30   55 1   
@<TRIPOS>SUBSTRUCTURE
     1 DFM         1 TEMP              0 ****  ****    0 ROOT
