@<TRIPOS>MOLECULE
DFM
   55    52     1     0     0
SMALL
bcc


@<TRIPOS>ATOM
      1 C1         -6.5580   -1.2370   -3.2330 c3        1 DFM     -0.042000
      2 O6         -7.3460    1.0580   -2.0250 o         1 DFM     -0.817500
      3 O7         -9.1580   -0.3610   -2.9130 o         1 DFM     -0.817500
      4 O9         -7.9050   -1.0190   -0.8510 o         1 DFM     -0.817500
      5 C11        -5.2040   -1.2850   -2.4830 c2        1 DFM      0.030000
      6 C12        -4.2260   -0.3480   -2.7610 c1        1 DFM     -0.260000
      7 C13        -3.0160   -0.3790   -2.0700 c1        1 DFM     -0.052000
      8 C14        -2.7930   -1.3560   -1.0960 c1        1 DFM     -0.396000
      9 C15        -3.7710   -2.2900   -0.8200 c1        1 DFM     -0.051000
     10 C16        -4.9780   -2.2610   -1.5090 c2        1 DFM     -0.265000
     11 C21        -1.3770   -1.4660   -0.3880 c3        1 DFM     -0.040000
     12 C22        -1.1970   -0.3150    0.5500 c3        1 DFM     -0.028000
     13 C25        -2.0940   -0.4940    1.7530 c2        1 DFM      0.278000
     14 O26        -1.9130   -1.4470    2.5220 o         1 DFM     -0.469000
     15 N27        -3.0470    0.4930    2.0700 n         1 DFM     -0.376000
     16 N45         0.1860   -0.2520    0.9830 n         1 DFM     -0.307000
     17 C47         0.9420    0.9880    0.8190 c2        1 DFM      0.268000
     18 C48         2.4660    0.9510    0.7850 c3        1 DFM     -0.008000
     19 O49         0.3620    2.0130    0.5630 o         1 DFM     -0.379000
     20 N51         2.9500    2.1380    0.1740 n         1 DFM     -0.348000
     21 C4          2.9930    0.8610    2.1790 c3        1 DFM     -0.146000
     22 C5          4.4000    0.2050    2.1610 c2        1 DFM     -0.047000
     23 C30         4.5240   -1.1790    2.0210 c2        1 DFM     -0.116000
     24 C31         5.8010   -1.7690    1.9720 c1        1 DFM     -0.129000
     25 C6          6.9430   -0.9680    2.0630 c1        1 DFM     -0.140000
     26 C33         6.8180    0.4170    2.2040 c1        1 DFM     -0.140000
     27 C34         5.5470    1.0050    2.2530 c1        1 DFM     -0.124000
     28 C67         3.8610    2.0600   -0.9030 c2        1 DFM      0.299000
     29 O70         4.3400    0.9610   -1.2330 o         1 DFM     -0.377000
     30 C71         4.3440    3.3440   -1.5870 c3        1 DFM     -0.243000
     31 F66        -6.3970   -0.5960   -4.4080 f         1 DFM     -0.134000
     32 F67        -6.9790   -2.4610   -3.4570 f         1 DFM     -0.134000
     33 P68        -7.7880   -0.3420   -2.2090 p5        1 DFM      1.440500
     34 H12        -4.4050    0.3690   -3.4010 ha        1 DFM      0.114000
     35 H16        -5.6600   -2.9160   -1.3130 ha        1 DFM      0.114000
     36 H13        -2.3180    0.2880   -2.2670 ha        1 DFM      0.080000
     37 H15        -3.6040   -2.9860   -0.1610 ha        1 DFM      0.077000
     38 H211       -0.6630   -1.4490   -1.0720 hc        1 DFM      0.062500
     39 H212       -1.3280   -2.3080    0.1140 hc        1 DFM      0.062500
     40 H22        -1.4330    0.5140    0.0920 h1        1 DFM      0.148000
     41 H45         0.6080   -1.0200    1.3220 hn        1 DFM      0.210000
     42 H271       -3.6890    0.3280    2.7270 hn        1 DFM      0.238500
     43 H272       -3.0520    1.2910    1.6110 hn        1 DFM      0.238500
     44 H48         2.7570    0.1910    0.2820 h1        1 DFM      0.139000
     45 H51         2.7000    2.9470    0.4980 hn        1 DFM      0.230000
     46 H4C1        3.0600    1.7880    2.5730 hc        1 DFM      0.122000
     47 H4C2        2.3790    0.3130    2.7290 hc        1 DFM      0.122000
     48 H30         3.7410   -1.7260    1.9590 ha        1 DFM      0.138000
     49 H34         5.4600    1.9850    2.3520 ha        1 DFM      0.129000
     50 H31         5.8900   -2.7250    1.7450 ha        1 DFM      0.124000
     51 H6          7.8660   -1.3940    2.0280 ha        1 DFM      0.118000
     52 H33         7.6300    0.9850    2.2690 ha        1 DFM      0.118000
     53 H711        3.6290    4.0250   -1.5500 hc        1 DFM      0.100667
     54 H712        4.5700    3.1520   -2.5350 hc        1 DFM      0.100667
     55 H713        5.1330    3.6780   -1.1280 hc        1 DFM      0.100667
@<TRIPOS>BOND
     1    1    5 1   
     2    1   31 1   
     3    1   32 1   
     4    1   33 1   
     5    2   33 1   
     6    3   33 1   
     7    4   33 1   
     8    5    6 1   
     9    5   10 1   
    10    6   34 1   
    11    7    8 1   
    12    7   36 1   
    13    8   11 1   
    14    9   10 1   
    15    9   37 1   
    16   10   35 1   
    17   11   12 1   
    18   11   38 1   
    19   11   39 1   
    20   12   13 1   
    21   12   16 1   
    22   12   40 1   
    23   13   14 1   
    24   13   15 1   
    25   15   42 1   
    26   15   43 1   
    27   16   17 1   
    28   16   41 1   
    29   17   18 1   
    30   17   19 1   
    31   18   20 1   
    32   18   21 1   
    33   18   44 1   
    34   20   28 1   
    35   20   45 1   
    36   21   22 1   
    37   21   46 1   
    38   21   47 1   
    39   22   23 1   
    40   22   27 1   
    41   23   24 1   
    42   23   48 1   
    43   24   50 1   
    44   25   26 1   
    45   25   51 1   
    46   26   52 1   
    47   27   49 1   
    48   28   29 1   
    49   28   30 1   
    50   30   53 1   
    51   30   54 1   
    52   30   55 1   
@<TRIPOS>SUBSTRUCTURE
     1 DFM         1 TEMP              0 ****  ****    0 ROOT
