@<TRIPOS>MOLECULE
DFN
   50    53     1     0     0
SMALL
bcc


@<TRIPOS>ATOM
      1 C28         0.2990   -0.5670   -0.9790 c3        1 DFN      0.024600
      2 N22         1.6880   -0.3420   -0.7530 na        1 DFN     -0.061400
      3 C48         2.3940   -0.6740    0.3950 cc        1 DFN     -0.044100
      4 C21         2.5580    0.3410   -1.6220 ca        1 DFN     -0.072200
      5 C24         2.3320    0.8680   -2.9010 ca        1 DFN     -0.114000
      6 C31         3.3880    1.4780   -3.5530 ca        1 DFN     -0.149000
      7 C29         4.6640    1.5670   -2.9400 ca        1 DFN      0.105900
      8 F39         5.6710    2.1730   -3.6180 f         1 DFN     -0.141900
      9 C20         3.8540    0.4310   -0.9870 ca        1 DFN     -0.034800
     10 C23         4.9050    1.0490   -1.6610 ca        1 DFN     -0.113000
     11 C19         3.7270   -0.2260    0.3030 cd        1 DFN     -0.130200
     12 C01         4.7000   -0.4120    1.3220 cd        1 DFN     -0.014200
     13 C02         4.8060   -1.4140    2.2520 cc        1 DFN     -0.106400
     14 C03         5.9550   -1.0830    3.1840 c         1 DFN      0.706700
     15 O06         6.3660   -1.7010    4.1680 o         1 DFN     -0.570500
     16 N04         6.5140    0.1310    2.7240 n         1 DFN     -0.630500
     17 C05         5.8070    0.5980    1.5940 c         1 DFN      0.701700
     18 O07         6.0850    1.6410    1.0010 o         1 DFN     -0.566500
     19 C08         4.0470   -2.6330    2.4150 ca        1 DFN     -0.020800
     20 C09         3.7710   -3.1170    3.6960 ca        1 DFN     -0.151000
     21 C10         3.0340   -4.3130    3.8770 ca        1 DFN      0.140600
     22 C11         2.6140   -5.0240    2.7310 ca        1 DFN     -0.176000
     23 C12         2.9080   -4.5390    1.4590 ca        1 DFN     -0.106000
     24 C13         3.6110   -3.3520    1.2900 ca        1 DFN     -0.157000
     25 N15         2.6690   -4.7070    5.1760 nh        1 DFN     -0.716600
     26 C26         2.3600   -6.1030    5.3910 c3        1 DFN      0.185800
     27 C34         2.2880   -6.4660    6.8850 c3        1 DFN      0.133100
     28 O41         3.5840   -6.2720    7.4270 oh        1 DFN     -0.605800
     29 C40         1.8560   -7.9300    7.0260 c3        1 DFN      0.092400
     30 O45         1.8390   -8.1970    8.4200 oh        1 DFN     -0.609800
     31 H281        0.1420   -0.9350   -2.0290 h1        1 DFN      0.056033
     32 H282       -0.0830   -1.3350   -0.2550 h1        1 DFN      0.056033
     33 H283       -0.2800    0.3870   -0.8410 h1        1 DFN      0.056033
     34 H48         1.9210   -1.2200    1.2170 h4        1 DFN      0.185000
     35 H24         1.3430    0.7990   -3.3740 ha        1 DFN      0.138000
     36 H31         3.2520    1.9050   -4.5580 ha        1 DFN      0.149000
     37 H23         5.8980    1.1500   -1.1970 ha        1 DFN      0.173000
     38 H04         7.2890    0.5870    3.1320 hn        1 DFN      0.349500
     39 H09         4.1500   -2.5630    4.5720 ha        1 DFN      0.155000
     40 H11         2.0530   -5.9640    2.8290 ha        1 DFN      0.132000
     41 H12         2.5810   -5.1090    0.5760 ha        1 DFN      0.132000
     42 H13         3.8390   -2.9770    0.2810 ha        1 DFN      0.144000
     43 H15         3.2800   -4.3400    5.8820 hn        1 DFN      0.412800
     44 H261        3.1140   -6.7820    4.8960 h1        1 DFN      0.046700
     45 H262        1.3480   -6.3100    4.9370 h1        1 DFN      0.046700
     46 H34         1.5540   -5.8070    7.4270 h1        1 DFN      0.061700
     47 H41         3.5550   -6.5960    8.3370 ho        1 DFN      0.425000
     48 H401        2.5890   -8.6060    6.5110 h1        1 DFN      0.037700
     49 H402        0.8330   -8.0790    6.5920 h1        1 DFN      0.037700
     50 H45         1.6640   -9.1390    8.5220 ho        1 DFN      0.411000
@<TRIPOS>BOND
     1    1    2 1   
     2    1   31 1   
     3    1   32 1   
     4    1   33 1   
     5    2    3 1   
     6    2    4 1   
     7    3   11 2   
     8    3   34 1   
     9    4    5 ar  
    10    4    9 ar  
    11    5    6 ar  
    12    5   35 1   
    13    6    7 ar  
    14    6   36 1   
    15    7    8 1   
    16    7   10 ar  
    17    9   10 ar  
    18    9   11 1   
    19   10   37 1   
    20   11   12 1   
    21   12   13 2   
    22   12   17 1   
    23   13   14 1   
    24   13   19 1   
    25   14   15 2   
    26   14   16 1   
    27   16   17 1   
    28   16   38 1   
    29   17   18 2   
    30   19   20 ar  
    31   19   24 ar  
    32   20   21 ar  
    33   20   39 1   
    34   21   22 ar  
    35   21   25 1   
    36   22   23 ar  
    37   22   40 1   
    38   23   24 ar  
    39   23   41 1   
    40   24   42 1   
    41   25   26 1   
    42   25   43 1   
    43   26   27 1   
    44   26   44 1   
    45   26   45 1   
    46   27   28 1   
    47   27   29 1   
    48   27   46 1   
    49   28   47 1   
    50   29   30 1   
    51   29   48 1   
    52   29   49 1   
    53   30   50 1   
@<TRIPOS>SUBSTRUCTURE
     1 DFN         1 TEMP              0 ****  ****    0 ROOT
