@<TRIPOS>MOLECULE
DFN
   50    53     1     0     0
SMALL
bcc


@<TRIPOS>ATOM
      1 C28         0.3130   -0.5950   -1.0110 c3        1 DFN      0.024600
      2 N22         1.7010   -0.3630   -0.7760 na        1 DFN     -0.061400
      3 C48         2.3990   -0.6870    0.3780 cc        1 DFN     -0.044100
      4 C21         2.5740    0.3190   -1.6420 ca        1 DFN     -0.072200
      5 C24         2.3550    0.8380   -2.9260 ca        1 DFN     -0.114000
      6 C31         3.4140    1.4490   -3.5740 ca        1 DFN     -0.149000
      7 C29         4.6850    1.5460   -2.9520 ca        1 DFN      0.105900
      8 F39         5.6940    2.1510   -3.6260 f         1 DFN     -0.141900
      9 C20         3.8650    0.4170   -0.9990 ca        1 DFN     -0.034800
     10 C23         4.9180    1.0350   -1.6690 ca        1 DFN     -0.113000
     11 C19         3.7310   -0.2340    0.2930 cd        1 DFN     -0.130200
     12 C01         4.6970   -0.4110    1.3210 cd        1 DFN     -0.014200
     13 C02         4.8010   -1.4070    2.2570 cc        1 DFN     -0.106400
     14 C03         5.9410   -1.0670    3.1960 c         1 DFN      0.706700
     15 O06         6.3480   -1.6790    4.1860 o         1 DFN     -0.570500
     16 N04         6.4990    0.1460    2.7330 ns        1 DFN     -0.630500
     17 C05         5.7990    0.6050    1.5960 c         1 DFN      0.701700
     18 O07         6.0770    1.6460    0.9980 o         1 DFN     -0.566500
     19 C08         4.0440   -2.6290    2.4210 ca        1 DFN     -0.020800
     20 C09         3.7610   -3.1070    3.7030 ca        1 DFN     -0.151000
     21 C10         3.0280   -4.3050    3.8850 ca        1 DFN      0.140600
     22 C11         2.6190   -5.0230    2.7400 ca        1 DFN     -0.176000
     23 C12         2.9210   -4.5440    1.4680 ca        1 DFN     -0.106000
     24 C13         3.6200   -3.3560    1.2970 ca        1 DFN     -0.157000
     25 N15         2.6550   -4.6930    5.1830 nu        1 DFN     -0.716600
     26 C26         2.3500   -6.0890    5.4040 c3        1 DFN      0.185800
     27 C34         2.2690   -6.4440    6.8990 c3        1 DFN      0.133100
     28 O41         3.5610   -6.2410    7.4500 oh        1 DFN     -0.605800
     29 C40         1.8420   -7.9090    7.0460 c3        1 DFN      0.092400
     30 O45         1.8150   -8.1680    8.4410 oh        1 DFN     -0.609800
     31 H281       -0.0700   -1.3620   -0.2880 h1        1 DFN      0.056033
     32 H282        0.1650   -0.9650   -2.0610 h1        1 DFN      0.056033
     33 H283       -0.2700    0.3580   -0.8790 h1        1 DFN      0.056033
     34 H48         1.9220   -1.2300    1.2000 h4        1 DFN      0.185000
     35 H24         1.3690    0.7630   -3.4050 ha        1 DFN      0.138000
     36 H31         3.2840    1.8700   -4.5820 ha        1 DFN      0.149000
     37 H23         5.9070    1.1420   -1.1980 ha        1 DFN      0.173000
     38 H04         7.2690    0.6070    3.1440 hn        1 DFN      0.349500
     39 H09         4.1310   -2.5460    4.5780 ha        1 DFN      0.155000
     40 H11         2.0610   -5.9650    2.8390 ha        1 DFN      0.132000
     41 H12         2.6020   -5.1200    0.5850 ha        1 DFN      0.132000
     42 H13         3.8540   -2.9850    0.2870 ha        1 DFN      0.144000
     43 H15         3.2600   -4.3190    5.8920 hn        1 DFN      0.412800
     44 H261        1.3430   -6.3030    4.9440 h1        1 DFN      0.046700
     45 H262        3.1110   -6.7670    4.9180 h1        1 DFN      0.046700
     46 H34         1.5280   -5.7850    7.4330 h1        1 DFN      0.061700
     47 H41         3.5260   -6.5600    8.3620 ho        1 DFN      0.425000
     48 H401        0.8240   -8.0650    6.6040 h1        1 DFN      0.037700
     49 H402        2.5820   -8.5850    6.5400 h1        1 DFN      0.037700
     50 H45         1.6440   -9.1100    8.5470 ho        1 DFN      0.411000
@<TRIPOS>BOND
     1    1    2 1   
     2    1   31 1   
     3    1   32 1   
     4    1   33 1   
     5    2    3 1   
     6    2    4 1   
     7    3   11 2   
     8    3   34 1   
     9    4    5 ar  
    10    4    9 ar  
    11    5    6 ar  
    12    5   35 1   
    13    6    7 ar  
    14    6   36 1   
    15    7    8 1   
    16    7   10 ar  
    17    9   10 ar  
    18    9   11 1   
    19   10   37 1   
    20   11   12 1   
    21   12   13 2   
    22   12   17 1   
    23   13   14 1   
    24   13   19 1   
    25   14   15 2   
    26   14   16 1   
    27   16   17 1   
    28   16   38 1   
    29   17   18 2   
    30   19   20 ar  
    31   19   24 ar  
    32   20   21 ar  
    33   20   39 1   
    34   21   22 ar  
    35   21   25 1   
    36   22   23 ar  
    37   22   40 1   
    38   23   24 ar  
    39   23   41 1   
    40   24   42 1   
    41   25   26 1   
    42   25   43 1   
    43   26   27 1   
    44   26   44 1   
    45   26   45 1   
    46   27   28 1   
    47   27   29 1   
    48   27   46 1   
    49   28   47 1   
    50   29   30 1   
    51   29   48 1   
    52   29   49 1   
    53   30   50 1   
@<TRIPOS>SUBSTRUCTURE
     1 DFN         1 TEMP              0 ****  ****    0 ROOT
