@<TRIPOS>MOLECULE
DFN
   51    54     1     0     0
SMALL
bcc


@<TRIPOS>ATOM
      1 C28         0.3320   -1.0100   -1.3680 c3        1 DFN      0.014600
      2 N22         1.6490   -0.6570   -0.9420 na        1 DFN     -0.039400
      3 C48         2.2270   -0.9750    0.2710 cc        1 DFN     -0.043100
      4 C21         2.5220    0.2080   -1.6350 ca        1 DFN     -0.080200
      5 C24         2.3980    0.7940   -2.9030 ca        1 DFN     -0.100000
      6 C31         3.4320    1.5940   -3.3550 ca        1 DFN     -0.140000
      7 C29         4.5840    1.8140   -2.5550 ca        1 DFN      0.131900
      8 F39         5.5720    2.6020   -3.0380 f         1 DFN     -0.126900
      9 C20         3.6870    0.4300   -0.8120 ca        1 DFN     -0.028800
     10 C23         4.7190    1.2370   -1.2850 ca        1 DFN     -0.123000
     11 C19         3.4840   -0.3420    0.4050 cd        1 DFN     -0.166200
     12 C01         4.3250   -0.4330    1.5380 cd        1 DFN      0.063800
     13 C02         4.5590   -1.4740    2.4050 cc        1 DFN     -0.201400
     14 C03         5.4580   -0.9780    3.5180 c         1 DFN      0.720700
     15 O06         5.8630   -1.5970    4.5090 o         1 DFN     -0.606500
     16 N04         5.7600    0.3650    3.2380 n         1 DFN     -0.612500
     17 C05         5.1230    0.7730    2.0430 c         1 DFN      0.691700
     18 O07         5.2170    1.8990    1.5600 o         1 DFN     -0.521500
     19 C08         4.1630   -2.8590    2.3450 ca        1 DFN      0.020200
     20 C09         4.1060   -3.6240    3.5210 ca        1 DFN     -0.101000
     21 C10         3.8080   -4.9920    3.4490 ca        1 DFN     -0.056400
     22 C11         3.5280   -5.6130    2.2190 ca        1 DFN     -0.109000
     23 C12         3.5750   -4.8410    1.0600 ca        1 DFN     -0.106000
     24 C13         3.8920   -3.4860    1.1150 ca        1 DFN     -0.085000
     25 N15         3.8280   -5.7890    4.6790 n4        1 DFN     -0.621400
     26 C26         2.6200   -5.5600    5.5290 c3        1 DFN      0.102800
     27 C34         2.6370   -6.4500    6.7840 c3        1 DFN      0.122100
     28 O41         2.8610   -7.7760    6.3340 oh        1 DFN     -0.635800
     29 C40         1.2960   -6.3180    7.5160 c3        1 DFN      0.102400
     30 O45         1.3630   -7.2680    8.5640 oh        1 DFN     -0.604800
     31 H281       -0.3710   -0.1450   -1.2180 h1        1 DFN      0.064700
     32 H282       -0.0350   -1.8890   -0.7770 h1        1 DFN      0.064700
     33 H283        0.3510   -1.2760   -2.4600 h1        1 DFN      0.064700
     34 H48         1.7140   -1.6200    0.9910 h4        1 DFN      0.171000
     35 H24         1.5050    0.6260   -3.5220 ha        1 DFN      0.148000
     36 H31         3.3740    2.0760   -4.3440 ha        1 DFN      0.163000
     37 H23         5.6100    1.4420   -0.6730 ha        1 DFN      0.171000
     38 H04         6.3560    0.9380    3.7820 hn        1 DFN      0.363500
     39 H09         4.3290   -3.1400    4.4900 ha        1 DFN      0.181000
     40 H11         3.2890   -6.6860    2.1530 ha        1 DFN      0.158000
     41 H12         3.3700   -5.3170    0.0860 ha        1 DFN      0.168000
     42 H13         3.9470   -2.8940    0.1840 ha        1 DFN      0.177000
     43 H15         3.8720   -6.7930    4.4460 hn        1 DFN      0.467300
     44 H261        2.5940   -4.4760    5.8320 hx        1 DFN      0.111700
     45 H262        1.7130   -5.7950    4.9030 hx        1 DFN      0.111700
     46 H34         3.4750   -6.1530    7.4770 h1        1 DFN      0.076700
     47 H41         2.6170   -8.3780    7.0550 ho        1 DFN      0.470000
     48 H401        1.1780   -5.2810    7.9260 h1        1 DFN      0.050700
     49 H402        0.4430   -6.5580    6.8280 h1        1 DFN      0.050700
     50 H45         0.5320   -7.2150    9.0540 ho        1 DFN      0.438000
     51 H152        4.6710   -5.5480    5.2170 hn        1 DFN      0.467300
@<TRIPOS>BOND
     1    1    2 1   
     2    1   31 1   
     3    1   32 1   
     4    1   33 1   
     5    2    3 1   
     6    2    4 1   
     7    3   11 2   
     8    3   34 1   
     9    4    5 ar  
    10    4    9 ar  
    11    5    6 ar  
    12    5   35 1   
    13    6    7 ar  
    14    6   36 1   
    15    7    8 1   
    16    7   10 ar  
    17    9   10 ar  
    18    9   11 1   
    19   10   37 1   
    20   11   12 1   
    21   12   13 2   
    22   12   17 1   
    23   13   14 1   
    24   13   19 1   
    25   14   15 2   
    26   14   16 1   
    27   16   17 1   
    28   16   38 1   
    29   17   18 2   
    30   19   20 ar  
    31   19   24 ar  
    32   20   21 ar  
    33   20   39 1   
    34   21   22 ar  
    35   21   25 1   
    36   22   23 ar  
    37   22   40 1   
    38   23   24 ar  
    39   23   41 1   
    40   24   42 1   
    41   25   26 1   
    42   25   43 1   
    43   25   51 1   
    44   26   27 1   
    45   26   44 1   
    46   26   45 1   
    47   27   28 1   
    48   27   29 1   
    49   27   46 1   
    50   28   47 1   
    51   29   30 1   
    52   29   48 1   
    53   29   49 1   
    54   30   50 1   
@<TRIPOS>SUBSTRUCTURE
     1 DFN         1 TEMP              0 ****  ****    0 ROOT
