@<TRIPOS>MOLECULE
DFN
   50    53     1     0     0
SMALL
bcc


@<TRIPOS>ATOM
      1 C28        -2.4740    3.5140   -1.8000 c3        1 DFN      0.024600
      2 N22        -2.7060    2.2580   -1.1660 na        1 DFN     -0.060400
      3 C48        -1.7810    1.2350   -1.0150 cc        1 DFN     -0.043100
      4 C21        -3.9420    1.8100   -0.6660 ca        1 DFN     -0.072200
      5 C24        -5.1770    2.4690   -0.5800 ca        1 DFN     -0.114000
      6 C31        -6.2410    1.7920   -0.0110 ca        1 DFN     -0.149000
      7 C29        -6.0830    0.4670    0.4690 ca        1 DFN      0.105900
      8 F39        -7.1530   -0.1570    1.0210 f         1 DFN     -0.141900
      9 C20        -3.7730    0.4570   -0.1840 ca        1 DFN     -0.034800
     10 C23        -4.8570   -0.2060    0.3860 ca        1 DFN     -0.114000
     11 C19        -2.3810    0.1100   -0.4170 cd        1 DFN     -0.131200
     12 C01        -1.6920   -1.1000   -0.1340 cd        1 DFN     -0.012200
     13 C02        -0.3650   -1.2990    0.1490 cc        1 DFN     -0.108400
     14 C03        -0.1150   -2.7900    0.2610 c         1 DFN      0.706700
     15 O06         0.9400   -3.3910    0.4760 o         1 DFN     -0.573500
     16 N04        -1.3610   -3.4260    0.0580 n         1 DFN     -0.630500
     17 C05        -2.3680   -2.4650   -0.1840 c         1 DFN      0.701700
     18 O07        -3.5460   -2.7530   -0.4000 o         1 DFN     -0.565500
     19 C08         0.7070   -0.3520    0.3570 ca        1 DFN     -0.019800
     20 C09         1.9930   -0.6450   -0.1050 ca        1 DFN     -0.156000
     21 C10         3.0600    0.2640    0.0990 ca        1 DFN      0.141600
     22 C11         2.8010    1.4600    0.8040 ca        1 DFN     -0.175000
     23 C12         1.5190    1.7340    1.2700 ca        1 DFN     -0.106000
     24 C13         0.4710    0.8470    1.0490 ca        1 DFN     -0.158000
     25 N15         4.3150   -0.0030   -0.4720 nh        1 DFN     -0.722600
     26 C26         5.4760    0.5970    0.1420 c3        1 DFN      0.152800
     27 C34         6.7900   -0.0750   -0.2950 c3        1 DFN      0.125100
     28 O41         6.8000   -1.4570    0.0080 oh        1 DFN     -0.592800
     29 C40         7.9780    0.6210    0.3800 c3        1 DFN      0.098400
     30 O45         8.0430    1.9370   -0.1380 oh        1 DFN     -0.596800
     31 H281       -2.9210    3.5200   -2.8320 h1        1 DFN      0.056367
     32 H282       -2.9480    4.3340   -1.1970 h1        1 DFN      0.056367
     33 H283       -1.3700    3.7000   -1.8770 h1        1 DFN      0.056367
     34 H48        -0.7400    1.3570   -1.3300 h4        1 DFN      0.185000
     35 H24        -5.2970    3.4960   -0.9530 ha        1 DFN      0.138000
     36 H31        -7.2260    2.2730    0.0750 ha        1 DFN      0.149000
     37 H23        -4.7650   -1.2420    0.7460 ha        1 DFN      0.173000
     38 H04        -1.5080   -4.4020    0.0830 hn        1 DFN      0.348500
     39 H09         2.1720   -1.6050   -0.6180 ha        1 DFN      0.153000
     40 H11         3.6070    2.1860    0.9880 ha        1 DFN      0.137000
     41 H12         1.3340    2.6670    1.8240 ha        1 DFN      0.132000
     42 H13        -0.5390    1.0720    1.4210 ha        1 DFN      0.144000
     43 H15         4.4500   -0.9690   -0.7010 hn        1 DFN      0.408800
     44 H261        5.5280    1.6800   -0.1700 h1        1 DFN      0.051700
     45 H262        5.4150    0.5650    1.2700 h1        1 DFN      0.051700
     46 H34         6.9070   -0.0310   -1.4150 h1        1 DFN      0.104700
     47 H41         6.6870   -1.5480    0.9620 ho        1 DFN      0.401000
     48 H401        7.8350    0.6550    1.4930 h1        1 DFN      0.033200
     49 H402        8.9180    0.0530    0.1490 h1        1 DFN      0.033200
     50 H45         8.8790    2.3110    0.1650 ho        1 DFN      0.407000
@<TRIPOS>BOND
     1    1    2 1   
     2    1   31 1   
     3    1   32 1   
     4    1   33 1   
     5    2    3 1   
     6    2    4 1   
     7    3   11 2   
     8    3   34 1   
     9    4    5 ar  
    10    4    9 ar  
    11    5    6 ar  
    12    5   35 1   
    13    6    7 ar  
    14    6   36 1   
    15    7    8 1   
    16    7   10 ar  
    17    9   10 ar  
    18    9   11 1   
    19   10   37 1   
    20   11   12 1   
    21   12   13 2   
    22   12   17 1   
    23   13   14 1   
    24   13   19 1   
    25   14   15 2   
    26   14   16 1   
    27   16   17 1   
    28   16   38 1   
    29   17   18 2   
    30   19   20 ar  
    31   19   24 ar  
    32   20   21 ar  
    33   20   39 1   
    34   21   22 ar  
    35   21   25 1   
    36   22   23 ar  
    37   22   40 1   
    38   23   24 ar  
    39   23   41 1   
    40   24   42 1   
    41   25   26 1   
    42   25   43 1   
    43   26   27 1   
    44   26   44 1   
    45   26   45 1   
    46   27   28 1   
    47   27   29 1   
    48   27   46 1   
    49   28   47 1   
    50   29   30 1   
    51   29   48 1   
    52   29   49 1   
    53   30   50 1   
@<TRIPOS>SUBSTRUCTURE
     1 DFN         1 TEMP              0 ****  ****    0 ROOT
