@<TRIPOS>MOLECULE
DFN
   50    44     1     0     0
SMALL
bcc


@<TRIPOS>ATOM
      1 C28        -3.4250    2.5480   -2.5350 c3        1 DFN     -0.074000
      2 N22        -2.0120    2.4640   -2.5100 n3        1 DFN     -0.153000
      3 C48        -1.3370    2.4780   -1.3390 c1        1 DFN     -0.017000
      4 C21        -1.0610    2.4880   -3.5690 c1        1 DFN     -0.027000
      5 C24        -1.2140    2.4580   -5.0000 c1        1 DFN     -0.114000
      6 C31        -0.1080    2.4590   -5.8140 c1        1 DFN     -0.149000
      7 C29         1.1930    2.4900   -5.2450 c1        1 DFN      0.071000
      8 F39         2.3060    2.5560   -6.0640 f         1 DFN     -0.107000
      9 C20         0.1790    2.5170   -3.0220 c1        1 DFN     -0.023000
     10 C23         1.3450    2.5180   -3.8770 c2        1 DFN     -0.113000
     11 C19         0.0320    2.5110   -1.6290 c1        1 DFN     -0.142000
     12 C01         0.8620    2.5200   -0.3100 c1        1 DFN      0.005000
     13 C02         1.6740    1.4920   -0.0180 c1        1 DFN     -0.099000
     14 C03         2.7870    1.8530    0.8150 c1        1 DFN      0.345000
     15 O06         3.6930    1.1100    1.2440 o         1 DFN     -0.295000
     16 N04         2.6180    3.4060    1.0480 n         1 DFN     -0.410000
     17 C05         1.2770    3.7710    0.2570 c2        1 DFN      0.340000
     18 O07         0.9720    4.8970   -0.1780 o         1 DFN     -0.291000
     19 C08         1.1380    0.1140    0.0160 c2        1 DFN     -0.009000
     20 C09         0.5980   -0.3710    1.1680 c2        1 DFN     -0.151000
     21 C10         0.2160   -1.7420    1.2510 c1        1 DFN      0.059000
     22 C11         0.3910   -2.5630    0.1830 c1        1 DFN     -0.141000
     23 C12         0.9520   -2.0600   -1.0130 c1        1 DFN     -0.141000
     24 C13         1.3200   -0.7480   -1.0980 c1        1 DFN     -0.157000
     25 N15        -0.4820   -2.2300    2.4210 n3        1 DFN     -0.272000
     26 C26        -0.1130   -3.5100    3.0000 c3        1 DFN     -0.051000
     27 C34        -0.8020   -3.6650    4.3830 c3        1 DFN      0.022000
     28 O41        -0.4750   -2.5720    5.1840 oh        1 DFN     -0.333000
     29 C40        -0.3360   -4.9220    5.0390 c3        1 DFN     -0.058000
     30 O45        -1.0370   -5.1160    6.2650 oh        1 DFN     -0.337000
     31 H281       -3.8170    1.6800   -2.9510 h1        1 DFN      0.095333
     32 H282       -3.6990    3.3280   -3.0790 h1        1 DFN      0.095333
     33 H283       -3.7650    2.6540   -1.6150 h1        1 DFN      0.095333
     34 H48        -1.7250    2.3780   -0.4660 DU        1 DFN      0.185000
     35 H24        -2.1110    2.4350   -5.3950 ha        1 DFN      0.138000
     36 H31        -0.2180    2.4840   -6.7830 ha        1 DFN      0.149000
     37 H23         2.1870    2.5420   -3.5090 ha        1 DFN      0.173000
     38 H04         3.0210    3.9340    1.7900 hn        1 DFN      0.263000
     39 H09         0.4820    0.1700    1.8730 ha        1 DFN      0.155000
     40 H11         0.1160   -3.5490    0.2450 ha        1 DFN      0.132000
     41 H12         1.0810   -2.6650   -1.7990 ha        1 DFN      0.132000
     42 H13         1.6710   -0.4370   -1.8490 ha        1 DFN      0.144000
     43 H15        -1.2550   -1.7590    2.7540 hn        1 DFN      0.208000
     44 H261        0.8440   -3.5480    3.1120 h1        1 DFN      0.086000
     45 H262       -0.3980   -4.2280    2.4070 h1        1 DFN      0.086000
     46 H34        -1.7930   -3.7030    4.2580 h1        1 DFN      0.101000
     47 H41        -1.1340   -2.3770    5.6750 ho        1 DFN      0.224000
     48 H401        0.6840   -4.8530    5.2300 h1        1 DFN      0.077000
     49 H402       -0.5130   -5.7050    4.4270 h1        1 DFN      0.077000
     50 H45        -0.8070   -5.9320    6.6190 ho        1 DFN      0.210000
@<TRIPOS>BOND
     1    1    2 1   
     2    1   31 1   
     3    1   32 1   
     4    1   33 1   
     5    2    3 1   
     6    2    4 1   
     7    3   11 1   
     8    4    5 1   
     9    5   35 1   
    10    6    7 1   
    11    6   36 1   
    12    7   10 1   
    13    9   10 1   
    14   10   37 1   
    15   12   13 1   
    16   12   17 1   
    17   13   19 1   
    18   14   15 1   
    19   14   16 1   
    20   16   17 1   
    21   16   38 1   
    22   17   18 1   
    23   19   20 1   
    24   19   24 1   
    25   20   21 1   
    26   20   39 1   
    27   21   25 1   
    28   22   23 1   
    29   22   40 1   
    30   23   41 1   
    31   24   42 1   
    32   25   26 1   
    33   25   43 1   
    34   26   27 1   
    35   26   44 1   
    36   26   45 1   
    37   27   28 1   
    38   27   29 1   
    39   27   46 1   
    40   28   47 1   
    41   29   30 1   
    42   29   48 1   
    43   29   49 1   
    44   30   50 1   
@<TRIPOS>SUBSTRUCTURE
     1 DFN         1 TEMP              0 ****  ****    0 ROOT
