@<TRIPOS>MOLECULE
DFO
   29    28     1     0     0
SMALL
bcc


@<TRIPOS>ATOM
      1 N           1.8680    0.3780    1.2060 n3        1 DFO     -0.905800
      2 CA          0.5040   -0.1030    1.1350 c3        1 DFO      0.187500
      3 CB         -0.3620    0.3910    2.3010 c3        1 DFO     -0.061400
      4 CG          0.0780   -0.1510    3.6520 c3        1 DFO     -0.067700
      5 CD1        -0.5410    0.6740    4.7630 c3        1 DFO     -0.085600
      6 CD2        -0.3070   -1.6070    3.8140 c3        1 DFO     -0.085600
      7 CH         -0.2170    0.2710   -0.2050 c3        1 DFO      0.290600
      8 OH1        -1.4740   -0.3570   -0.1830 oh        1 DFO     -0.641800
      9 OH2        -0.4570    1.6560   -0.2120 oh        1 DFO     -0.641800
     10 CM          0.6150   -0.1400   -1.4920 c3        1 DFO      0.195600
     11 F1          1.6990    0.7070   -1.6450 f         1 DFO     -0.259300
     12 F2          1.2360   -1.3560   -1.3120 f         1 DFO     -0.259300
     13 C          -0.3120   -0.0920   -2.7930 c         1 DFO      0.919600
     14 O          -1.2640    0.7360   -2.7250 o         1 DFO     -0.791800
     15 OXT        -0.0300   -0.8490   -3.7400 o         1 DFO     -0.791800
     16 H           1.8810    1.3740    1.0870 hn        1 DFO      0.353300
     17 H2          2.4060   -0.0330    0.4650 hn        1 DFO      0.353300
     18 HA          0.5360   -1.2320    1.1550 h1        1 DFO      0.070700
     19 HB2        -1.4190    0.0770    2.0940 hc        1 DFO      0.056700
     20 HB3        -0.3450    1.5130    2.3180 hc        1 DFO      0.056700
     21 HG          1.1980   -0.0690    3.7340 hc        1 DFO      0.061700
     22 HD11       -0.2410    0.2730    5.7610 hc        1 DFO      0.025367
     23 HD12       -0.2040    1.7370    4.6920 hc        1 DFO      0.025367
     24 HD13       -1.6550    0.6520    4.6930 hc        1 DFO      0.025367
     25 HD21       -1.4140   -1.7320    3.7330 hc        1 DFO      0.025367
     26 HD22        0.1760   -2.2290    3.0230 hc        1 DFO      0.025367
     27 HD23        0.0200   -1.9860    4.8130 hc        1 DFO      0.025367
     28 HH1        -1.9520   -0.1120   -0.9920 ho        1 DFO      0.448000
     29 HH2        -0.7990    1.8910   -1.0910 ho        1 DFO      0.448000
@<TRIPOS>BOND
     1    1    2 1   
     2    1   16 1   
     3    1   17 1   
     4    2    3 1   
     5    2    7 1   
     6    2   18 1   
     7    3    4 1   
     8    3   19 1   
     9    3   20 1   
    10    4    5 1   
    11    4    6 1   
    12    4   21 1   
    13    5   22 1   
    14    5   23 1   
    15    5   24 1   
    16    6   25 1   
    17    6   26 1   
    18    6   27 1   
    19    7    8 1   
    20    7    9 1   
    21    7   10 1   
    22    8   28 1   
    23    9   29 1   
    24   10   11 1   
    25   10   12 1   
    26   10   13 1   
    27   13   14 1   
    28   13   15 1   
@<TRIPOS>SUBSTRUCTURE
     1 DFO         1 TEMP              0 ****  ****    0 ROOT
