@<TRIPOS>MOLECULE
DFP
   25    24     1     0     0
SMALL
bcc


@<TRIPOS>ATOM
      1 C1          0.7210   -1.1090   -0.3110 c3        1 DFP      0.176100
      2 C2         -0.5230   -1.9800   -0.2470 c3        1 DFP     -0.108600
      3 C3          1.1070   -0.6320    1.0790 c3        1 DFP     -0.108600
      4 C1'         4.3380    0.3750   -1.8360 c3        1 DFP      0.176100
      5 C2'         4.7310    0.8540   -0.4480 c3        1 DFP     -0.108600
      6 C3'         5.5160    0.4950   -2.7920 c3        1 DFP     -0.108600
      7 P           2.4840   -1.4170   -2.2050 p5        1 DFP      1.491500
      8 O1P         1.7880   -1.8830   -0.8390 os        1 DFP     -0.584200
      9 O2P         3.9610   -0.9920   -1.7550 os        1 DFP     -0.584200
     10 O3P         1.7580   -0.3550   -2.8930 o         1 DFP     -0.828300
     11 H1          0.5400   -0.2260   -0.9940 h1        1 DFP      0.070700
     12 H21        -1.3470   -1.4130    0.2490 hc        1 DFP      0.045533
     13 H22        -0.8540   -2.2730   -1.2710 hc        1 DFP      0.045533
     14 H23        -0.3130   -2.9080    0.3380 hc        1 DFP      0.045533
     15 H31         0.2530   -0.0740    1.5300 hc        1 DFP      0.045533
     16 H32         1.9960    0.0400    1.0350 hc        1 DFP      0.045533
     17 H33         1.3590   -1.5050    1.7280 hc        1 DFP      0.045533
     18 H1'         3.4610    0.9720   -2.2260 h1        1 DFP      0.070700
     19 H2'1        5.0890    1.9090   -0.5080 hc        1 DFP      0.045533
     20 H2'2        3.8610    0.8060    0.2480 hc        1 DFP      0.045533
     21 H2'3        5.5470    0.2130   -0.0380 hc        1 DFP      0.045533
     22 H3'1        5.8800    1.5500   -2.7970 hc        1 DFP      0.045533
     23 H3'2        5.2140    0.2140   -3.8280 hc        1 DFP      0.045533
     24 H3'3        6.3440   -0.1780   -2.4670 hc        1 DFP      0.045533
     25 HP1         2.6860   -2.5300   -2.8070 hp        1 DFP     -0.098400
@<TRIPOS>BOND
     1    1    2 1   
     2    1    3 1   
     3    1    8 1   
     4    1   11 1   
     5    2   12 1   
     6    2   13 1   
     7    2   14 1   
     8    3   15 1   
     9    3   16 1   
    10    3   17 1   
    11    4    5 1   
    12    4    6 1   
    13    4    9 1   
    14    4   18 1   
    15    5   19 1   
    16    5   20 1   
    17    5   21 1   
    18    6   22 1   
    19    6   23 1   
    20    6   24 1   
    21    7    8 1   
    22    7    9 1   
    23    7   10 2   
    24    7   25 1   
@<TRIPOS>SUBSTRUCTURE
     1 DFP         1 TEMP              0 ****  ****    0 ROOT
