@<TRIPOS>MOLECULE
DFP
   25    24     1     0     0
SMALL
bcc


@<TRIPOS>ATOM
      1 C1          0.7340    0.1570    0.0140 c3        1 DFP      0.176100
      2 C2          1.1780   -1.2970    0.0670 c3        1 DFP     -0.108600
      3 C3          1.2670    0.9180    1.2170 c3        1 DFP     -0.108600
      4 C1'        -0.5110    3.7680   -1.7240 c3        1 DFP      0.176100
      5 C2'         0.0320    4.5370   -0.5310 c3        1 DFP     -0.108600
      6 C3'        -0.9150    4.7260   -2.8340 c3        1 DFP     -0.108600
      7 P           0.2450    1.3330   -2.2590 p5        1 DFP      1.491500
      8 O1P         1.2600    0.7460   -1.1670 os        1 DFP     -0.584700
      9 O2P         0.5100    2.9120   -2.2170 os        1 DFP     -0.584700
     10 O3P        -1.1460    0.9710   -2.0130 o         1 DFP     -0.828300
     11 H1         -0.3940    0.2160   -0.0210 h1        1 DFP      0.070700
     12 H21         2.2890   -1.3620   -0.0070 hc        1 DFP      0.045617
     13 H22         0.7310   -1.8770   -0.7740 hc        1 DFP      0.045617
     14 H23         0.8480   -1.7490    1.0320 hc        1 DFP      0.045617
     15 H31         0.9120    0.4260    2.1530 hc        1 DFP      0.045617
     16 H32         2.3830    0.9220    1.2040 hc        1 DFP      0.045617
     17 H33         0.9110    1.9760    1.2060 hc        1 DFP      0.045617
     18 H1'        -1.3970    3.1370   -1.4170 h1        1 DFP      0.070700
     19 H2'1        0.2950    3.8420    0.3020 hc        1 DFP      0.045617
     20 H2'2        0.9510    5.0990   -0.8230 hc        1 DFP      0.045617
     21 H2'3       -0.7410    5.2570   -0.1720 hc        1 DFP      0.045617
     22 H3'1       -1.3820    4.1740   -3.6830 hc        1 DFP      0.045617
     23 H3'2       -0.0190    5.2720   -3.2150 hc        1 DFP      0.045617
     24 H3'3       -1.6520    5.4630   -2.4350 hc        1 DFP      0.045617
     25 HP1         0.7970    0.9890   -3.3630 hp        1 DFP     -0.098400
@<TRIPOS>BOND
     1    1    2 1   
     2    1    3 1   
     3    1    8 1   
     4    1   11 1   
     5    2   12 1   
     6    2   13 1   
     7    2   14 1   
     8    3   15 1   
     9    3   16 1   
    10    3   17 1   
    11    4    5 1   
    12    4    6 1   
    13    4    9 1   
    14    4   18 1   
    15    5   19 1   
    16    5   20 1   
    17    5   21 1   
    18    6   22 1   
    19    6   23 1   
    20    6   24 1   
    21    7    8 1   
    22    7    9 1   
    23    7   10 2   
    24    7   25 1   
@<TRIPOS>SUBSTRUCTURE
     1 DFP         1 TEMP              0 ****  ****    0 ROOT
