@<TRIPOS>MOLECULE
DFP
   25    24     1     0     0
SMALL
bcc


@<TRIPOS>ATOM
      1 C1          0.5540    0.1320    0.0310 c3        1 DFP      0.176100
      2 C2          0.9180   -1.3430    0.1120 c3        1 DFP     -0.108600
      3 C3          0.9920    0.8550    1.2940 c3        1 DFP     -0.108600
      4 C1'        -0.3340    3.8100   -1.7820 c3        1 DFP      0.176100
      5 C2'         0.1020    4.5410   -0.5230 c3        1 DFP     -0.108600
      6 C3'        -0.5650    4.7980   -2.9150 c3        1 DFP     -0.108600
      7 P           0.3680    1.3480   -2.2650 p5        1 DFP      1.491500
      8 O1P         1.2310    0.7030   -1.0790 os        1 DFP     -0.584200
      9 O2P         0.6970    2.9130   -2.1680 os        1 DFP     -0.584200
     10 O3P        -1.0560    1.0480   -2.1770 o         1 DFP     -0.828300
     11 H1         -0.5600    0.2470   -0.1230 h1        1 DFP      0.070700
     12 H21         2.0260   -1.4630    0.1550 hc        1 DFP      0.045533
     13 H22         0.4650   -1.7850    1.0310 hc        1 DFP      0.045533
     14 H23         0.5350   -1.8940   -0.7790 hc        1 DFP      0.045533
     15 H31         0.5140    0.3750    2.1810 hc        1 DFP      0.045533
     16 H32         0.6920    1.9300    1.2590 hc        1 DFP      0.045533
     17 H33         2.1010    0.8030    1.4010 hc        1 DFP      0.045533
     18 H1'        -1.2770    3.2180   -1.5870 h1        1 DFP      0.070700
     19 H2'1       -0.6730    5.2930   -0.2440 hc        1 DFP      0.045533
     20 H2'2        0.2350    3.8270    0.3240 hc        1 DFP      0.045533
     21 H2'3        1.0730    5.0620   -0.7000 hc        1 DFP      0.045533
     22 H3'1       -1.3100    5.5640   -2.5920 hc        1 DFP      0.045533
     23 H3'2        0.3910    5.3060   -3.1830 hc        1 DFP      0.045533
     24 H3'3       -0.9560    4.2760   -3.8210 hc        1 DFP      0.045533
     25 HP1         1.0210    0.9920   -3.3080 hp        1 DFP     -0.098400
@<TRIPOS>BOND
     1    1    2 1   
     2    1    3 1   
     3    1    8 1   
     4    1   11 1   
     5    2   12 1   
     6    2   13 1   
     7    2   14 1   
     8    3   15 1   
     9    3   16 1   
    10    3   17 1   
    11    4    5 1   
    12    4    6 1   
    13    4    9 1   
    14    4   18 1   
    15    5   19 1   
    16    5   20 1   
    17    5   21 1   
    18    6   22 1   
    19    6   23 1   
    20    6   24 1   
    21    7    8 1   
    22    7    9 1   
    23    7   10 2   
    24    7   25 1   
@<TRIPOS>SUBSTRUCTURE
     1 DFP         1 TEMP              0 ****  ****    0 ROOT
