@<TRIPOS>MOLECULE
DFP
   25    23     1     0     0
SMALL
bcc


@<TRIPOS>ATOM
      1 C1          1.3600   -1.3690    1.6760 c3        1 DFP      0.265800
      2 C2          2.8730   -1.3690    1.6760 c3        1 DFP     -0.108600
      3 C3          0.8560   -1.3690    3.1020 c3        1 DFP     -0.108600
      4 C1'        -1.4490    1.0500   -1.8260 c3        1 DFP      0.176100
      5 C2'        -2.7610    1.6550   -1.3780 c3        1 DFP     -0.108600
      6 C3'        -0.8530    1.8980   -2.9280 c3        1 DFP     -0.108600
      7 P          -0.0310   -0.4080   -0.2570 p4        1 DFP      1.725100
      8 O1P         0.8910   -0.2210    1.0130 o         1 DFP     -0.907500
      9 O2P        -0.5590    1.0030   -0.7370 os        1 DFP     -0.584200
     10 O3P         0.7650   -1.0520   -1.3670 o         1 DFP     -0.828300
     11 H1          1.0350   -2.1660    1.2160 h1        1 DFP      0.070700
     12 H21         3.1980   -0.5470    2.0880 hc        1 DFP      0.045533
     13 H22         3.1980   -1.4230    0.7570 hc        1 DFP      0.045533
     14 H23         3.1980   -2.1380    2.1820 hc        1 DFP      0.045533
     15 H31         1.2030   -0.5860    3.5700 hc        1 DFP      0.045533
     16 H32        -0.1200   -1.3430    3.1020 hc        1 DFP      0.045533
     17 H33         1.1590   -2.1790    3.5550 hc        1 DFP      0.045533
     18 H1'        -1.6050    0.1460   -2.1580 h1        1 DFP      0.070700
     19 H2'1       -3.3870    1.6680   -2.1270 hc        1 DFP      0.045533
     20 H2'2       -2.6090    2.5680   -1.0660 hc        1 DFP      0.045533
     21 H2'3       -3.1350    1.1210   -0.6510 hc        1 DFP      0.045533
     22 H3'1       -0.0290    1.4830   -3.2480 hc        1 DFP      0.045533
     23 H3'2       -0.6550    2.7890   -2.5820 hc        1 DFP      0.045533
     24 H3'3       -1.4890    1.9680   -3.6650 hc        1 DFP      0.045533
     25 HP1        -1.0550   -1.1780    0.0530 hp        1 DFP     -0.098400
@<TRIPOS>BOND
     1    1    2 1   
     2    1    3 1   
     3    1    8 1   
     4    1   11 1   
     5    2   12 1   
     6    2   13 1   
     7    2   14 1   
     8    3   15 1   
     9    3   16 1   
    10    3   17 1   
    11    4    5 1   
    12    4    6 1   
    13    4    9 1   
    14    4   18 1   
    15    5   19 1   
    16    5   20 1   
    17    5   21 1   
    18    6   22 1   
    19    6   23 1   
    20    6   24 1   
    21    7    9 1   
    22    7   10 2   
    23    7   25 1   
@<TRIPOS>SUBSTRUCTURE
     1 DFP         1 TEMP              0 ****  ****    0 ROOT
