@<TRIPOS>MOLECULE
DFQ
   46    48     1     0     0
SMALL
bcc


@<TRIPOS>ATOM
      1 C1          0.1620    0.6920    1.0640 c3        1 DFQ      0.083100
      2 N2          1.6010    0.7300    0.7320 n4        1 DFQ     -0.673800
      3 C4          2.5030    0.2930    1.8920 c         1 DFQ      0.562300
      4 O5          1.9190   -0.0190    2.9220 o         1 DFQ     -0.449100
      5 C6          3.9130    0.3190    1.5850 ce        1 DFQ     -0.369200
      6 C7          4.8140   -0.0580    2.5340 cf        1 DFQ      0.137800
      7 C8          6.2350   -0.0820    2.3650 ca        1 DFQ     -0.281100
      8 C9          7.0530   -0.5100    3.4060 ca        1 DFQ      0.019000
      9 C10         8.4590   -0.5390    3.2340 ca        1 DFQ     -0.156300
     10 C11         9.3260   -0.9630    4.2710 ca        1 DFQ     -0.122000
     11 C12         6.8790    0.3220    1.1410 ca        1 DFQ      0.439200
     12 N13         8.1800    0.3090    0.9430 nb        1 DFQ     -0.635000
     13 C14         8.9980   -0.1200    1.9730 ca        1 DFQ      0.419600
     14 C15        10.4160   -0.1560    1.7900 ca        1 DFQ     -0.156300
     15 C16        11.2380   -0.5830    2.8030 ca        1 DFQ     -0.112000
     16 C17        10.6930   -0.9870    4.0530 ca        1 DFQ      0.126100
     17 O18        11.4760   -1.5360    5.0500 os        1 DFQ     -0.322900
     18 C19        12.6190   -0.7570    5.4610 c3        1 DFQ      0.186400
     19 C20        13.5330   -1.7290    6.1880 c3        1 DFQ     -0.097100
     20 C21        12.2260    0.4140    6.3250 ca        1 DFQ     -0.086300
     21 C22        12.7330    1.6920    6.0130 ca        1 DFQ     -0.012600
     22 CL23       13.7530    1.9240    4.6710 cl        1 DFQ     -0.057400
     23 C24        12.4100    2.8080    6.8170 ca        1 DFQ      0.137900
     24 F25        12.8830    4.0420    6.5310 f         1 DFQ     -0.114900
     25 C26        11.5790    2.6450    7.9420 ca        1 DFQ     -0.141000
     26 C27        11.0820    1.3900    8.2510 ca        1 DFQ     -0.106000
     27 C28        11.3990    0.2820    7.4510 ca        1 DFQ      0.027400
     28 CL29       10.7340   -1.2070    7.9320 cl        1 DFQ     -0.065400
     29 H1         -0.4330    1.0230    0.1720 hx        1 DFQ      0.111033
     30 H1A        -0.1270   -0.3540    1.3550 hx        1 DFQ      0.111033
     31 H1B        -0.0380    1.3730    1.9360 hx        1 DFQ      0.111033
     32 HN2         1.7890    0.1110   -0.0640 hn        1 DFQ      0.455800
     33 H6          4.2320    0.6430    0.5830 ha        1 DFQ      0.162000
     34 H7          4.4390   -0.3790    3.5300 ha        1 DFQ      0.158000
     35 H9          6.6260   -0.8330    4.3710 ha        1 DFQ      0.153000
     36 H11         8.9130   -1.2860    5.2390 ha        1 DFQ      0.164000
     37 H12         6.2710    0.6740    0.2870 h4        1 DFQ      0.019100
     38 H15        10.8390    0.1560    0.8200 ha        1 DFQ      0.170000
     39 H16        12.3290   -0.6280    2.6480 ha        1 DFQ      0.162000
     40 H19        13.1470   -0.3850    4.5350 h1        1 DFQ      0.067700
     41 H20        13.8670   -2.5260    5.4810 hc        1 DFQ      0.062033
     42 H20A       13.0060   -2.2160    7.0430 hc        1 DFQ      0.062033
     43 H20B       14.4230   -1.1760    6.5710 hc        1 DFQ      0.062033
     44 H26        11.3400    3.5190    8.5670 ha        1 DFQ      0.166000
     45 H27        10.4380    1.2620    9.1360 ha        1 DFQ      0.162000
     46 H22         1.8700    1.6830    0.4650 hn        1 DFQ      0.455800
@<TRIPOS>BOND
     1    1    2 1   
     2    1   29 1   
     3    1   30 1   
     4    1   31 1   
     5    2    3 1   
     6    2   32 1   
     7    2   46 1   
     8    3    4 2   
     9    3    5 1   
    10    5    6 2   
    11    5   33 1   
    12    6    7 1   
    13    6   34 1   
    14    7    8 ar  
    15    7   11 ar  
    16    8    9 ar  
    17    8   35 1   
    18    9   10 ar  
    19    9   13 ar  
    20   10   16 ar  
    21   10   36 1   
    22   11   12 ar  
    23   11   37 1   
    24   12   13 ar  
    25   13   14 ar  
    26   14   15 ar  
    27   14   38 1   
    28   15   16 ar  
    29   15   39 1   
    30   16   17 1   
    31   17   18 1   
    32   18   19 1   
    33   18   20 1   
    34   18   40 1   
    35   19   41 1   
    36   19   42 1   
    37   19   43 1   
    38   20   21 ar  
    39   20   27 ar  
    40   21   22 1   
    41   21   23 ar  
    42   23   24 1   
    43   23   25 ar  
    44   25   26 ar  
    45   25   44 1   
    46   26   27 ar  
    47   26   45 1   
    48   27   28 1   
@<TRIPOS>SUBSTRUCTURE
     1 DFQ         1 TEMP              0 ****  ****    0 ROOT
