@<TRIPOS>MOLECULE
DFQ
   45    47     1     0     0
SMALL
bcc


@<TRIPOS>ATOM
      1 C1          9.3180   -1.2140   -2.0940 c3        1 DFQ      0.080300
      2 N2          8.1970   -0.4370   -1.6740 n         1 DFQ     -0.573900
      3 C4          7.0980   -0.9860   -1.0440 c         1 DFQ      0.659300
      4 O5          7.0390   -2.2130   -0.8100 o         1 DFQ     -0.617100
      5 C6          6.0000   -0.0590   -0.6620 ce        1 DFQ     -0.233200
      6 C7          4.9170   -0.5270   -0.0220 cf        1 DFQ     -0.026200
      7 C8          3.7840    0.2730    0.3960 ca        1 DFQ     -0.193100
      8 C9          2.5860   -0.3260    0.7340 ca        1 DFQ     -0.055000
      9 C10         1.4820    0.4770    1.1350 ca        1 DFQ     -0.138300
     10 C11         0.2320   -0.0960    1.4740 ca        1 DFQ     -0.119000
     11 C12         3.8590    1.7070    0.4850 ca        1 DFQ      0.424200
     12 N13         2.8640    2.4870    0.8570 nb        1 DFQ     -0.653000
     13 C14         1.6580    1.8940    1.1860 ca        1 DFQ      0.391600
     14 C15         0.5520    2.7070    1.5940 ca        1 DFQ     -0.151300
     15 C16        -0.6490    2.1350    1.9260 ca        1 DFQ     -0.141000
     16 C17        -0.8090    0.7240    1.8630 ca        1 DFQ      0.098100
     17 O18        -1.9780    0.1220    2.3090 os        1 DFQ     -0.327900
     18 C19        -3.1670    0.4940    1.5890 c3        1 DFQ      0.184400
     19 C20        -4.3300    0.1660    2.5110 c3        1 DFQ     -0.095100
     20 C21        -3.2800   -0.2200    0.2660 ca        1 DFQ     -0.074300
     21 C22        -3.5830    0.5280   -0.8900 ca        1 DFQ     -0.009600
     22 CL23       -3.8270    2.2110   -0.8030 cl        1 DFQ     -0.061400
     23 C24        -3.6980   -0.1060   -2.1470 ca        1 DFQ      0.132900
     24 F25        -3.9850    0.5960   -3.2670 f         1 DFQ     -0.120900
     25 C26        -3.5130   -1.4970   -2.2500 ca        1 DFQ     -0.145000
     26 C27        -3.2270   -2.2360   -1.1140 ca        1 DFQ     -0.107000
     27 C28        -3.1160   -1.6070    0.1340 ca        1 DFQ      0.029400
     28 CL29       -2.7830   -2.6220    1.4580 cl        1 DFQ     -0.064400
     29 H1         10.2530   -0.8470   -1.5890 h1        1 DFQ      0.044367
     30 H1A         9.1620   -2.2940   -1.8320 h1        1 DFQ      0.044367
     31 H1B         9.4550   -1.1240   -3.2060 h1        1 DFQ      0.044367
     32 HN2         8.2200    0.5370   -1.8500 hn        1 DFQ      0.308500
     33 H6          6.1140    1.0030   -0.9290 ha        1 DFQ      0.132000
     34 H7          4.8500   -1.6100    0.2080 ha        1 DFQ      0.157000
     35 H9          2.4650   -1.4200    0.6950 ha        1 DFQ      0.147000
     36 H11         0.1010   -1.1880    1.4400 ha        1 DFQ      0.154000
     37 H12         4.8080    2.2190    0.2400 h4        1 DFQ      0.023100
     38 H15         0.6830    3.8000    1.6430 ha        1 DFQ      0.155000
     39 H16        -1.4950    2.7570    2.2560 ha        1 DFQ      0.145000
     40 H19        -3.1410    1.6090    1.4140 h1        1 DFQ      0.067700
     41 H20        -4.2490    0.7760    3.4430 hc        1 DFQ      0.055700
     42 H20A       -5.2890    0.4060    1.9930 hc        1 DFQ      0.055700
     43 H20B       -4.3240   -0.9120    2.7960 hc        1 DFQ      0.055700
     44 H26        -3.6010   -1.9820   -3.2340 ha        1 DFQ      0.161000
     45 H27        -3.0880   -3.3260   -1.1940 ha        1 DFQ      0.158000
@<TRIPOS>BOND
     1    1    2 1   
     2    1   29 1   
     3    1   30 1   
     4    1   31 1   
     5    2    3 1   
     6    2   32 1   
     7    3    4 2   
     8    3    5 1   
     9    5    6 2   
    10    5   33 1   
    11    6    7 1   
    12    6   34 1   
    13    7    8 ar  
    14    7   11 ar  
    15    8    9 ar  
    16    8   35 1   
    17    9   10 ar  
    18    9   13 ar  
    19   10   16 ar  
    20   10   36 1   
    21   11   12 ar  
    22   11   37 1   
    23   12   13 ar  
    24   13   14 ar  
    25   14   15 ar  
    26   14   38 1   
    27   15   16 ar  
    28   15   39 1   
    29   16   17 1   
    30   17   18 1   
    31   18   19 1   
    32   18   20 1   
    33   18   40 1   
    34   19   41 1   
    35   19   42 1   
    36   19   43 1   
    37   20   21 ar  
    38   20   27 ar  
    39   21   22 1   
    40   21   23 ar  
    41   23   24 1   
    42   23   25 ar  
    43   25   26 ar  
    44   25   44 1   
    45   26   27 ar  
    46   26   45 1   
    47   27   28 1   
@<TRIPOS>SUBSTRUCTURE
     1 DFQ         1 TEMP              0 ****  ****    0 ROOT
