@<TRIPOS>MOLECULE
DFQ
   46    48     1     0     0
SMALL
bcc


@<TRIPOS>ATOM
      1 C1          1.1410    1.4120    1.8710 c3        1 DFQ      0.082100
      2 N2          2.0260    0.8480    0.8310 ny        1 DFQ     -0.683800
      3 C4          3.4390    0.5770    1.3810 c         1 DFQ      0.575300
      4 O5          4.2350    1.4540    1.0730 o         1 DFQ     -0.436100
      5 C6          3.5520   -0.6250    2.1650 ce        1 DFQ     -0.357200
      6 C7          4.7000   -1.1850    2.6240 cf        1 DFQ      0.140800
      7 C8          6.0760   -0.8630    2.3870 ca        1 DFQ     -0.287100
      8 C9          7.0300   -1.2040    3.3420 ca        1 DFQ      0.011000
      9 C10         8.3960   -0.9030    3.1180 ca        1 DFQ     -0.154300
     10 C11         9.3910   -1.2060    4.0790 ca        1 DFQ     -0.123000
     11 C12         6.5500   -0.2500    1.1740 ca        1 DFQ      0.445200
     12 N13         7.8110    0.0280    0.9210 nb        1 DFQ     -0.632000
     13 C14         8.7590   -0.2770    1.8800 ca        1 DFQ      0.419600
     14 C15        10.1380    0.0200    1.6430 ca        1 DFQ     -0.156300
     15 C16        11.0880   -0.2910    2.5820 ca        1 DFQ     -0.113000
     16 C17        10.7150   -0.9060    3.8090 ca        1 DFQ      0.125100
     17 O18        11.6580   -1.3450    4.7200 os        1 DFQ     -0.322900
     18 C19        12.6040   -0.3550    5.1740 c3        1 DFQ      0.186400
     19 C20        13.7820   -1.1420    5.7280 c3        1 DFQ     -0.097100
     20 C21        12.0030    0.5710    6.2000 ca        1 DFQ     -0.084300
     21 C22        12.1530    1.9630    6.0330 ca        1 DFQ     -0.012600
     22 Cl23       12.9760    2.5980    4.6850 cl        1 DFQ     -0.057400
     23 C24        11.6290    2.8610    6.9890 ca        1 DFQ      0.136900
     24 F25        11.7590    4.1990    6.8430 f         1 DFQ     -0.114900
     25 C26        10.9550    2.3660    8.1210 ca        1 DFQ     -0.142000
     26 C27        10.8080    0.9990    8.2870 ca        1 DFQ     -0.106000
     27 C28        11.3250    0.1070    7.3370 ca        1 DFQ      0.027400
     28 Cl29       11.0850   -1.5470    7.6520 cl        1 DFQ     -0.064400
     29 H1          1.5780    2.3780    2.2450 hx        1 DFQ      0.107700
     30 H1A         1.0550    0.6870    2.7250 hx        1 DFQ      0.107700
     31 H1B         0.1230    1.6050    1.4380 hx        1 DFQ      0.107700
     32 HN2         2.1040    1.5170    0.0540 hn        1 DFQ      0.456800
     33 H6          2.6020   -1.1120    2.4550 ha        1 DFQ      0.157000
     34 H7          4.5560   -2.0520    3.3130 ha        1 DFQ      0.157000
     35 H9          6.7410   -1.6980    4.2850 ha        1 DFQ      0.150000
     36 H11         9.1150   -1.6920    5.0270 ha        1 DFQ      0.163000
     37 H12         5.8350   -0.0010    0.3680 h4        1 DFQ      0.020100
     38 H15        10.4260    0.4950    0.6900 ha        1 DFQ      0.169000
     39 H16        12.1520   -0.0800    2.3850 ha        1 DFQ      0.161000
     40 H19        12.9530    0.2420    4.2820 h1        1 DFQ      0.067700
     41 H20        14.2520   -1.7360    4.9070 hc        1 DFQ      0.062033
     42 H20A       14.5320   -0.4290    6.1450 hc        1 DFQ      0.062033
     43 H20B       13.4560   -1.8450    6.5300 hc        1 DFQ      0.062033
     44 H26        10.5580    3.0740    8.8650 ha        1 DFQ      0.166000
     45 H27        10.2880    0.6120    9.1790 ha        1 DFQ      0.161000
     46 H22         1.6310   -0.0270    0.4740 hn        1 DFQ      0.456800
@<TRIPOS>BOND
     1    1    2 1   
     2    1   29 1   
     3    1   30 1   
     4    1   31 1   
     5    2    3 1   
     6    2   32 1   
     7    2   46 1   
     8    3    4 2   
     9    3    5 1   
    10    5    6 2   
    11    5   33 1   
    12    6    7 1   
    13    6   34 1   
    14    7    8 ar  
    15    7   11 ar  
    16    8    9 ar  
    17    8   35 1   
    18    9   10 ar  
    19    9   13 ar  
    20   10   16 ar  
    21   10   36 1   
    22   11   12 ar  
    23   11   37 1   
    24   12   13 ar  
    25   13   14 ar  
    26   14   15 ar  
    27   14   38 1   
    28   15   16 ar  
    29   15   39 1   
    30   16   17 1   
    31   17   18 1   
    32   18   19 1   
    33   18   20 1   
    34   18   40 1   
    35   19   41 1   
    36   19   42 1   
    37   19   43 1   
    38   20   21 ar  
    39   20   27 ar  
    40   21   22 1   
    41   21   23 ar  
    42   23   24 1   
    43   23   25 ar  
    44   25   26 ar  
    45   25   44 1   
    46   26   27 ar  
    47   26   45 1   
    48   27   28 1   
@<TRIPOS>SUBSTRUCTURE
     1 DFQ         1 TEMP              0 ****  ****    0 ROOT
