@<TRIPOS>MOLECULE
DFQ
   45    40     1     0     0
SMALL
bcc


@<TRIPOS>ATOM
      1 C1         -6.7330   -1.1650   -4.3190 c3        1 DFQ     -0.079000
      2 N2         -5.5380   -0.4100   -4.5930 n         1 DFQ     -0.378000
      3 C4         -4.5350   -0.2610   -3.5770 c2        1 DFQ      0.333000
      4 O5         -4.2550   -1.2000   -2.8570 o         1 DFQ     -0.372000
      5 C6         -3.8580    1.0870   -3.3680 c2        1 DFQ     -0.194000
      6 C7         -2.5480    1.1410   -2.9950 c1        1 DFQ     -0.075000
      7 C8         -1.7590   -0.1510   -2.7840 c1        1 DFQ     -0.085000
      8 C9         -1.2330   -0.3920   -1.5390 c2        1 DFQ     -0.067000
      9 C10         0.1150   -0.1420   -1.2940 c1        1 DFQ     -0.085000
     10 C11         0.6450   -0.3260    0.0050 c1        1 DFQ     -0.122000
     11 C12        -0.9430    0.3460   -3.8040 c1        1 DFQ     -0.122000
     12 N13         0.3830    0.5920   -3.5620 n1        1 DFQ     -0.123000
     13 C14         0.9190    0.3490   -2.3030 c1        1 DFQ     -0.021000
     14 C15         2.2710    0.6670   -2.0380 c1        1 DFQ     -0.079000
     15 C16         2.7920    0.4850   -0.7560 c1        1 DFQ     -0.130000
     16 C17         1.9780   -0.0120    0.2660 c1        1 DFQ      0.083000
     17 O18         2.7240   -0.4530    1.3980 os        1 DFQ     -0.199000
     18 C19         2.9030    0.5390    2.3870 c3        1 DFQ      0.063000
     19 C20         4.3390    1.0190    2.3680 c3        1 DFQ     -0.213000
     20 C21         2.5810   -0.0420    3.7510 c2        1 DFQ     -0.071000
     21 C22         3.0490   -1.3050    4.0960 c2        1 DFQ     -0.070000
     22 CL23        3.9550   -2.2480    2.9370 cl        1 DFQ      0.036000
     23 C24         2.7960   -1.8170    5.3630 c1        1 DFQ      0.094000
     24 F25         3.2580   -3.0320    5.7000 f         1 DFQ     -0.087000
     25 C26         2.0760   -1.0670    6.2850 c2        1 DFQ     -0.147000
     26 C27         1.6080    0.1950    5.9400 c1        1 DFQ     -0.099000
     27 C28         1.8600    0.7080    4.6740 c1        1 DFQ     -0.071000
     28 CL29        1.2860    2.3010    4.2460 cl        1 DFQ      0.003000
     29 H1         -6.7900   -1.9270   -4.9390 h1        1 DFQ      0.084000
     30 H1A        -6.7070   -1.4960   -3.3940 h1        1 DFQ      0.084000
     31 H1B        -7.5210   -0.5860   -4.4380 h1        1 DFQ      0.084000
     32 HN2        -5.4340    0.0060   -5.4040 hn        1 DFQ      0.228000
     33 H6         -4.3630    1.9150   -3.5030 ha        1 DFQ      0.155000
     34 H7         -2.1120    2.0100   -2.8600 ha        1 DFQ      0.137000
     35 H9         -1.7870   -0.8140   -0.8460 ha        1 DFQ      0.163000
     36 H11         0.0730   -0.6740    0.7240 ha        1 DFQ      0.155000
     37 H12        -1.3110    0.4790   -4.7060 ha        1 DFQ      0.155000
     38 H15         2.8430    1.0150   -2.7550 ha        1 DFQ      0.155000
     39 H16         3.7300    0.7060   -0.5720 ha        1 DFQ      0.155000
     40 H19         2.3030    1.2950    2.2040 h1        1 DFQ      0.114000
     41 H20         4.6840    1.0540    3.2860 hc        1 DFQ      0.095333
     42 H20A        4.3790    1.9150    1.9680 hc        1 DFQ      0.095333
     43 H20B        4.8830    0.3990    1.8370 hc        1 DFQ      0.095333
     44 H26         1.8970   -1.4290    7.1790 ha        1 DFQ      0.161000
     45 H27         1.0980    0.7250    6.5920 ha        1 DFQ      0.163000
@<TRIPOS>BOND
     1    1    2 1   
     2    1   29 1   
     3    1   30 1   
     4    1   31 1   
     5    2    3 1   
     6    2   32 1   
     7    3    4 1   
     8    3    5 1   
     9    5    6 1   
    10    5   33 1   
    11    6   34 1   
    12    7    8 1   
    13    7   11 1   
    14    8    9 1   
    15    8   35 1   
    16    9   10 1   
    17   10   36 1   
    18   11   37 1   
    19   12   13 1   
    20   13   14 1   
    21   14   38 1   
    22   15   16 1   
    23   15   39 1   
    24   16   17 1   
    25   17   18 1   
    26   18   19 1   
    27   18   20 1   
    28   18   40 1   
    29   19   41 1   
    30   19   42 1   
    31   19   43 1   
    32   20   21 1   
    33   20   27 1   
    34   21   22 1   
    35   21   23 1   
    36   23   25 1   
    37   25   26 1   
    38   25   44 1   
    39   26   45 1   
    40   27   28 1   
@<TRIPOS>SUBSTRUCTURE
     1 DFQ         1 TEMP              0 ****  ****    0 ROOT
