@<TRIPOS>MOLECULE
DFQ
   46    48     1     0     0
SMALL
bcc


@<TRIPOS>ATOM
      1 C1          1.0790    1.1650    1.9620 c3        1 DFQ      0.082100
      2 N2          1.9890    0.7290    0.8840 n4        1 DFQ     -0.683800
      3 C4          3.4170    0.4950    1.4130 c         1 DFQ      0.575300
      4 O5          4.1630    1.4330    1.1720 o         1 DFQ     -0.436100
      5 C6          3.5970   -0.7530    2.1070 ce        1 DFQ     -0.357200
      6 C7          4.7740   -1.2840    2.5250 cf        1 DFQ      0.140800
      7 C8          6.1300   -0.8710    2.3140 ca        1 DFQ     -0.287100
      8 C9          7.1040   -1.2300    3.2420 ca        1 DFQ      0.011000
      9 C10         8.4510   -0.8390    3.0420 ca        1 DFQ     -0.154300
     10 C11         9.4640   -1.1570    3.9790 ca        1 DFQ     -0.123000
     11 C12         6.5670   -0.1460    1.1500 ca        1 DFQ      0.445200
     12 N13         7.8100    0.2180    0.9180 nb        1 DFQ     -0.632000
     13 C14         8.7760   -0.1050    1.8540 ca        1 DFQ      0.419600
     14 C15        10.1360    0.2820    1.6410 ca        1 DFQ     -0.156300
     15 C16        11.1050   -0.0450    2.5550 ca        1 DFQ     -0.113000
     16 C17        10.7690   -0.7680    3.7340 ca        1 DFQ      0.125100
     17 O18        11.7370   -1.2210    4.6110 os        1 DFQ     -0.322900
     18 C19        12.6310   -0.2180    5.1360 c3        1 DFQ      0.186400
     19 C20        13.8500   -0.9790    5.6350 c3        1 DFQ     -0.097100
     20 C21        11.9840    0.6000    6.2250 ca        1 DFQ     -0.084300
     21 C22        12.0610    2.0060    6.1580 ca        1 DFQ     -0.012600
     22 CL23       12.8460    2.7780    4.8610 cl        1 DFQ     -0.057400
     23 C24        11.4920    2.8040    7.1750 ca        1 DFQ      0.136900
     24 F25        11.5520    4.1540    7.1260 f         1 DFQ     -0.114900
     25 C26        10.8480    2.1950    8.2680 ca        1 DFQ     -0.142000
     26 C27        10.7730    0.8140    8.3360 ca        1 DFQ     -0.106000
     27 C28        11.3340    0.0200    7.3250 ca        1 DFQ      0.027400
     28 CL29       11.1820   -1.6620    7.5190 cl        1 DFQ     -0.064400
     29 H1          1.4640    2.1240    2.4060 hx        1 DFQ      0.107700
     30 H1A         0.0500    1.3350    1.5430 hx        1 DFQ      0.107700
     31 H1B         1.0340    0.3760    2.7600 hx        1 DFQ      0.107700
     32 HN2         1.6420   -0.1370    0.4630 hn        1 DFQ      0.456800
     33 H6          2.6750   -1.3110    2.3600 ha        1 DFQ      0.157000
     34 H7          4.6790   -2.2050    3.1480 ha        1 DFQ      0.157000
     35 H9          6.8450   -1.8050    4.1460 ha        1 DFQ      0.150000
     36 H11         9.2170   -1.7260    4.8890 ha        1 DFQ      0.163000
     37 H12         5.8380    0.1230    0.3630 h4        1 DFQ      0.020100
     38 H15        10.3960    0.8410    0.7250 ha        1 DFQ      0.169000
     39 H16        12.1560    0.2370    2.3750 ha        1 DFQ      0.161000
     40 H19        12.9460    0.4590    4.2900 h1        1 DFQ      0.067700
     41 H20        14.5620   -0.2600    6.1030 hc        1 DFQ      0.062033
     42 H20A       13.5630   -1.7550    6.3830 hc        1 DFQ      0.062033
     43 H20B       14.3480   -1.4880    4.7740 hc        1 DFQ      0.062033
     44 H26        10.4160    2.8260    9.0600 ha        1 DFQ      0.166000
     45 H27        10.2750    0.3360    9.1960 ha        1 DFQ      0.161000
     46 H22         2.0290    1.4560    0.1580 hn        1 DFQ      0.456800
@<TRIPOS>BOND
     1    1    2 1   
     2    1   29 1   
     3    1   30 1   
     4    1   31 1   
     5    2    3 1   
     6    2   32 1   
     7    2   46 1   
     8    3    4 2   
     9    3    5 1   
    10    5    6 2   
    11    5   33 1   
    12    6    7 1   
    13    6   34 1   
    14    7    8 ar  
    15    7   11 ar  
    16    8    9 ar  
    17    8   35 1   
    18    9   10 ar  
    19    9   13 ar  
    20   10   16 ar  
    21   10   36 1   
    22   11   12 ar  
    23   11   37 1   
    24   12   13 ar  
    25   13   14 ar  
    26   14   15 ar  
    27   14   38 1   
    28   15   16 ar  
    29   15   39 1   
    30   16   17 1   
    31   17   18 1   
    32   18   19 1   
    33   18   20 1   
    34   18   40 1   
    35   19   41 1   
    36   19   42 1   
    37   19   43 1   
    38   20   21 ar  
    39   20   27 ar  
    40   21   22 1   
    41   21   23 ar  
    42   23   24 1   
    43   23   25 ar  
    44   25   26 ar  
    45   25   44 1   
    46   26   27 ar  
    47   26   45 1   
    48   27   28 1   
@<TRIPOS>SUBSTRUCTURE
     1 DFQ         1 TEMP              0 ****  ****    0 ROOT
