@<TRIPOS>MOLECULE
DFR
   26    26     1     0     0
SMALL
bcc


@<TRIPOS>ATOM
      1 C1         -0.0950   -0.3770    1.4040 c3        1 DFR      0.071100
      2 C2          1.3740   -0.4160    0.9320 c3        1 DFR      0.122100
      3 C3          1.3300   -0.2940   -0.6040 c3        1 DFR     -0.064700
      4 C4         -0.1610   -0.0820   -0.9330 c3        1 DFR      0.296600
      5 C5         -0.6850   -0.9840   -2.0620 c3        1 DFR      0.112400
      6 C6         -0.3970    0.8760    2.2260 c3        1 DFR      0.115400
      7 C7          2.2130    0.8150   -1.1130 c3        1 DFR     -0.082100
      8 O1         -0.9330   -0.3720    0.2410 os        1 DFR     -0.461600
      9 O2          1.9840   -1.6590    1.2360 oh        1 DFR     -0.591800
     10 O4         -0.4220    1.2780   -1.1750 oh        1 DFR     -0.602800
     11 O5         -2.0540   -0.7300   -2.2900 oh        1 DFR     -0.598800
     12 O6         -1.7200    0.8540    2.7170 oh        1 DFR     -0.595800
     13 H1         -0.3760   -1.3030    1.9740 h1        1 DFR      0.083700
     14 H2          1.9650    0.4210    1.3930 h1        1 DFR      0.056700
     15 H3          1.6570   -1.2730   -1.0520 hc        1 DFR      0.086700
     16 H51        -0.1700   -0.7190   -3.0230 h1        1 DFR      0.067700
     17 H52        -0.5110   -2.0590   -1.8020 h1        1 DFR      0.067700
     18 H61         0.2530    0.9120    3.1400 h1        1 DFR      0.055700
     19 H62        -0.2320    1.7910    1.5950 h1        1 DFR      0.055700
     20 H71         3.2790    0.6040   -0.8540 hc        1 DFR      0.047700
     21 H72         2.1170    0.8980   -2.2220 hc        1 DFR      0.047700
     22 H73         1.9160    1.7950   -0.6650 hc        1 DFR      0.047700
     23 HO2         2.0270   -1.7230    2.1980 ho        1 DFR      0.406000
     24 HO4        -1.3400    1.3420   -1.4770 ho        1 DFR      0.427000
     25 HO5        -2.5290   -0.9970   -1.4910 ho        1 DFR      0.416000
     26 HO6        -2.3020    0.7620    1.9510 ho        1 DFR      0.412000
@<TRIPOS>BOND
     1    1    2 1   
     2    1    6 1   
     3    1    8 1   
     4    1   13 1   
     5    2    3 1   
     6    2    9 1   
     7    2   14 1   
     8    3    4 1   
     9    3    7 1   
    10    3   15 1   
    11    4    5 1   
    12    4    8 1   
    13    4   10 1   
    14    5   11 1   
    15    5   16 1   
    16    5   17 1   
    17    6   12 1   
    18    6   18 1   
    19    6   19 1   
    20    7   20 1   
    21    7   21 1   
    22    7   22 1   
    23    9   23 1   
    24   10   24 1   
    25   11   25 1   
    26   12   26 1   
@<TRIPOS>SUBSTRUCTURE
     1 DFR         1 TEMP              0 ****  ****    0 ROOT
