@<TRIPOS>MOLECULE
DFR
   26    26     1     0     0
SMALL
bcc


@<TRIPOS>ATOM
      1 C1         -0.8920    0.3570   -0.9170 c3        1 DFR      0.109100
      2 C2          0.7180    0.3570   -0.9170 c3        1 DFR      0.121100
      3 C3          1.0760    0.3570    0.3300 c3        1 DFR     -0.103700
      4 C4         -0.0920   -0.3170    1.0770 c3        1 DFR      0.301600
      5 C5         -0.4640    0.4440    2.1800 c3        1 DFR      0.113400
      6 C6         -1.4130   -0.2060   -2.2270 c3        1 DFR      0.117400
      7 C7          2.4220   -0.4930    0.5210 c3        1 DFR     -0.083100
      8 O1         -1.2550   -0.3940    0.0600 os        1 DFR     -0.465600
      9 O2          1.2200    1.5580   -1.5830 oh        1 DFR     -0.590800
     10 O4          0.2790   -1.6120    1.4860 oh        1 DFR     -0.603800
     11 O5         -1.6060   -0.1250    2.7800 oh        1 DFR     -0.597800
     12 O6         -2.8230   -0.1530   -2.2340 oh        1 DFR     -0.594800
     13 H1         -1.2270    1.2640   -0.7850 h1        1 DFR      0.099700
     14 H2          1.0540   -0.4420   -1.3640 h1        1 DFR      0.056700
     15 H3          1.2020    1.2710    0.6480 hc        1 DFR      0.072700
     16 H51         0.2680    0.4620    2.8250 h1        1 DFR      0.065700
     17 H52        -0.6670    1.3550    1.8920 h1        1 DFR      0.065700
     18 H61        -1.1220   -1.1320   -2.3220 h1        1 DFR      0.056200
     19 H62        -1.0640    0.3230   -2.9700 h1        1 DFR      0.056200
     20 H71         3.1500   -0.0630    0.0330 hc        1 DFR      0.046700
     21 H72         2.6470   -0.5370    1.4690 hc        1 DFR      0.046700
     22 H73         2.2880   -1.3960    0.1750 hc        1 DFR      0.046700
     23 HO2         1.7040    1.3230   -2.2890 ho        1 DFR      0.406000
     24 HO4        -0.4510   -2.0930    1.6420 ho        1 DFR      0.428000
     25 HO5        -1.8270    0.3450    3.5000 ho        1 DFR      0.417000
     26 HO6        -3.1260   -0.4550   -3.0120 ho        1 DFR      0.410000
@<TRIPOS>BOND
     1    1    2 1   
     2    1    6 1   
     3    1    8 1   
     4    1   13 1   
     5    2    3 1   
     6    2    9 1   
     7    2   14 1   
     8    3    4 1   
     9    3    7 1   
    10    3   15 1   
    11    4    5 1   
    12    4    8 1   
    13    4   10 1   
    14    5   11 1   
    15    5   16 1   
    16    5   17 1   
    17    6   12 1   
    18    6   18 1   
    19    6   19 1   
    20    7   20 1   
    21    7   21 1   
    22    7   22 1   
    23    9   23 1   
    24   10   24 1   
    25   11   25 1   
    26   12   26 1   
@<TRIPOS>SUBSTRUCTURE
     1 DFR         1 TEMP              0 ****  ****    0 ROOT
