@<TRIPOS>MOLECULE
DFS
   42    31     1     0     0
SMALL
bcc


@<TRIPOS>ATOM
      1 C1          0.2960   -1.0070   -6.0920 c1        1 DFS     -0.053000
      2 C2          0.9570   -0.1290   -6.9000 c1        1 DFS     -0.054000
      3 N3          1.3160    1.1190   -6.4180 n1        1 DFS     -0.048000
      4 C4          1.0100    1.4700   -5.1380 c1        1 DFS     -0.120000
      5 C5          0.3380    0.5790   -4.3150 c1        1 DFS      0.034000
      6 C6         -0.0160   -0.6500   -4.7880 c2        1 DFS     -0.126000
      7 N7          0.0830   -2.1450   -6.7990 n1        1 DFS     -0.172000
      8 C8          0.6100   -1.9750   -8.0400 c1        1 DFS     -0.034000
      9 N9          1.1490   -0.7280   -8.1010 n1        1 DFS     -0.172000
     10 N10        -0.0180    1.1390   -3.0650 n2        1 DFS     -0.304000
     11 C11         0.7070    0.7880   -1.9010 c1        1 DFS      0.362000
     12 C12         0.3140    1.3680   -0.5640 c1        1 DFS     -0.180000
     13 O13         1.6340    0.0080   -1.9750 o         1 DFS     -0.325000
     14 C14        -0.3840    0.6840    0.4180 c1        1 DFS      0.126000
     15 C15        -0.1860    0.9940    1.7540 c1        1 DFS      0.030000
     16 C16         0.7110    1.9900    2.1070 c2        1 DFS     -0.107000
     17 C17         1.4100    2.6740    1.1250 c1        1 DFS     -0.155000
     18 C18         1.2110    2.3640   -0.2100 c1        1 DFS      0.118000
     19 F19         1.9410    2.9740   -1.1550 f         1 DFS     -0.093000
     20 F20        -1.1990   -0.3240    0.0800 f         1 DFS     -0.080000
     21 N21        -0.8040    0.2080    2.7640 n2        1 DFS     -0.822000
     22 S22        -0.2160    0.2330    4.2970 s4        1 DFS      2.029800
     23 C23        -1.3870   -0.4800    5.4140 c2        1 DFS     -0.870000
     24 C24        -0.7440   -1.6290    6.1510 c3        1 DFS     -0.130000
     25 C25        -1.6870   -2.1370    7.2130 c3        1 DFS     -0.207000
     26 O26         0.1420    1.5660    4.6970 o         1 DFS     -0.529900
     27 O27         1.0560   -0.4340    4.3790 o         1 DFS     -0.529900
     28 H1          1.2630    2.3510   -4.7990 ha        1 DFS      0.160000
     29 H2         -0.4890   -1.2780   -4.2100 ha        1 DFS      0.180000
     30 H3         -0.3390   -2.8940   -6.4940 DU        1 DFS      0.232500
     31 H4          0.5800   -2.6230   -8.7700 DU        1 DFS      0.232500
     32 H6         -0.7020    1.7370   -3.0120 hn        1 DFS      0.241000
     33 H7          0.8510    2.2080    3.0460 ha        1 DFS      0.192000
     34 H8          2.0410    3.3750    1.3730 ha        1 DFS      0.168000
     35 H9         -1.4750   -0.3690    2.5440 hn        1 DFS      0.263000
     36 H10        -1.6790    0.1970    6.0580 ha        1 DFS      0.159000
     37 H11        -2.1610   -0.8070    4.9110 ha        1 DFS      0.159000
     38 H12        -0.5440   -2.3510    5.5200 hc        1 DFS      0.094000
     39 H13         0.0840   -1.3250    6.5700 hc        1 DFS      0.094000
     40 H14        -1.9270   -1.4020    7.8140 hc        1 DFS      0.079000
     41 H15        -2.4950   -2.4890    6.7890 hc        1 DFS      0.079000
     42 H16        -1.2510   -2.8480    7.7240 hc        1 DFS      0.079000
@<TRIPOS>BOND
     1    1    6 1   
     2    2    3 1   
     3    4    5 1   
     4    4   28 1   
     5    5    6 1   
     6    6   29 1   
     7    7    8 1   
     8    8    9 1   
     9   10   11 1   
    10   10   32 1   
    11   11   13 1   
    12   12   18 1   
    13   14   15 1   
    14   15   16 1   
    15   16   17 1   
    16   16   33 1   
    17   17   34 1   
    18   18   19 1   
    19   21   22 1   
    20   21   35 1   
    21   22   26 1   
    22   22   27 1   
    23   23   24 1   
    24   23   36 1   
    25   23   37 1   
    26   24   25 1   
    27   24   38 1   
    28   24   39 1   
    29   25   40 1   
    30   25   41 1   
    31   25   42 1   
@<TRIPOS>SUBSTRUCTURE
     1 DFS         1 TEMP              0 ****  ****    0 ROOT
