@<TRIPOS>MOLECULE
DFS
   42    44     1     0     0
SMALL
bcc


@<TRIPOS>ATOM
      1 C1          0.1590   -0.0450   -0.2630 ca        1 DFS     -0.163500
      2 C2          1.5590   -0.4640   -0.1560 ca        1 DFS      0.493300
      3 N3          2.1100   -0.8320    1.0340 nb        1 DFS     -0.574000
      4 C4          1.3030   -0.7910    2.0900 ca        1 DFS      0.345200
      5 C5         -0.0860   -0.3900    2.0790 ca        1 DFS     -0.038700
      6 C6         -0.6690   -0.0060    0.8640 ca        1 DFS     -0.126000
      7 N7         -0.0520    0.2540   -1.6080 na        1 DFS     -0.280300
      8 C8          1.1740    0.0170   -2.2600 cc        1 DFS      0.421700
      9 N9          2.1530   -0.4050   -1.4480 nd        1 DFS     -0.613700
     10 N10        -0.7720   -0.3860    3.3030 ns        1 DFS     -0.450100
     11 C11        -2.1340   -0.2020    3.4860 c         1 DFS      0.688700
     12 C12        -2.6100   -0.2780    4.9040 ca        1 DFS     -0.199600
     13 O13        -2.9280    0.0430    2.5620 o         1 DFS     -0.564100
     14 C14        -3.4170    0.7620    5.4050 ca        1 DFS      0.160900
     15 C15        -3.9530    0.7050    6.7300 ca        1 DFS      0.111600
     16 C16        -3.6570   -0.4280    7.5160 ca        1 DFS     -0.108000
     17 C17        -2.8470   -1.4440    7.0340 ca        1 DFS     -0.155000
     18 C18        -2.3160   -1.3770    5.7340 ca        1 DFS      0.152900
     19 F19        -1.5280   -2.3840    5.2890 f         1 DFS     -0.127900
     20 F20        -3.6970    1.8270    4.6190 f         1 DFS     -0.113900
     21 N21        -4.7620    1.7460    7.2030 nu        1 DFS     -0.774500
     22 S22        -4.9130    2.2980    8.7370 s6        1 DFS      1.458900
     23 C23        -3.5020    3.2510    8.9290 c3        1 DFS     -0.328600
     24 C24        -3.4720    3.8880   10.3040 c3        1 DFS     -0.057400
     25 C25        -2.2400    4.7320   10.4980 c3        1 DFS     -0.088100
     26 O26        -6.0420    3.1370    8.7700 o         1 DFS     -0.641800
     27 O27        -4.8660    1.2370    9.6590 o         1 DFS     -0.641800
     28 H1          1.7810   -1.0990    3.0390 h4        1 DFS      0.023100
     29 H2         -1.7210    0.3070    0.7860 ha        1 DFS      0.180000
     30 H3         -0.8960    0.5560   -2.0130 hn        1 DFS      0.312700
     31 H4          1.2850    0.1760   -3.3410 h5        1 DFS      0.072800
     32 H6         -0.2390   -0.6740    4.0960 hn        1 DFS      0.327500
     33 H7         -4.0720   -0.5190    8.5390 ha        1 DFS      0.192000
     34 H8         -2.6220   -2.3190    7.6640 ha        1 DFS      0.168000
     35 H9         -5.2730    2.1960    6.4720 hn        1 DFS      0.467800
     36 H10        -3.4390    4.0710    8.1650 h1        1 DFS      0.114700
     37 H11        -2.5630    2.6520    8.8020 h1        1 DFS      0.114700
     38 H12        -3.5020    3.0810   11.0860 hc        1 DFS      0.062200
     39 H13        -4.3890    4.5260   10.4350 hc        1 DFS      0.062200
     40 H14        -2.2010    5.5540    9.7430 hc        1 DFS      0.039367
     41 H15        -2.2460    5.1880   11.5180 hc        1 DFS      0.039367
     42 H16        -1.3170    4.1130   10.3930 hc        1 DFS      0.039367
@<TRIPOS>BOND
     1    1    2 ar  
     2    1    6 ar  
     3    1    7 1   
     4    2    3 ar  
     5    2    9 1   
     6    3    4 ar  
     7    4    5 ar  
     8    4   28 1   
     9    5    6 ar  
    10    5   10 1   
    11    6   29 1   
    12    7    8 1   
    13    7   30 1   
    14    8    9 2   
    15    8   31 1   
    16   10   11 1   
    17   10   32 1   
    18   11   12 1   
    19   11   13 2   
    20   12   14 ar  
    21   12   18 ar  
    22   14   15 ar  
    23   14   20 1   
    24   15   16 ar  
    25   15   21 1   
    26   16   17 ar  
    27   16   33 1   
    28   17   18 ar  
    29   17   34 1   
    30   18   19 1   
    31   21   22 1   
    32   21   35 1   
    33   22   23 1   
    34   22   26 2   
    35   22   27 2   
    36   23   24 1   
    37   23   36 1   
    38   23   37 1   
    39   24   25 1   
    40   24   38 1   
    41   24   39 1   
    42   25   40 1   
    43   25   41 1   
    44   25   42 1   
@<TRIPOS>SUBSTRUCTURE
     1 DFS         1 TEMP              0 ****  ****    0 ROOT
