@<TRIPOS>MOLECULE
DFS
   42    44     1     0     0
SMALL
bcc


@<TRIPOS>ATOM
      1 C1          0.1770   -0.0450   -0.2570 ca        1 DFS     -0.163500
      2 C2          1.5750   -0.4700   -0.1450 ca        1 DFS      0.493300
      3 N3          2.1190   -0.8430    1.0470 nb        1 DFS     -0.574000
      4 C4          1.3080   -0.7990    2.1000 ca        1 DFS      0.345200
      5 C5         -0.0790   -0.3930    2.0840 ca        1 DFS     -0.038700
      6 C6         -0.6550   -0.0050    0.8670 ca        1 DFS     -0.126000
      7 N7         -0.0270    0.2560   -1.6020 na        1 DFS     -0.280300
      8 C8          1.2000    0.0150   -2.2500 cc        1 DFS      0.421700
      9 N9          2.1740   -0.4120   -1.4340 nd        1 DFS     -0.613700
     10 N10        -0.7690   -0.3870    3.3050 n         1 DFS     -0.450100
     11 C11        -2.1320   -0.1970    3.4830 c         1 DFS      0.688700
     12 C12        -2.6140   -0.2740    4.8990 ca        1 DFS     -0.199600
     13 O13        -2.9210    0.0520    2.5560 o         1 DFS     -0.564100
     14 C14        -3.4190    0.7690    5.3990 ca        1 DFS      0.160900
     15 C15        -3.9600    0.7120    6.7210 ca        1 DFS      0.111600
     16 C16        -3.6720   -0.4240    7.5070 ca        1 DFS     -0.108000
     17 C17        -2.8650   -1.4430    7.0260 ca        1 DFS     -0.155000
     18 C18        -2.3280   -1.3760    5.7280 ca        1 DFS      0.152900
     19 F19        -1.5430   -2.3860    5.2850 f         1 DFS     -0.127900
     20 F20        -3.6910    1.8360    4.6130 f         1 DFS     -0.113900
     21 N21        -4.7660    1.7540    7.1930 nh        1 DFS     -0.774500
     22 S22        -4.9220    2.3040    8.7270 s6        1 DFS      1.458900
     23 C23        -3.5090    3.2510    8.9280 c3        1 DFS     -0.328600
     24 C24        -3.4830    3.8850   10.3040 c3        1 DFS     -0.057400
     25 C25        -2.2480    4.7230   10.5060 c3        1 DFS     -0.088100
     26 O26        -6.0480    3.1480    8.7560 o         1 DFS     -0.641800
     27 O27        -4.8840    1.2420    9.6470 o         1 DFS     -0.641800
     28 H1          1.7810   -1.1100    3.0510 h4        1 DFS      0.023100
     29 H2         -1.7060    0.3130    0.7860 ha        1 DFS      0.180000
     30 H3         -0.8690    0.5620   -2.0100 hn        1 DFS      0.312700
     31 H4          1.3160    0.1750   -3.3300 h5        1 DFS      0.072800
     32 H6         -0.2420   -0.6790    4.1000 hn        1 DFS      0.327500
     33 H7         -4.0920   -0.5160    8.5280 ha        1 DFS      0.192000
     34 H8         -2.6460   -2.3200    7.6550 ha        1 DFS      0.168000
     35 H9         -5.2730    2.2090    6.4600 hn        1 DFS      0.467800
     36 H10        -3.4380    4.0720    8.1650 h1        1 DFS      0.114700
     37 H11        -2.5710    2.6480    8.8040 h1        1 DFS      0.114700
     38 H12        -4.3970    4.5260   10.4320 hc        1 DFS      0.062200
     39 H13        -3.5200    3.0760   11.0840 hc        1 DFS      0.062200
     40 H14        -2.2010    5.5470    9.7530 hc        1 DFS      0.039367
     41 H15        -1.3260    4.1010   10.4030 hc        1 DFS      0.039367
     42 H16        -2.2570    5.1780   11.5270 hc        1 DFS      0.039367
@<TRIPOS>BOND
     1    1    2 ar  
     2    1    6 ar  
     3    1    7 1   
     4    2    3 ar  
     5    2    9 1   
     6    3    4 ar  
     7    4    5 ar  
     8    4   28 1   
     9    5    6 ar  
    10    5   10 1   
    11    6   29 1   
    12    7    8 1   
    13    7   30 1   
    14    8    9 2   
    15    8   31 1   
    16   10   11 1   
    17   10   32 1   
    18   11   12 1   
    19   11   13 2   
    20   12   14 ar  
    21   12   18 ar  
    22   14   15 ar  
    23   14   20 1   
    24   15   16 ar  
    25   15   21 1   
    26   16   17 ar  
    27   16   33 1   
    28   17   18 ar  
    29   17   34 1   
    30   18   19 1   
    31   21   22 1   
    32   21   35 1   
    33   22   23 1   
    34   22   26 2   
    35   22   27 2   
    36   23   24 1   
    37   23   36 1   
    38   23   37 1   
    39   24   25 1   
    40   24   38 1   
    41   24   39 1   
    42   25   40 1   
    43   25   41 1   
    44   25   42 1   
@<TRIPOS>SUBSTRUCTURE
     1 DFS         1 TEMP              0 ****  ****    0 ROOT
