@<TRIPOS>MOLECULE
DFS
   44    45     1     0     0
SMALL
bcc


@<TRIPOS>ATOM
      1 C1         -0.1290   -0.5400   -0.0870 ca        1 DFS     -0.191500
      2 C2          1.0010   -0.0150    0.7230 ca        1 DFS      0.589300
      3 N3          0.7990    0.8020    1.7950 nb        1 DFS     -0.562000
      4 C4         -0.4650    1.1030    2.0800 ca        1 DFS      0.415200
      5 C5         -1.6030    0.6220    1.3600 ca        1 DFS     -0.214700
      6 C6         -1.4400   -0.2180    0.2420 ca        1 DFS     -0.034000
      7 N7          0.4550   -1.3150   -1.0870 na        1 DFS     -0.257300
      8 C8          1.8420   -1.2510   -0.8800 cc        1 DFS      0.503700
      9 N9          2.2080   -0.5000    0.1790 nd        1 DFS     -0.596700
     10 N10        -2.9380    1.0350    1.7810 n4        1 DFS     -0.519200
     11 C11        -3.5750    0.0370    2.7270 c         1 DFS      0.568700
     12 C12        -2.9990   -0.1030    4.0740 ca        1 DFS     -0.244600
     13 O13        -4.5190   -0.5860    2.2670 o         1 DFS     -0.369100
     14 C14        -2.7370    1.0050    4.9140 ca        1 DFS      0.183900
     15 C15        -2.2990    0.8200    6.2490 ca        1 DFS     -0.034400
     16 C16        -2.0780   -0.4990    6.7120 ca        1 DFS     -0.030000
     17 C17        -2.3060   -1.5900    5.8940 ca        1 DFS     -0.142000
     18 C18        -2.7750   -1.4090    4.5740 ca        1 DFS      0.264900
     19 F19        -2.9980   -2.4780    3.7940 f         1 DFS     -0.068900
     20 F20        -2.9230    2.2590    4.4350 f         1 DFS     -0.130900
     21 N21        -2.0950    1.9290    7.1370 nh        1 DFS     -0.875200
     22 S22        -3.6700    1.9040    8.9510 s4        1 DFS      1.622500
     23 C23        -2.9580    3.1190    9.7350 c3        1 DFS     -0.516100
     24 C24        -3.6670    3.4290   11.0690 c3        1 DFS     -0.049400
     25 C25        -2.9850    4.5640   11.7880 c3        1 DFS     -0.103100
     26 O26        -4.7120    2.2030    8.1470 o         1 DFS     -0.402900
     27 O27        -3.3220    0.6460    9.3040 o         1 DFS     -0.402900
     28 H1         -0.5920    1.7870    2.9420 h4        1 DFS      0.025100
     29 H2         -2.2930   -0.5990   -0.3430 ha        1 DFS      0.172000
     30 H3         -0.0190   -1.7940   -1.8130 hn        1 DFS      0.339700
     31 H4          2.5540   -1.7790   -1.5410 h5        1 DFS      0.114800
     32 H6         -3.5400    1.1230    0.9460 hn        1 DFS      0.472800
     33 H7         -1.7300   -0.6730    7.7500 ha        1 DFS      0.193000
     34 H8         -2.1310   -2.6190    6.2640 ha        1 DFS      0.212000
     35 H9         -2.2010    2.7990    6.6340 hn        1 DFS      0.419300
     36 H10        -2.9330    4.1060    9.1760 h1        1 DFS      0.192200
     37 H11        -1.8710    2.9470   10.0110 h1        1 DFS      0.192200
     38 H12        -3.6460    2.5130   11.7180 hc        1 DFS      0.077200
     39 H13        -4.7350    3.7100   10.8620 hc        1 DFS      0.077200
     40 H14        -3.5210    4.7670   12.7500 hc        1 DFS      0.071700
     41 H15        -3.0030    5.4970   11.1740 hc        1 DFS      0.071700
     42 H16        -1.9240    4.3100   12.0250 hc        1 DFS      0.071700
     43 H102       -2.8750    1.9540    2.2410 hn        1 DFS      0.472800
     44 H212       -1.1580    1.8830    7.5120 hn        1 DFS      0.419300
@<TRIPOS>BOND
     1    1    2 ar  
     2    1    6 ar  
     3    1    7 1   
     4    2    3 ar  
     5    2    9 1   
     6    3    4 ar  
     7    4    5 ar  
     8    4   28 1   
     9    5    6 ar  
    10    5   10 1   
    11    6   29 1   
    12    7    8 1   
    13    7   30 1   
    14    8    9 2   
    15    8   31 1   
    16   10   11 1   
    17   10   32 1   
    18   10   43 1   
    19   11   12 1   
    20   11   13 2   
    21   12   14 ar  
    22   12   18 ar  
    23   14   15 ar  
    24   14   20 1   
    25   15   16 ar  
    26   15   21 1   
    27   16   17 ar  
    28   16   33 1   
    29   17   18 ar  
    30   17   34 1   
    31   18   19 1   
    32   21   35 1   
    33   21   44 1   
    34   22   23 1   
    35   22   26 1   
    36   22   27 1   
    37   23   24 1   
    38   23   36 1   
    39   23   37 1   
    40   24   25 1   
    41   24   38 1   
    42   24   39 1   
    43   25   40 1   
    44   25   41 1   
    45   25   42 1   
@<TRIPOS>SUBSTRUCTURE
     1 DFS         1 TEMP              0 ****  ****    0 ROOT
