@<TRIPOS>MOLECULE
DFS
   42    44     1     0     0
SMALL
bcc


@<TRIPOS>ATOM
      1 C1          5.5290   -0.5850    0.5880 ca        1 DFS     -0.163500
      2 C2          6.2240   -0.4950   -0.6990 ca        1 DFS      0.493300
      3 N3          5.5870   -0.0860   -1.8320 nb        1 DFS     -0.574000
      4 C4          4.3010    0.2260   -1.7000 ca        1 DFS      0.345200
      5 C5          3.5360    0.1640   -0.4760 ca        1 DFS     -0.038700
      6 C6          4.1740   -0.2550    0.6990 ca        1 DFS     -0.126000
      7 N7          6.4770   -1.0300    1.5070 na        1 DFS     -0.280300
      8 C8          7.6770   -1.1900    0.7880 cc        1 DFS      0.421700
      9 N9          7.5790   -0.8890   -0.5150 nd        1 DFS     -0.613700
     10 N10         2.1780    0.5090   -0.5390 n         1 DFS     -0.451100
     11 C11         1.3180    0.6800    0.5350 c         1 DFS      0.688700
     12 C12        -0.0820    1.0820    0.1830 ca        1 DFS     -0.199600
     13 O13         1.6450    0.4890    1.7180 o         1 DFS     -0.564100
     14 C14        -1.1550    0.3490    0.7280 ca        1 DFS      0.160900
     15 C15        -2.5090    0.7330    0.4770 ca        1 DFS      0.111600
     16 C16        -2.7390    1.8720   -0.3230 ca        1 DFS     -0.108000
     17 C17        -1.6860    2.5840   -0.8760 ca        1 DFS     -0.155000
     18 C18        -0.3570    2.1960   -0.6330 ca        1 DFS      0.152900
     19 F19         0.6510    2.9100   -1.1870 f         1 DFS     -0.127900
     20 F20        -0.9000   -0.7270    1.5060 f         1 DFS     -0.113900
     21 N21        -3.5610   -0.0040    1.0370 nh        1 DFS     -0.774500
     22 S22        -5.0570   -0.2640    0.4270 s6        1 DFS      1.458900
     23 C23        -4.7740   -1.4810   -0.7460 c3        1 DFS     -0.328600
     24 C24        -6.0710   -1.8890   -1.4150 c3        1 DFS     -0.057400
     25 C25        -5.8480   -2.9590   -2.4510 c3        1 DFS     -0.088100
     26 O26        -5.8440   -0.7990    1.4630 o         1 DFS     -0.641800
     27 O27        -5.5390    0.8840   -0.2270 o         1 DFS     -0.641800
     28 H1          3.8160    0.5560   -2.6390 h4        1 DFS      0.023100
     29 H2          3.6500   -0.3210    1.6650 ha        1 DFS      0.180000
     30 H3          6.3310   -1.1850    2.4680 hn        1 DFS      0.312700
     31 H4          8.5960   -1.5350    1.2800 h5        1 DFS      0.072800
     32 H6          1.8450    0.7830   -1.4390 hn        1 DFS      0.327500
     33 H7         -3.7740    2.2140   -0.5210 ha        1 DFS      0.192000
     34 H8         -1.8840    3.4670   -1.5030 ha        1 DFS      0.168000
     35 H9         -3.3100   -0.4280    1.9070 hn        1 DFS      0.467800
     36 H10        -4.0600   -1.1450   -1.5430 h1        1 DFS      0.114700
     37 H11        -4.3100   -2.4000   -0.2970 h1        1 DFS      0.114700
     38 H12        -6.7870   -2.2650   -0.6340 hc        1 DFS      0.062200
     39 H13        -6.5360   -0.9880   -1.8990 hc        1 DFS      0.062200
     40 H14        -5.1550   -2.5990   -3.2490 hc        1 DFS      0.039367
     41 H15        -5.4050   -3.8730   -1.9860 hc        1 DFS      0.039367
     42 H16        -6.8200   -3.2400   -2.9250 hc        1 DFS      0.039367
@<TRIPOS>BOND
     1    1    2 ar  
     2    1    6 ar  
     3    1    7 1   
     4    2    3 ar  
     5    2    9 1   
     6    3    4 ar  
     7    4    5 ar  
     8    4   28 1   
     9    5    6 ar  
    10    5   10 1   
    11    6   29 1   
    12    7    8 1   
    13    7   30 1   
    14    8    9 2   
    15    8   31 1   
    16   10   11 1   
    17   10   32 1   
    18   11   12 1   
    19   11   13 2   
    20   12   14 ar  
    21   12   18 ar  
    22   14   15 ar  
    23   14   20 1   
    24   15   16 ar  
    25   15   21 1   
    26   16   17 ar  
    27   16   33 1   
    28   17   18 ar  
    29   17   34 1   
    30   18   19 1   
    31   21   22 1   
    32   21   35 1   
    33   22   23 1   
    34   22   26 2   
    35   22   27 2   
    36   23   24 1   
    37   23   36 1   
    38   23   37 1   
    39   24   25 1   
    40   24   38 1   
    41   24   39 1   
    42   25   40 1   
    43   25   41 1   
    44   25   42 1   
@<TRIPOS>SUBSTRUCTURE
     1 DFS         1 TEMP              0 ****  ****    0 ROOT
