@<TRIPOS>MOLECULE
DFT
   34    35     1     0     0
SMALL
bcc


@<TRIPOS>ATOM
      1 P           1.4290   -0.2190    3.2380 p5        1 DFT      1.309900
      2 OP1         1.6170   -1.6930    3.4670 o         1 DFT     -0.926167
      3 OP2         2.6650    0.6270    3.1640 o         1 DFT     -0.926167
      4 OP3         0.2000    0.3730    3.8730 o         1 DFT     -0.926167
      5 O5'         0.8900   -0.2230    1.5590 os        1 DFT     -0.554200
      6 C5'        -0.2540   -0.9410    1.3800 c3        1 DFT      0.229400
      7 C4'        -1.5020   -0.0450    1.1950 c3        1 DFT      0.047100
      8 O4'        -1.3300    0.9780    0.1890 os        1 DFT     -0.400600
      9 C3'        -2.6940   -0.8890    0.7020 c3        1 DFT      0.111100
     10 O3'        -3.9480   -0.4440    1.1970 oh        1 DFT     -0.626800
     11 C2'        -2.6450   -0.7400   -0.8300 c3        1 DFT     -0.129400
     12 C1'        -1.7700    0.4990   -1.0810 c3        1 DFT      0.187400
     13 C2         -0.8180    0.0470   -3.3820 ca        1 DFT      0.110900
     14 C4          1.5680   -0.2070   -3.7160 ca        1 DFT      0.106900
     15 C5          1.7920   -0.0070   -2.3390 ca        1 DFT     -0.108300
     16 C5M         3.1550   -0.0380   -1.7630 c3        1 DFT     -0.058800
     17 C6          0.6940    0.2220   -1.5040 ca        1 DFT     -0.047000
     18 F4          2.6080   -0.4320   -4.5620 f         1 DFT     -0.167900
     19 C3          0.2670   -0.1780   -4.2450 ca        1 DFT     -0.237000
     20 F2         -2.0690    0.0830   -3.9140 f         1 DFT     -0.166900
     21 C1         -0.6130    0.2400   -2.0000 ca        1 DFT     -0.128300
     22 H5'        -0.4570   -1.6140    2.2630 h1        1 DFT     -0.007300
     23 H5''       -0.1670   -1.5750    0.4430 h1        1 DFT     -0.007300
     24 H4'        -1.6880    0.5250    2.1470 h1        1 DFT      0.136700
     25 H3'        -2.6160   -1.9590    1.0240 h1        1 DFT      0.079700
     26 HO3'       -3.8650    0.5030    1.3590 ho        1 DFT      0.401000
     27 H2'        -3.6670   -0.5950   -1.2520 hc        1 DFT      0.045200
     28 H2''       -2.1910   -1.6480   -1.2900 hc        1 DFT      0.045200
     29 H1'        -2.3830    1.3370   -1.5230 h1        1 DFT      0.038700
     30 H71         3.7440   -0.8820   -2.1980 hc        1 DFT      0.057700
     31 H72         3.6900    0.9170   -1.9950 hc        1 DFT      0.057700
     32 H73         3.1090   -0.1570   -0.6470 hc        1 DFT      0.057700
     33 H6          0.8600    0.3820   -0.4030 ha        1 DFT      0.266000
     34 H3          0.1000   -0.3320   -5.3170 ha        1 DFT      0.130000
@<TRIPOS>BOND
     1    1    2 1   
     2    1    3 1   
     3    1    4 1   
     4    1    5 1   
     5    5    6 1   
     6    6    7 1   
     7    6   22 1   
     8    6   23 1   
     9    7    8 1   
    10    7    9 1   
    11    7   24 1   
    12    8   12 1   
    13    9   10 1   
    14    9   11 1   
    15    9   25 1   
    16   10   26 1   
    17   11   12 1   
    18   11   27 1   
    19   11   28 1   
    20   12   21 1   
    21   12   29 1   
    22   13   19 ar  
    23   13   20 1   
    24   13   21 ar  
    25   14   15 ar  
    26   14   18 1   
    27   14   19 ar  
    28   15   16 1   
    29   15   17 ar  
    30   16   30 1   
    31   16   31 1   
    32   16   32 1   
    33   17   21 ar  
    34   17   33 1   
    35   19   34 1   
@<TRIPOS>SUBSTRUCTURE
     1 DFT         1 TEMP              0 ****  ****    0 ROOT
