@<TRIPOS>MOLECULE
DFT
   34    31     1     0     0
SMALL
bcc


@<TRIPOS>ATOM
      1 P          -1.2810   -5.0750    1.3930 p4        1 DFT      1.698200
      2 OP1         0.1520   -5.3460    1.7680 o         1 DFT     -0.942000
      3 OP2        -2.1910   -5.5670    2.4950 os        1 DFT     -1.230000
      4 OP3        -1.6110   -5.7990    0.1070 o         1 DFT     -0.990800
      5 O5'        -1.4890   -3.5200    1.1910 os        1 DFT     -0.557200
      6 C5'        -0.6590   -2.8460    0.2720 c3        1 DFT      0.225400
      7 C4'        -1.3410   -1.5560   -0.1800 c3        1 DFT      0.057100
      8 O4'        -0.8570   -0.5510    0.4550 os        1 DFT     -0.441600
      9 C3'        -1.0260   -1.2730   -1.7000 c3        1 DFT      0.157100
     10 O3'        -2.1420   -1.4470   -2.4550 oh        1 DFT     -0.671800
     11 C2'        -0.5760    0.1560   -1.7580 c3        1 DFT     -0.115400
     12 C1'        -0.8780    0.6630   -0.5600 c3        1 DFT      0.155200
     13 C2         -0.3990    2.9240   -0.4690 c1        1 DFT      0.087100
     14 C4          1.4350    4.0200    0.6550 c1        1 DFT      0.076100
     15 C5          1.9830    2.7830    0.9660 c1        1 DFT     -0.079100
     16 C5M         3.3450    2.7020    1.7060 c3        1 DFT     -0.089000
     17 C6          1.3420    1.6170    0.5600 c1        1 DFT      0.001500
     18 F4          2.1160    5.1370    0.9310 f         1 DFT     -0.132100
     19 C3          0.2430    4.0920   -0.0630 c1        1 DFT     -0.168500
     20 F2         -1.4880    2.9950   -1.2510 f         1 DFT     -0.125100
     21 C1          0.1480    1.6900   -0.1590 c1        1 DFT     -0.073100
     22 H5'         0.1970   -2.6300    0.7010 h1        1 DFT     -0.004300
     23 H5''       -0.5000   -3.4180   -0.5030 h1        1 DFT     -0.004300
     24 H4'        -2.3080   -1.6140   -0.0380 h1        1 DFT      0.065700
     25 H3'        -0.3140   -1.8620   -2.0110 h1        1 DFT      0.095700
     26 HO3'       -1.9460   -1.9510   -3.1630 ho        1 DFT      0.498000
     27 H2'         0.3860    0.2030   -1.9140 hc        1 DFT      0.041200
     28 H2''       -1.0600    0.6370   -2.4630 hc        1 DFT      0.041200
     29 H1'        -1.7710    1.0690   -0.5810 h1        1 DFT      0.038700
     30 H71         3.2310    2.9980    2.6380 hc        1 DFT      0.052700
     31 H72         3.9980    3.2830    1.2550 hc        1 DFT      0.052700
     32 H73         3.6700    1.7730    1.6940 hc        1 DFT      0.052700
     33 H6          1.7270    0.7490    0.7780 ha        1 DFT      0.151500
     34 H3         -0.1360    4.9640   -0.2960 ha        1 DFT      0.077500
@<TRIPOS>BOND
     1    1    2 1   
     2    1    4 2   
     3    1    5 1   
     4    5    6 1   
     5    6    7 1   
     6    6   22 1   
     7    6   23 1   
     8    7    8 1   
     9    7    9 1   
    10    7   24 1   
    11    8   12 1   
    12    9   10 1   
    13    9   11 1   
    14    9   25 1   
    15   10   26 1   
    16   11   12 1   
    17   11   27 1   
    18   11   28 1   
    19   12   21 1   
    20   12   29 1   
    21   13   20 1   
    22   13   21 3   
    23   14   18 1   
    24   14   19 3   
    25   15   16 1   
    26   15   17 3   
    27   16   30 1   
    28   16   31 1   
    29   16   32 1   
    30   17   33 1   
    31   19   34 1   
@<TRIPOS>SUBSTRUCTURE
     1 DFT         1 TEMP              0 ****  ****    0 ROOT
