@<TRIPOS>MOLECULE
DFU
   23    23     1     0     0
SMALL
bcc


@<TRIPOS>ATOM
      1 C1         -0.1350    0.5050    0.8390 c3        1 DFU      0.137800
      2 C2         -1.6350    0.7380    1.0880 c3        1 DFU      0.095100
      3 C3         -2.3200   -0.5800    1.4840 c3        1 DFU      0.078100
      4 C4         -1.6050   -1.2490    2.6710 c3        1 DFU      0.158100
      5 C5         -0.1040   -1.4220    2.3140 c3        1 DFU      0.135500
      6 C6          0.6100   -2.0950    3.4820 c3        1 DFU     -0.089100
      7 O4         -1.7900   -0.5580    3.8840 oh        1 DFU     -0.571800
      8 O3         -3.6680   -0.3670    1.8580 oh        1 DFU     -0.579800
      9 O2         -2.2600    1.2930   -0.0530 oh        1 DFU     -0.592800
     10 N5          0.5030   -0.1410    1.9640 n3        1 DFU     -0.826200
     11 H11        -0.0290   -0.0840   -0.1220 h1        1 DFU      0.038200
     12 H12         0.3630    1.5020    0.6820 h1        1 DFU      0.038200
     13 H2         -1.7950    1.5130    1.8910 h1        1 DFU      0.099700
     14 H3         -2.2950   -1.2850    0.6030 h1        1 DFU      0.032700
     15 H4         -2.0640   -2.2600    2.8610 h1        1 DFU      0.089700
     16 H5         -0.0700   -2.1340    1.4290 h1        1 DFU      0.018700
     17 H61         0.4980   -1.4820    4.4100 hc        1 DFU      0.046367
     18 H62         0.1470   -3.0950    3.6600 hc        1 DFU      0.046367
     19 H63         1.6950   -2.2340    3.2640 hc        1 DFU      0.046367
     20 HO4        -1.4330    0.3330    3.7740 ho        1 DFU      0.408000
     21 HO3        -4.0290    0.2790    1.2340 ho        1 DFU      0.413000
     22 HO2        -2.0990    0.6980   -0.7960 ho        1 DFU      0.400000
     23 HN5         1.4850   -0.2530    1.8000 hn        1 DFU      0.375800
@<TRIPOS>BOND
     1    1    2 1   
     2    1   10 1   
     3    1   11 1   
     4    1   12 1   
     5    2    3 1   
     6    2    9 1   
     7    2   13 1   
     8    3    4 1   
     9    3    8 1   
    10    3   14 1   
    11    4    5 1   
    12    4    7 1   
    13    4   15 1   
    14    5    6 1   
    15    5   10 1   
    16    5   16 1   
    17    6   17 1   
    18    6   18 1   
    19    6   19 1   
    20    7   20 1   
    21    8   21 1   
    22    9   22 1   
    23   10   23 1   
@<TRIPOS>SUBSTRUCTURE
     1 DFU         1 TEMP              0 ****  ****    0 ROOT
