@<TRIPOS>MOLECULE
DFU
   23    23     1     0     0
SMALL
bcc


@<TRIPOS>ATOM
      1 C1          0.0820    0.0330    0.0210 c3        1 DFU      0.140800
      2 C2          1.6160   -0.0530    0.1060 c3        1 DFU      0.103100
      3 C3          2.0580   -0.0270    1.5770 c3        1 DFU      0.110100
      4 C4          1.3720   -1.1600    2.3580 c3        1 DFU      0.155100
      5 C5         -0.1640   -1.0790    2.1720 c3        1 DFU      0.183500
      6 C6         -0.8150   -2.2540    2.8990 c3        1 DFU     -0.088100
      7 O4          1.8190   -2.4360    1.9400 oh        1 DFU     -0.586800
      8 O3          3.4560   -0.2450    1.6900 oh        1 DFU     -0.611800
      9 O2          2.2140    1.0790   -0.5090 oh        1 DFU     -0.611800
     10 N5         -0.5560   -1.0260    0.7680 n3        1 DFU     -0.812200
     11 H11        -0.2280   -0.0760   -1.0560 h1        1 DFU      0.034700
     12 H12        -0.2250    1.0650    0.3630 h1        1 DFU      0.034700
     13 H2          1.9890   -0.9980   -0.3800 h1        1 DFU      0.071700
     14 H3          1.7970    0.9690    2.0310 h1        1 DFU      0.054700
     15 H4          1.6060   -1.0340    3.4530 h1        1 DFU      0.046700
     16 H5         -0.4750   -0.1230    2.7040 h1        1 DFU      0.011700
     17 H61        -1.9270   -2.1950    2.8350 hc        1 DFU      0.046033
     18 H62        -0.5130   -2.2270    3.9730 hc        1 DFU      0.046033
     19 H63        -0.4730   -3.2210    2.4560 hc        1 DFU      0.046033
     20 HO4         2.7840   -2.3900    1.8990 ho        1 DFU      0.418000
     21 HO3         3.8820    0.3780    1.0860 ho        1 DFU      0.426000
     22 HO2         1.9590    1.0590   -1.4380 ho        1 DFU      0.410000
     23 HN5        -1.5540   -0.9580    0.6950 hn        1 DFU      0.370800
@<TRIPOS>BOND
     1    1    2 1   
     2    1   10 1   
     3    1   11 1   
     4    1   12 1   
     5    2    3 1   
     6    2    9 1   
     7    2   13 1   
     8    3    4 1   
     9    3    8 1   
    10    3   14 1   
    11    4    5 1   
    12    4    7 1   
    13    4   15 1   
    14    5    6 1   
    15    5   10 1   
    16    5   16 1   
    17    6   17 1   
    18    6   18 1   
    19    6   19 1   
    20    7   20 1   
    21    8   21 1   
    22    9   22 1   
    23   10   23 1   
@<TRIPOS>SUBSTRUCTURE
     1 DFU         1 TEMP              0 ****  ****    0 ROOT
