@<TRIPOS>MOLECULE
DFU
   23    23     1     0     0
SMALL
bcc


@<TRIPOS>ATOM
      1 C1         -0.9850    0.7880   -1.3320 c3        1 DFU      0.127800
      2 C2          0.5370    0.7880   -1.3320 c3        1 DFU      0.066100
      3 C3          1.1010    0.7880    0.0420 c3        1 DFU      0.112100
      4 C4          0.5260   -0.2940    0.8880 c3        1 DFU      0.111100
      5 C5         -0.9950   -0.2890    0.8770 c3        1 DFU      0.171500
      6 C6         -1.4880   -1.5070    1.5950 c3        1 DFU     -0.089100
      7 O4          0.9890   -1.5600    0.3980 oh        1 DFU     -0.605800
      8 O3          2.5390    0.6040   -0.0420 oh        1 DFU     -0.612800
      9 O2          1.0010    1.9570   -2.0250 oh        1 DFU     -0.606800
     10 N5         -1.5500   -0.2830   -0.4870 n3        1 DFU     -0.789200
     11 H11        -1.3000    1.6510   -1.0020 h1        1 DFU      0.058700
     12 H12        -1.3000    0.6670   -2.2480 h1        1 DFU      0.058700
     13 H2          0.8530   -0.0050   -1.8040 h1        1 DFU      0.056700
     14 H3          0.9160    1.6500    0.4610 h1        1 DFU      0.058700
     15 H4          0.8360   -0.1770    1.8060 h1        1 DFU      0.054700
     16 H5         -1.3110    0.5050    1.3490 h1        1 DFU      0.060700
     17 H61        -1.1050   -1.5330    2.4920 hc        1 DFU      0.046367
     18 H62        -1.2180   -2.3060    1.1030 hc        1 DFU      0.046367
     19 H63        -2.4620   -1.4760    1.6570 hc        1 DFU      0.046367
     20 HO4         1.6110   -1.8790    0.9450 ho        1 DFU      0.422000
     21 HO3         2.9480    1.2670    0.3850 ho        1 DFU      0.426000
     22 HO2         1.2570    1.7330   -2.8440 ho        1 DFU      0.409000
     23 HN5        -1.4000   -1.0920   -0.8800 hn        1 DFU      0.366800
@<TRIPOS>BOND
     1    1    2 1   
     2    1   10 1   
     3    1   11 1   
     4    1   12 1   
     5    2    3 1   
     6    2    9 1   
     7    2   13 1   
     8    3    4 1   
     9    3    8 1   
    10    3   14 1   
    11    4    5 1   
    12    4    7 1   
    13    4   15 1   
    14    5    6 1   
    15    5   10 1   
    16    5   16 1   
    17    6   17 1   
    18    6   18 1   
    19    6   19 1   
    20    7   20 1   
    21    8   21 1   
    22    9   22 1   
    23   10   23 1   
@<TRIPOS>SUBSTRUCTURE
     1 DFU         1 TEMP              0 ****  ****    0 ROOT
