@<TRIPOS>MOLECULE
DFU
   23    23     1     0     0
SMALL
bcc


@<TRIPOS>ATOM
      1 C1          0.0800    0.0350    0.0240 c3        1 DFU      0.140800
      2 C2          1.6140   -0.0470    0.1090 c3        1 DFU      0.103100
      3 C3          2.0570   -0.0240    1.5790 c3        1 DFU      0.110100
      4 C4          1.3730   -1.1620    2.3560 c3        1 DFU      0.155100
      5 C5         -0.1630   -1.0850    2.1720 c3        1 DFU      0.183500
      6 C6         -0.8100   -2.2630    2.8940 c3        1 DFU     -0.088100
      7 O4          1.8230   -2.4350    1.9340 oh        1 DFU     -0.586800
      8 O3          3.4540   -0.2400    1.6900 oh        1 DFU     -0.611800
      9 O2          2.2080    1.0880   -0.5030 oh        1 DFU     -0.611800
     10 N5         -0.5560   -1.0280    0.7680 n3        1 DFU     -0.812200
     11 H11        -0.2300    1.0660    0.3690 h1        1 DFU      0.034700
     12 H12        -0.2310   -0.0700   -1.0530 h1        1 DFU      0.034700
     13 H2          1.9880   -0.9890   -0.3810 h1        1 DFU      0.071700
     14 H3          1.7930    0.9690    2.0370 h1        1 DFU      0.054700
     15 H4          1.6080   -1.0390    3.4520 h1        1 DFU      0.046700
     16 H5         -0.4760   -0.1310    2.7070 h1        1 DFU      0.011700
     17 H61        -0.4670   -3.2280    2.4480 hc        1 DFU      0.046033
     18 H62        -1.9230   -2.2070    2.8320 hc        1 DFU      0.046033
     19 H63        -0.5080   -2.2390    3.9680 hc        1 DFU      0.046033
     20 HO4         2.7890   -2.3870    1.8930 ho        1 DFU      0.418000
     21 HO3         3.8790    0.3860    1.0890 ho        1 DFU      0.426000
     22 HO2         1.9540    1.0710   -1.4330 ho        1 DFU      0.410000
     23 HN5        -1.5530   -0.9620    0.6950 hn        1 DFU      0.370800
@<TRIPOS>BOND
     1    1    2 1   
     2    1   10 1   
     3    1   11 1   
     4    1   12 1   
     5    2    3 1   
     6    2    9 1   
     7    2   13 1   
     8    3    4 1   
     9    3    8 1   
    10    3   14 1   
    11    4    5 1   
    12    4    7 1   
    13    4   15 1   
    14    5    6 1   
    15    5   10 1   
    16    5   16 1   
    17    6   17 1   
    18    6   18 1   
    19    6   19 1   
    20    7   20 1   
    21    8   21 1   
    22    9   22 1   
    23   10   23 1   
@<TRIPOS>SUBSTRUCTURE
     1 DFU         1 TEMP              0 ****  ****    0 ROOT
