@<TRIPOS>MOLECULE
DFU
   23    23     1     0     0
SMALL
bcc


@<TRIPOS>ATOM
      1 C1          0.0830    0.0350    0.0220 c3        1 DFU      0.140800
      2 C2          1.6170   -0.0460    0.1110 c3        1 DFU      0.103100
      3 C3          2.0550   -0.0230    1.5830 c3        1 DFU      0.110100
      4 C4          1.3710   -1.1620    2.3580 c3        1 DFU      0.155100
      5 C5         -0.1650   -1.0860    2.1680 c3        1 DFU      0.183500
      6 C6         -0.8140   -2.2650    2.8890 c3        1 DFU     -0.088100
      7 O4          1.8230   -2.4340    1.9360 oh        1 DFU     -0.586800
      8 O3          3.4530   -0.2370    1.6990 oh        1 DFU     -0.611800
      9 O2          2.2120    1.0900   -0.4980 oh        1 DFU     -0.611800
     10 N5         -0.5540   -1.0290    0.7630 n7        1 DFU     -0.812200
     11 H11        -0.2240   -0.0710   -1.0560 h1        1 DFU      0.034700
     12 H12        -0.2290    1.0650    0.3660 h1        1 DFU      0.034700
     13 H2          1.9940   -0.9870   -0.3770 h1        1 DFU      0.071700
     14 H3          1.7890    0.9700    2.0400 h1        1 DFU      0.054700
     15 H4          1.6010   -1.0390    3.4540 h1        1 DFU      0.046700
     16 H5         -0.4810   -0.1330    2.7030 h1        1 DFU      0.011700
     17 H61        -1.9260   -2.2100    2.8220 hc        1 DFU      0.046033
     18 H62        -0.4680   -3.2290    2.4430 hc        1 DFU      0.046033
     19 H63        -0.5150   -2.2410    3.9640 hc        1 DFU      0.046033
     20 HO4         2.7890   -2.3850    1.8980 ho        1 DFU      0.418000
     21 HO3         3.8790    0.3890    1.0990 ho        1 DFU      0.426000
     22 HO2         1.9600    1.0730   -1.4290 ho        1 DFU      0.410000
     23 HN5        -1.5510   -0.9640    0.6870 hn        1 DFU      0.370800
@<TRIPOS>BOND
     1    1    2 1   
     2    1   10 1   
     3    1   11 1   
     4    1   12 1   
     5    2    3 1   
     6    2    9 1   
     7    2   13 1   
     8    3    4 1   
     9    3    8 1   
    10    3   14 1   
    11    4    5 1   
    12    4    7 1   
    13    4   15 1   
    14    5    6 1   
    15    5   10 1   
    16    5   16 1   
    17    6   17 1   
    18    6   18 1   
    19    6   19 1   
    20    7   20 1   
    21    8   21 1   
    22    9   22 1   
    23   10   23 1   
@<TRIPOS>SUBSTRUCTURE
     1 DFU         1 TEMP              0 ****  ****    0 ROOT
