@<TRIPOS>MOLECULE
DFV
   31    33     1     0     0
SMALL
bcc


@<TRIPOS>ATOM
      1 C1          0.0610    0.1640   -0.0340 ca        1 DFV      0.185100
      2 C2          1.4700    0.2240   -0.0260 ca        1 DFV     -0.204000
      3 C3          2.1400    0.1370    1.1840 ca        1 DFV     -0.009000
      4 C4          1.4400   -0.0070    2.3920 ca        1 DFV     -0.282600
      5 C5          0.0350   -0.0820    2.3590 ca        1 DFV      0.208100
      6 C6         -0.6700    0.0050    1.1490 ca        1 DFV     -0.265000
      7 C7          2.1540   -0.0450    3.6730 c         1 DFV      0.591700
      8 C8          1.2690   -0.0210    4.8890 c3        1 DFV     -0.211400
      9 C9         -0.0420   -0.7530    4.6370 c3        1 DFV      0.204400
     10 O1         -0.7390   -0.2100    3.4910 os        1 DFV     -0.322900
     11 C10        -0.9720   -0.6250    5.8030 ca        1 DFV     -0.135300
     12 C11        -1.7270    0.5390    5.9930 ca        1 DFV     -0.070500
     13 C12        -2.5780    0.6620    7.0850 ca        1 DFV     -0.188000
     14 C13        -2.6680   -0.4000    8.0020 ca        1 DFV      0.135100
     15 C14        -1.9190   -1.5720    7.8200 ca        1 DFV     -0.188000
     16 C15        -1.0780   -1.6790    6.7160 ca        1 DFV     -0.070500
     17 O2          3.3870   -0.0600    3.7670 o         1 DFV     -0.534100
     18 O3         -0.5450    0.2620   -1.2600 oh        1 DFV     -0.489100
     19 O4         -3.5200   -0.2210    9.0650 oh        1 DFV     -0.494100
     20 H2          2.0110    0.3400   -0.9750 ha        1 DFV      0.158000
     21 H3          3.2420    0.1850    1.2170 ha        1 DFV      0.160000
     22 H6         -1.7660   -0.0490    1.1470 ha        1 DFV      0.156000
     23 H81         1.0640    1.0530    5.1480 hc        1 DFV      0.089700
     24 H82         1.7960   -0.4900    5.7600 hc        1 DFV      0.089700
     25 H9          0.1650   -1.8400    4.4140 h1        1 DFV      0.062700
     26 H11        -1.6510    1.3570    5.2590 ha        1 DFV      0.142000
     27 H12        -3.1770    1.5690    7.2440 ha        1 DFV      0.146000
     28 H14        -1.9990   -2.3990    8.5400 ha        1 DFV      0.146000
     29 H15        -0.4950   -2.6010    6.5650 ha        1 DFV      0.142000
     30 HO3        -1.5040    0.2100   -1.1310 ho        1 DFV      0.426000
     31 HO4        -3.4910   -1.0210    9.6110 ho        1 DFV      0.421000
@<TRIPOS>BOND
     1    1    2 ar  
     2    1    6 ar  
     3    1   18 1   
     4    2    3 ar  
     5    2   20 1   
     6    3    4 ar  
     7    3   21 1   
     8    4    5 ar  
     9    4    7 1   
    10    5    6 ar  
    11    5   10 1   
    12    6   22 1   
    13    7    8 1   
    14    7   17 2   
    15    8    9 1   
    16    8   23 1   
    17    8   24 1   
    18    9   10 1   
    19    9   11 1   
    20    9   25 1   
    21   11   12 ar  
    22   11   16 ar  
    23   12   13 ar  
    24   12   26 1   
    25   13   14 ar  
    26   13   27 1   
    27   14   15 ar  
    28   14   19 1   
    29   15   16 ar  
    30   15   28 1   
    31   16   29 1   
    32   18   30 1   
    33   19   31 1   
@<TRIPOS>SUBSTRUCTURE
     1 DFV         1 TEMP              0 ****  ****    0 ROOT
