@<TRIPOS>MOLECULE
DFV
   31    28     1     0     0
SMALL
bcc


@<TRIPOS>ATOM
      1 C1          0.0150   -0.8960   -3.7610 c1        1 DFV      0.116500
      2 C2          1.3340   -0.3630   -3.6210 c1        1 DFV     -0.106500
      3 C3          1.8920   -0.1860   -2.3400 c1        1 DFV     -0.106500
      4 C4          1.1630   -0.5290   -1.2140 c1        1 DFV     -0.259000
      5 C5         -0.1840   -1.0740   -1.3560 c1        1 DFV      0.171000
      6 C6         -0.7300   -1.2460   -2.6180 c1        1 DFV     -0.212500
      7 C7          1.8870   -0.7220    0.1500 c2        1 DFV      0.285000
      8 C8          1.2660   -1.5450    1.1060 c3        1 DFV     -0.239000
      9 C9         -0.2310   -1.4330    1.0810 c3        1 DFV      0.088000
     10 O1         -0.8570   -1.6200   -0.1310 os        1 DFV     -0.208000
     11 C10        -0.6170    0.0160    1.6090 c2        1 DFV     -0.158000
     12 C11        -1.2660    0.1610    2.8260 c2        1 DFV     -0.064000
     13 C12        -1.5380    1.4280    3.3200 c1        1 DFV     -0.219000
     14 C13        -1.1610    2.5490    2.5980 c1        1 DFV      0.116500
     15 C14        -0.5130    2.4040    1.3820 c1        1 DFV     -0.212500
     16 C15        -0.2400    1.1370    0.8870 c1        1 DFV     -0.075000
     17 O2          3.0660   -0.4510    0.2550 o         1 DFV     -0.300000
     18 O3         -0.5140   -1.1370   -5.0450 oh        1 DFV     -0.245500
     19 O4         -1.4820    3.8320    3.0750 oh        1 DFV     -0.245500
     20 H2          1.8490   -0.1200   -4.4160 ha        1 DFV      0.158500
     21 H3          2.7920    0.1780   -2.2460 ha        1 DFV      0.158500
     22 H6         -1.6300   -1.6110   -2.7150 ha        1 DFV      0.155000
     23 H81         1.7060   -1.3440    1.9590 hc        1 DFV      0.127000
     24 H82         1.4880   -2.4930    1.0040 hc        1 DFV      0.127000
     25 H9         -0.5920   -2.0910    1.7100 h1        1 DFV      0.125000
     26 H11        -1.5310   -0.6290    3.3340 ha        1 DFV      0.140000
     27 H12        -1.9950    1.5290    4.1780 ha        1 DFV      0.136000
     28 H14        -0.2470    3.1960    0.8730 ha        1 DFV      0.155000
     29 H15         0.2170    1.0360    0.0300 ha        1 DFV      0.147000
     30 HO3        -0.9830   -1.8920   -5.0360 ho        1 DFV      0.222000
     31 HO4        -2.3630    3.9180    3.1230 ho        1 DFV      0.222000
@<TRIPOS>BOND
     1    1    6 1   
     2    1   18 1   
     3    2    3 1   
     4    2   20 1   
     5    3   21 1   
     6    4    5 1   
     7    4    7 1   
     8    5   10 1   
     9    6   22 1   
    10    7    8 1   
    11    7   17 1   
    12    8    9 1   
    13    8   23 1   
    14    8   24 1   
    15    9   10 1   
    16    9   11 1   
    17    9   25 1   
    18   11   12 1   
    19   11   16 1   
    20   12   13 1   
    21   12   26 1   
    22   13   27 1   
    23   14   15 1   
    24   14   19 1   
    25   15   28 1   
    26   16   29 1   
    27   18   30 1   
    28   19   31 1   
@<TRIPOS>SUBSTRUCTURE
     1 DFV         1 TEMP              0 ****  ****    0 ROOT
