@<TRIPOS>MOLECULE
DFV
   31    33     1     0     0
SMALL
bcc


@<TRIPOS>ATOM
      1 C1          1.3180    0.2140   -3.9140 ca        1 DFV      0.185100
      2 C2          0.0390    0.0020   -4.4670 ca        1 DFV     -0.204000
      3 C3         -1.0440   -0.1560   -3.6170 ca        1 DFV     -0.009000
      4 C4         -0.8850   -0.1100   -2.2230 ca        1 DFV     -0.282600
      5 C5          0.3980    0.1210   -1.6930 ca        1 DFV      0.207100
      6 C6          1.5130    0.2820   -2.5300 ca        1 DFV     -0.265000
      7 C7         -2.0270   -0.3310   -1.3300 c         1 DFV      0.591700
      8 C8         -1.6760   -0.4310    0.1290 c3        1 DFV     -0.211400
      9 C9         -0.4970    0.4670    0.4800 c3        1 DFV      0.204400
     10 O1          0.6570    0.1710   -0.3410 os        1 DFV     -0.321900
     11 C10        -0.0700    0.2760    1.9020 ca        1 DFV     -0.135300
     12 C11         0.7270   -0.8160    2.2710 ca        1 DFV     -0.070500
     13 C12         1.1080   -1.0000    3.5950 ca        1 DFV     -0.188000
     14 C13         0.6820   -0.0730    4.5620 ca        1 DFV      0.135100
     15 C14        -0.1120    1.0260    4.2040 ca        1 DFV     -0.188000
     16 C15        -0.4790    1.1970    2.8720 ca        1 DFV     -0.070500
     17 O2         -3.1900   -0.4630   -1.7280 o         1 DFV     -0.534100
     18 O3          2.3500    0.3570   -4.8060 oh        1 DFV     -0.489100
     19 O4          1.0850   -0.3080    5.8550 oh        1 DFV     -0.494100
     20 H2         -0.0780   -0.0360   -5.5590 ha        1 DFV      0.158000
     21 H3         -2.0550   -0.3270   -4.0250 ha        1 DFV      0.160000
     22 H6          2.5060    0.4550   -2.0940 ha        1 DFV      0.156000
     23 H81        -1.4200   -1.5020    0.3520 hc        1 DFV      0.089700
     24 H82        -2.5580   -0.1500    0.7600 hc        1 DFV      0.089700
     25 H9         -0.7700    1.5450    0.2910 h1        1 DFV      0.062700
     26 H11         1.0600   -1.5260    1.4970 ha        1 DFV      0.142000
     27 H12         1.7350   -1.8510    3.8960 ha        1 DFV      0.146000
     28 H14        -0.4380    1.7470    4.9660 ha        1 DFV      0.146000
     29 H15        -1.0950    2.0630    2.5860 ha        1 DFV      0.142000
     30 HO3         3.1680    0.4940   -4.3040 ho        1 DFV      0.426000
     31 HO4         0.7300    0.4000    6.4130 ho        1 DFV      0.421000
@<TRIPOS>BOND
     1    1    2 ar  
     2    1    6 ar  
     3    1   18 1   
     4    2    3 ar  
     5    2   20 1   
     6    3    4 ar  
     7    3   21 1   
     8    4    5 ar  
     9    4    7 1   
    10    5    6 ar  
    11    5   10 1   
    12    6   22 1   
    13    7    8 1   
    14    7   17 2   
    15    8    9 1   
    16    8   23 1   
    17    8   24 1   
    18    9   10 1   
    19    9   11 1   
    20    9   25 1   
    21   11   12 ar  
    22   11   16 ar  
    23   12   13 ar  
    24   12   26 1   
    25   13   14 ar  
    26   13   27 1   
    27   14   15 ar  
    28   14   19 1   
    29   15   16 ar  
    30   15   28 1   
    31   16   29 1   
    32   18   30 1   
    33   19   31 1   
@<TRIPOS>SUBSTRUCTURE
     1 DFV         1 TEMP              0 ****  ****    0 ROOT
