@<TRIPOS>MOLECULE
DFV
   31    33     1     0     0
SMALL
bcc


@<TRIPOS>ATOM
      1 C1          0.0730    0.1580   -0.0290 ca        1 DFV      0.185100
      2 C2          1.4810    0.2230   -0.0180 ca        1 DFV     -0.204000
      3 C3          2.1480    0.1410    1.1940 ca        1 DFV     -0.009000
      4 C4          1.4460   -0.0030    2.4010 ca        1 DFV     -0.282600
      5 C5          0.0410   -0.0840    2.3640 ca        1 DFV      0.207100
      6 C6         -0.6610   -0.0020    1.1520 ca        1 DFV     -0.265000
      7 C7          2.1560   -0.0350    3.6830 c         1 DFV      0.591700
      8 C8          1.2680   -0.0120    4.8970 c3        1 DFV     -0.211400
      9 C9         -0.0390   -0.7500    4.6430 c3        1 DFV      0.204400
     10 O1         -0.7360   -0.2120    3.4940 os        1 DFV     -0.321900
     11 C10        -0.9730   -0.6230    5.8070 ca        1 DFV     -0.135300
     12 C11        -1.7320    0.5400    5.9920 ca        1 DFV     -0.070500
     13 C12        -2.5860    0.6620    7.0820 ca        1 DFV     -0.188000
     14 C13        -2.6760   -0.3990    8.0000 ca        1 DFV      0.135100
     15 C14        -1.9240   -1.5700    7.8220 ca        1 DFV     -0.188000
     16 C15        -1.0800   -1.6760    6.7200 ca        1 DFV     -0.070500
     17 O2          3.3890   -0.0460    3.7810 o         1 DFV     -0.534100
     18 O3         -0.5300    0.2500   -1.2570 oh        1 DFV     -0.489100
     19 O4         -3.5320   -0.2210    9.0600 oh        1 DFV     -0.494100
     20 H2          2.0240    0.3390   -0.9660 ha        1 DFV      0.158000
     21 H3          3.2500    0.1930    1.2300 ha        1 DFV      0.160000
     22 H6         -1.7570   -0.0600    1.1470 ha        1 DFV      0.156000
     23 H81         1.0580    1.0610    5.1530 hc        1 DFV      0.089700
     24 H82         1.7940   -0.4770    5.7710 hc        1 DFV      0.089700
     25 H9          0.1720   -1.8360    4.4230 h1        1 DFV      0.062700
     26 H11        -1.6560    1.3570    5.2570 ha        1 DFV      0.142000
     27 H12        -3.1890    1.5670    7.2380 ha        1 DFV      0.146000
     28 H14        -2.0040   -2.3960    8.5420 ha        1 DFV      0.146000
     29 H15        -0.4940   -2.5960    6.5730 ha        1 DFV      0.142000
     30 HO3        -1.4900    0.1950   -1.1300 ho        1 DFV      0.426000
     31 HO4        -3.5030   -1.0200    9.6070 ho        1 DFV      0.421000
@<TRIPOS>BOND
     1    1    2 ar  
     2    1    6 ar  
     3    1   18 1   
     4    2    3 ar  
     5    2   20 1   
     6    3    4 ar  
     7    3   21 1   
     8    4    5 ar  
     9    4    7 1   
    10    5    6 ar  
    11    5   10 1   
    12    6   22 1   
    13    7    8 1   
    14    7   17 2   
    15    8    9 1   
    16    8   23 1   
    17    8   24 1   
    18    9   10 1   
    19    9   11 1   
    20    9   25 1   
    21   11   12 ar  
    22   11   16 ar  
    23   12   13 ar  
    24   12   26 1   
    25   13   14 ar  
    26   13   27 1   
    27   14   15 ar  
    28   14   19 1   
    29   15   16 ar  
    30   15   28 1   
    31   16   29 1   
    32   18   30 1   
    33   19   31 1   
@<TRIPOS>SUBSTRUCTURE
     1 DFV         1 TEMP              0 ****  ****    0 ROOT
