@<TRIPOS>MOLECULE
DFW
   40    32     1     0     0
SMALL
bcc


@<TRIPOS>ATOM
      1 C2         -1.5420    0.1090   -3.5300 c1        1 DFW      0.021000
      2 C10         1.7460    0.1520   -0.3830 c2        1 DFW     -0.030000
      3 C11         3.1430    0.1710   -0.2860 c1        1 DFW      0.003000
      4 C12         3.8250    1.3840   -0.3040 c1        1 DFW     -0.129125
      5 C13         5.2170    1.4020   -0.2390 c1        1 DFW     -0.129125
      6 C14         5.9260    0.2070   -0.1550 c1        1 DFW     -0.129125
      7 C15         5.2430   -1.0080   -0.1370 c1        1 DFW     -0.129125
      8 C16         3.8530   -1.0260   -0.2020 c1        1 DFW     -0.115000
      9 C19        -0.6510    1.5020    1.4370 c1        1 DFW     -0.129125
     10 C20        -1.7590    1.6960    2.2570 c1        1 DFW     -0.129125
     11 C21        -2.2990    0.6250    2.9620 c1        1 DFW     -0.129125
     12 C22        -1.7320   -0.6400    2.8470 c1        1 DFW     -0.129125
     13 N1         -0.1860    0.2470   -3.3970 n1        1 DFW     -0.237000
     14 C6          0.3880    0.1850   -2.1640 c1        1 DFW      0.123000
     15 O6          1.7190    0.2890   -1.7430 o         1 DFW     -0.101000
     16 C5         -0.3880   -0.0140   -1.0620 c1        1 DFW     -0.278000
     17 N9         -3.1180   -0.0520   -0.7550 n3        1 DFW     -0.227000
     18 C4         -1.7590   -0.1530   -1.1980 c2        1 DFW      0.227000
     19 N3         -2.3240   -0.0910   -2.4210 n2        1 DFW     -0.262000
     20 C17        -0.6240   -0.8350    2.0270 c1        1 DFW     -0.097000
     21 C1          0.4470   -0.0360    0.0530 c1        1 DFW      0.004000
     22 C18        -0.0840    0.2360    1.3220 c1        1 DFW     -0.051000
     23 C23        -4.6890   -1.4470    0.4490 c1        1 DFW      0.329000
     24 C8         -4.0030   -1.1770   -0.8890 c2        1 DFW     -0.138000
     25 O24        -5.4730   -0.5850    0.9420 o         1 DFW     -0.566500
     26 O3         -4.5050   -2.5450    1.0420 o         1 DFW     -0.566500
     27 H2         -1.9520    0.1540   -4.4130 ha        1 DFW      0.174000
     28 H12         3.3220    2.2320   -0.3240 ha        1 DFW      0.131875
     29 H13         5.7000    2.2590   -0.2660 ha        1 DFW      0.131875
     30 H14         6.9090    0.2200   -0.1090 ha        1 DFW      0.131875
     31 H15         5.7440   -1.8530   -0.0780 ha        1 DFW      0.131875
     32 H16         3.3730   -1.8850   -0.2140 ha        1 DFW      0.154000
     33 H19        -0.2710    2.2570    0.9400 ha        1 DFW      0.131875
     34 H20        -2.1700    2.5860    2.3250 ha        1 DFW      0.131875
     35 H21        -3.0830    0.7620    3.5420 ha        1 DFW      0.131875
     36 H22        -2.1130   -1.3960    3.3440 ha        1 DFW      0.131875
     37 H9         -3.4380    0.7470   -0.4340 hn        1 DFW      0.254000
     38 H17        -0.2230   -1.7280    1.9460 ha        1 DFW      0.170000
     39 H8C1       -4.6820   -0.9810   -1.5720 h4        1 DFW      0.094500
     40 H8C2       -3.4870   -1.9690   -1.1570 h4        1 DFW      0.094500
@<TRIPOS>BOND
     1    1   19 1   
     2    1   27 1   
     3    2    3 1   
     4    2   15 1   
     5    2   21 1   
     6    3    8 1   
     7    4    5 1   
     8    4   28 1   
     9    5   29 1   
    10    6    7 1   
    11    6   30 1   
    12    7   31 1   
    13    8   32 1   
    14    9   10 1   
    15    9   33 1   
    16   10   34 1   
    17   11   12 1   
    18   11   35 1   
    19   12   36 1   
    20   13   14 1   
    21   16   18 1   
    22   17   18 1   
    23   17   24 1   
    24   17   37 1   
    25   18   19 1   
    26   20   22 1   
    27   20   38 1   
    28   21   22 1   
    29   23   25 1   
    30   23   26 1   
    31   24   39 1   
    32   24   40 1   
@<TRIPOS>SUBSTRUCTURE
     1 DFW         1 TEMP              0 ****  ****    0 ROOT
