@<TRIPOS>MOLECULE
DFW
   40    43     1     0     0
SMALL
bcc


@<TRIPOS>ATOM
      1 C2         -3.7790    0.2850    1.5370 ca        1 DFW      0.683900
      2 C10        -0.8330    0.0710   -1.7900 cc        1 DFW      0.025900
      3 C11        -0.3420   -0.0370   -3.1430 ca        1 DFW     -0.008800
      4 C12        -1.1770    0.2870   -4.2260 ca        1 DFW     -0.114000
      5 C13        -0.7090    0.1770   -5.5320 ca        1 DFW     -0.137000
      6 C14         0.5950   -0.2560   -5.7780 ca        1 DFW     -0.139000
      7 C15         1.4280   -0.5830   -4.7090 ca        1 DFW     -0.137000
      8 C16         0.9660   -0.4770   -3.3990 ca        1 DFW     -0.114000
      9 C19         1.9850    1.1540   -0.7820 ca        1 DFW     -0.111000
     10 C20         3.3440    1.2050   -0.4840 ca        1 DFW     -0.123000
     11 C21         3.9130    0.2540    0.3630 ca        1 DFW     -0.136000
     12 C22         3.1200   -0.7560    0.9040 ca        1 DFW     -0.123000
     13 N1         -3.7930    0.2470    0.1710 nb        1 DFW     -0.763000
     14 C6         -2.5350    0.1950   -0.3310 ca        1 DFW      0.621600
     15 O6         -2.2510    0.1240   -1.6930 os        1 DFW     -0.315400
     16 C5         -1.3190    0.1890    0.4310 ca        1 DFW     -0.420400
     17 C4         -1.4560    0.2370    1.8660 ca        1 DFW      0.748200
     18 N3         -2.7440    0.2780    2.3970 nb        1 DFW     -0.788000
     19 C17         1.7620   -0.8270    0.5900 ca        1 DFW     -0.111000
     20 C1         -0.2420    0.1170   -0.5340 cd        1 DFW      0.027600
     21 C18         1.1790    0.1380   -0.2420 ca        1 DFW     -0.062800
     22 C23         0.8760   -0.8870    4.4920 c         1 DFW      0.909600
     23 C8         -0.3550   -0.0160    4.0790 c3        1 DFW      0.048800
     24 O24         1.6290   -1.3430    3.5840 o         1 DFW     -0.831800
     25 O3          1.0230   -1.0760    5.7260 o         1 DFW     -0.831800
     26 H2         -4.7830    0.3230    2.0110 h5        1 DFW      0.037100
     27 H12        -2.2080    0.6240   -4.0320 ha        1 DFW      0.151000
     28 H13        -1.3700    0.4330   -6.3720 ha        1 DFW      0.125000
     29 H14         0.9620   -0.3410   -6.8100 ha        1 DFW      0.121000
     30 H15         2.4550   -0.9280   -4.8970 ha        1 DFW      0.125000
     31 H16         1.6280   -0.7360   -2.5560 ha        1 DFW      0.151000
     32 H19         1.5340    1.9140   -1.4360 ha        1 DFW      0.150000
     33 H20         3.9650    2.0070   -0.9080 ha        1 DFW      0.141500
     34 H21         4.9810    0.3120    0.6180 ha        1 DFW      0.123000
     35 H22         3.5340   -1.4800    1.6260 ha        1 DFW      0.141500
     36 H9          0.5280    0.1590    2.2310 hn        1 DFW      0.458800
     37 H17         1.1530   -1.6250    1.0480 ha        1 DFW      0.150000
     38 H8C1       -1.2790   -0.5760    4.3810 h1        1 DFW      0.055200
     39 H8C2       -0.3200    0.9460    4.6600 h1        1 DFW      0.055200
     40 N9         -0.3620    0.3140    2.6730 nh        1 DFW     -0.782900
@<TRIPOS>BOND
     1    1   13 ar  
     2    1   18 ar  
     3    1   26 1   
     4    2    3 1   
     5    2   15 1   
     6    2   20 2   
     7    3    4 ar  
     8    3    8 ar  
     9    4    5 ar  
    10    4   27 1   
    11    5    6 ar  
    12    5   28 1   
    13    6    7 ar  
    14    6   29 1   
    15    7    8 ar  
    16    7   30 1   
    17    8   31 1   
    18    9   10 ar  
    19    9   21 ar  
    20    9   32 1   
    21   10   11 ar  
    22   10   33 1   
    23   11   12 ar  
    24   11   34 1   
    25   12   19 ar  
    26   12   35 1   
    27   13   14 ar  
    28   14   15 1   
    29   14   16 ar  
    30   16   17 ar  
    31   16   20 1   
    32   17   18 ar  
    33   17   40 1   
    34   19   21 ar  
    35   19   37 1   
    36   20   21 1   
    37   22   23 1   
    38   22   24 1   
    39   22   25 1   
    40   23   38 1   
    41   23   39 1   
    42   23   40 1   
    43   36   40 1   
@<TRIPOS>SUBSTRUCTURE
     1 DFW         1 TEMP              0 ****  ****    0 ROOT
