@<TRIPOS>MOLECULE
DFW
   40    42     1     0     0
SMALL
bcc


@<TRIPOS>ATOM
      1 C2          1.1090    1.1510   -0.8670 c1        1 DFW      0.171000
      2 C10         3.4170    0.1440    3.0570 c2        1 DFW      0.046000
      3 C11         4.7320    0.1900    3.5960 c2        1 DFW     -0.046000
      4 C12         5.8890    0.8180    2.8580 c3        1 DFW     -0.095000
      5 C13         7.1300   -0.0120    3.0610 c2        1 DFW     -0.167000
      6 C14         7.3120   -0.8400    4.1130 c2        1 DFW     -0.135000
      7 C15         6.3160   -0.7900    5.1970 c2        1 DFW     -0.114000
      8 C16         5.1400   -0.3860    4.7350 c1        1 DFW     -0.074000
      9 C19         0.8350    0.0690    5.7290 c3        1 DFW     -0.181000
     10 C20         0.7110   -0.3280    7.1390 c2        1 DFW     -0.018000
     11 C21         1.5930   -1.1780    7.7300 c2        1 DFW     -0.250000
     12 C22         2.6960   -1.7280    7.0270 c1        1 DFW     -0.126000
     13 N1          1.4750    0.8450    0.2180 n2        1 DFW     -0.264000
     14 C6          1.8670    0.5010    1.4690 c2        1 DFW      0.125000
     15 O6          3.2590    0.5590    1.7260 os        1 DFW     -0.118000
     16 C5          1.1820    0.0730    2.6000 c2        1 DFW     -0.125000
     17 C4         -0.2910   -0.1440    2.6930 c2        1 DFW      0.134000
     18 N3         -0.8240   -1.3250    2.5690 n2        1 DFW     -0.295000
     19 C17         2.7930   -1.4420    5.6310 c2        1 DFW     -0.179000
     20 C1          2.1750   -0.1550    3.6300 c2        1 DFW     -0.069000
     21 C18         1.9620   -0.5570    4.9970 c2        1 DFW      0.016000
     22 C23        -2.4140    1.4960    4.8620 c2        1 DFW      0.314000
     23 C8         -2.3530    1.0470    3.3770 c3        1 DFW     -0.158000
     24 O24        -1.3260    1.7720    5.4550 o         1 DFW     -0.581500
     25 O3         -3.5510    1.5620    5.3960 o         1 DFW     -0.581500
     26 H2         -0.1610   -2.0500    2.3970 hn        1 DFW      0.134000
     27 H12         5.6250    0.8450    1.7660 hc        1 DFW      0.116500
     28 H13         6.0940    1.8710    3.1880 hc        1 DFW      0.116500
     29 H14         7.9010    0.1140    2.2890 ha        1 DFW      0.127000
     30 H15         8.2040   -1.4650    4.2430 ha        1 DFW      0.134000
     31 H16         6.6000   -0.9700    6.2370 ha        1 DFW      0.167000
     32 H19         0.8920    1.2010    5.6700 hc        1 DFW      0.195500
     33 H20        -0.1540   -0.1510    5.2100 hc        1 DFW      0.195500
     34 H21        -0.1410    0.1290    7.6730 ha        1 DFW      0.155000
     35 H22         1.4820   -1.4520    8.7910 ha        1 DFW      0.129000
     36 H9         -0.4700    1.7650    3.2580 hn        1 DFW      0.198000
     37 H17         3.5680   -1.9880    5.0670 ha        1 DFW      0.139000
     38 H8C1       -2.8410    0.0400    3.2980 h1        1 DFW      0.099500
     39 H8C2       -2.9640    1.7750    2.7730 h1        1 DFW      0.099500
     40 N9         -1.0260    1.0610    2.7930 n7        1 DFW     -0.238000
@<TRIPOS>BOND
     1    1   13 1   
     2    2    3 1   
     3    2   15 1   
     4    2   20 1   
     5    3    4 1   
     6    3    8 1   
     7    4    5 1   
     8    4   27 1   
     9    4   28 1   
    10    5    6 1   
    11    5   29 1   
    12    6    7 1   
    13    6   30 1   
    14    7    8 1   
    15    7   31 1   
    16    9   10 1   
    17    9   21 1   
    18    9   32 1   
    19    9   33 1   
    20   10   11 1   
    21   10   34 1   
    22   11   12 1   
    23   11   35 1   
    24   12   19 1   
    25   13   14 1   
    26   14   15 1   
    27   14   16 1   
    28   16   17 1   
    29   16   20 1   
    30   17   18 1   
    31   17   40 1   
    32   18   26 1   
    33   19   21 1   
    34   19   37 1   
    35   20   21 1   
    36   22   23 1   
    37   22   24 1   
    38   22   25 1   
    39   23   38 1   
    40   23   39 1   
    41   23   40 1   
    42   36   40 1   
@<TRIPOS>SUBSTRUCTURE
     1 DFW         1 TEMP              0 ****  ****    0 ROOT
