@<TRIPOS>MOLECULE
DFW
   41    43     1     0     0
SMALL
bcc


@<TRIPOS>ATOM
      1 C2          1.1720    0.9300   -0.8640 c1        1 DFW      0.580800
      2 C10         3.5100    0.2860    3.1150 cc        1 DFW      0.369500
      3 C11         4.8370    0.4420    3.6180 ce        1 DFW     -0.214100
      4 C12         5.9640    0.9640    2.7600 c3        1 DFW     -0.018000
      5 C13         7.2190    0.1810    3.0420 c2        1 DFW     -0.140200
      6 C14         7.4430   -0.4920    4.1930 ce        1 DFW     -0.151000
      7 C15         6.4840   -0.2690    5.2880 ce        1 DFW     -0.118100
      8 C16         5.2820    0.0280    4.8080 c1        1 DFW     -0.021800
      9 C19         1.3470    0.5010    5.8880 c2        1 DFW     -0.202200
     10 C20         0.4930    0.1910    6.8900 ce        1 DFW     -0.114000
     11 C21         0.5000   -1.2100    7.3590 ce        1 DFW     -0.139100
     12 C22         0.8280   -2.0230    6.3610 c1        1 DFW     -0.034800
     13 N1          1.5180    0.6700    0.2440 n1        1 DFW     -0.851800
     14 C6          1.9510    0.4080    1.4990 cc        1 DFW      0.584700
     15 O6          3.3120    0.6260    1.7630 os        1 DFW     -0.346800
     16 C5          1.3040   -0.0490    2.6520 cd        1 DFW     -0.346200
     17 C4         -0.1150   -0.4150    2.7150 cf        1 DFW      0.607800
     18 N3         -0.7830   -1.0940    1.8490 n2        1 DFW     -0.716100
     19 C17         1.3890   -1.8570    5.1730 c2        1 DFW     -0.228300
     20 C1          2.3100   -0.1220    3.6920 cd        1 DFW     -0.151600
     21 C18         2.1340   -0.5390    5.1000 c3        1 DFW      0.034000
     22 C23        -2.5960    1.4770    4.9700 c         1 DFW      0.928600
     23 C8         -2.2260    0.4490    3.8160 c3        1 DFW     -0.066200
     24 O24        -3.8120    1.6730    5.1280 o         1 DFW     -0.773800
     25 O3         -1.6130    1.9780    5.5840 o         1 DFW     -0.773800
     26 H2         -0.2770   -1.4120    1.0500 hn        1 DFW      0.437400
     27 H12         5.6710    0.8300    1.6830 hc        1 DFW      0.088200
     28 H13         6.1680    2.0560    2.9250 hc        1 DFW      0.088200
     29 H14         7.9740    0.2140    2.2410 ha        1 DFW      0.144000
     30 H15         8.3400   -1.0940    4.3820 ha        1 DFW      0.151000
     31 H16         6.8140   -0.2510    6.3300 ha        1 DFW      0.170000
     32 H19         3.1570   -0.6150    5.5840 hc        1 DFW      0.116700
     33 H20         1.5470    1.5490    5.6160 ha        1 DFW      0.160000
     34 H21        -0.1290    0.9440    7.3990 ha        1 DFW      0.195000
     35 H22         0.3670   -1.4460    8.4170 ha        1 DFW      0.174000
     36 H9         -0.3070    0.9230    4.2970 hn        1 DFW      0.477300
     37 H17         1.2940   -2.4910    4.2900 ha        1 DFW      0.156000
     38 H8C1       -0.6950   -0.6550    4.6700 hn        1 DFW      0.477300
     39 H8C2       -2.4020    0.9550    2.8330 hx        1 DFW      0.091200
     40 N9         -0.7960    0.0670    3.9410 n4        1 DFW     -0.716000
     41 H92        -2.8720   -0.4620    3.8900 hx        1 DFW      0.091200
@<TRIPOS>BOND
     1    1   13 3   
     2    2    3 1   
     3    2   15 1   
     4    2   20 2   
     5    3    4 1   
     6    3    8 2   
     7    4    5 1   
     8    4   27 1   
     9    4   28 1   
    10    5    6 2   
    11    5   29 1   
    12    6    7 1   
    13    6   30 1   
    14    7    8 2   
    15    7   31 1   
    16    9   10 2   
    17    9   21 1   
    18    9   33 1   
    19   10   11 1   
    20   10   34 1   
    21   11   12 2   
    22   11   35 1   
    23   12   19 2   
    24   13   14 1   
    25   14   15 1   
    26   14   16 2   
    27   16   17 1   
    28   16   20 1   
    29   17   18 2   
    30   17   40 1   
    31   18   26 1   
    32   19   21 1   
    33   19   37 1   
    34   20   21 1   
    35   21   32 1   
    36   22   23 1   
    37   22   24 1   
    38   22   25 1   
    39   23   39 1   
    40   23   40 1   
    41   23   41 1   
    42   36   40 1   
    43   38   40 1   
@<TRIPOS>SUBSTRUCTURE
     1 DFW         1 TEMP              0 ****  ****    0 ROOT
