@<TRIPOS>MOLECULE
DFX
   18    18     1     0     0
SMALL
bcc


@<TRIPOS>ATOM
      1 C1         -1.2490   -0.4230   -1.3490 c3        1 DFX      0.101400
      2 C2          0.2790   -0.4230   -1.3490 c3        1 DFX      0.100600
      3 C3          0.8430   -0.4230    0.0260 c3        1 DFX      0.073100
      4 C4          0.2690    0.6570    0.8700 c3        1 DFX      0.121100
      5 C5         -1.2590    0.6510    0.8590 c3        1 DFX      0.122400
      6 O3          2.2840   -0.2390   -0.0580 oh        1 DFX     -0.601800
      7 O4          0.7230    0.4830    2.2170 oh        1 DFX     -0.593800
      8 O5         -1.8140    0.6450   -0.5060 os        1 DFX     -0.400600
      9 F2          0.7200   -1.5340   -2.0070 f         1 DFX     -0.239300
     10 H11        -1.5650   -0.3020   -2.2640 h1        1 DFX      0.066200
     11 H12        -1.5650   -1.2860   -1.0180 h1        1 DFX      0.066200
     12 H2          0.5950    0.3700   -1.8200 h1        1 DFX      0.079700
     13 H3          0.6580   -1.2850    0.4450 h1        1 DFX      0.062700
     14 H4          0.5840    1.5190    0.5380 h1        1 DFX      0.061700
     15 H51        -1.5750   -0.1420    1.3320 h1        1 DFX      0.069200
     16 H52        -1.5800    1.4460    1.3260 h1        1 DFX      0.069200
     17 HO3         2.6930   -0.9820    0.2030 ho        1 DFX      0.419000
     18 HO4         0.9590    1.2700    2.5540 ho        1 DFX      0.423000
@<TRIPOS>BOND
     1    1    2 1   
     2    1    8 1   
     3    1   10 1   
     4    1   11 1   
     5    2    3 1   
     6    2    9 1   
     7    2   12 1   
     8    3    4 1   
     9    3    6 1   
    10    3   13 1   
    11    4    5 1   
    12    4    7 1   
    13    4   14 1   
    14    5    8 1   
    15    5   15 1   
    16    5   16 1   
    17    6   17 1   
    18    7   18 1   
@<TRIPOS>SUBSTRUCTURE
     1 DFX         1 TEMP              0 ****  ****    0 ROOT
