@<TRIPOS>MOLECULE
DFX
   18    18     1     0     0
SMALL
bcc


@<TRIPOS>ATOM
      1 C1         -1.0930    1.4580    0.2110 c3        1 DFX      0.101400
      2 C2         -1.1810   -0.0030   -0.2690 c3        1 DFX      0.100600
      3 C3          0.0770   -0.7650    0.2030 c3        1 DFX      0.073100
      4 C4          1.3370   -0.0190   -0.2660 c3        1 DFX      0.121100
      5 C5          1.2790    1.4410    0.1940 c3        1 DFX      0.122400
      6 O3          0.1380   -2.0570   -0.3760 oh        1 DFX     -0.601800
      7 O4          2.4950   -0.5870    0.3160 oh        1 DFX     -0.593800
      8 O5          0.0920    2.0690   -0.2730 os        1 DFX     -0.400600
      9 F2         -2.3270   -0.6130    0.2150 f         1 DFX     -0.239300
     10 H11        -1.9250    2.0690   -0.2270 h1        1 DFX      0.066200
     11 H12        -1.1310    1.4990    1.3310 h1        1 DFX      0.066200
     12 H2         -1.2170   -0.0270   -1.3960 h1        1 DFX      0.079700
     13 H3          0.0720   -0.8530    1.3250 h1        1 DFX      0.062700
     14 H4          1.4030   -0.0760   -1.3880 h1        1 DFX      0.061700
     15 H51         1.3410    1.5000    1.3120 h1        1 DFX      0.069200
     16 H52         2.1100    2.0340   -0.2710 h1        1 DFX      0.069200
     17 HO3        -0.6750   -2.5140   -0.1250 ho        1 DFX      0.419000
     18 HO4         2.4980   -1.5200    0.0610 ho        1 DFX      0.423000
@<TRIPOS>BOND
     1    1    2 1   
     2    1    8 1   
     3    1   10 1   
     4    1   11 1   
     5    2    3 1   
     6    2    9 1   
     7    2   12 1   
     8    3    4 1   
     9    3    6 1   
    10    3   13 1   
    11    4    5 1   
    12    4    7 1   
    13    4   14 1   
    14    5    8 1   
    15    5   15 1   
    16    5   16 1   
    17    6   17 1   
    18    7   18 1   
@<TRIPOS>SUBSTRUCTURE
     1 DFX         1 TEMP              0 ****  ****    0 ROOT
