@<TRIPOS>MOLECULE
DFY
   45    38     1     0     0
SMALL
bcc


@<TRIPOS>ATOM
      1 C2         -1.7190   -0.4070   -3.4560 c1        1 DFY     -0.004000
      2 C10         1.8290   -0.2910   -0.5990 c2        1 DFY      0.048000
      3 C11         3.2340   -0.2890   -0.6640 c1        1 DFY     -0.038000
      4 C12         3.9250    0.9170   -0.7280 c1        1 DFY     -0.121500
      5 C13         5.3170    0.9220   -0.7350 c1        1 DFY     -0.121500
      6 C14         6.0170   -0.2790   -0.6780 c1        1 DFY     -0.121500
      7 C15         5.3260   -1.4850   -0.6140 c1        1 DFY     -0.121500
      8 C16         3.9340   -1.4900   -0.6070 c1        1 DFY     -0.101000
      9 C19         0.4820   -1.3490    2.0400 c1        1 DFY     -0.121500
     10 C20         0.5370   -1.3660    3.4300 c1        1 DFY     -0.121500
     11 C21         0.7770   -0.1890    4.1320 c1        1 DFY     -0.121500
     12 C22         0.9620    1.0050    3.4430 c1        1 DFY     -0.121500
     13 N1         -0.3500   -0.4730   -3.4410 n1        1 DFY     -0.153000
     14 C6          0.3250   -0.3880   -2.2590 c1        1 DFY      0.089000
     15 O6          1.6920   -0.4220   -1.9550 o         1 DFY     -0.084000
     16 C5         -0.3620   -0.2370   -1.0930 c1        1 DFY     -0.170000
     17 N9         -3.1020   -0.0280   -0.6210 n3        1 DFY     -0.213000
     18 C4         -1.7500   -0.1700   -1.1100 c2        1 DFY      0.161000
     19 N3         -2.4130   -0.2540   -2.2800 n2        1 DFY     -0.230000
     20 C17         0.9070    1.0230    2.0530 c1        1 DFY     -0.115000
     21 C1          0.5660   -0.1750   -0.0520 c1        1 DFY     -0.054000
     22 C18         0.6670   -0.1540    1.3510 c1        1 DFY     -0.026000
     23 C23        -5.0040    1.4750   -0.4020 c3        1 DFY     -0.054000
     24 C8         -3.5330    1.2250   -0.0430 c3        1 DFY     -0.066000
     25 O24        -5.3740    2.7810    0.0050 oh        1 DFY     -0.326000
     26 CAA        -3.9910   -1.1640   -0.6210 c3        1 DFY     -0.110000
     27 H2         -2.2030   -0.4680   -4.3080 ha        1 DFY      0.196000
     28 H12         3.4320    1.7640   -0.7690 ha        1 DFY      0.137875
     29 H13         5.8040    1.7730   -0.7800 ha        1 DFY      0.137875
     30 H14         6.9980   -0.2760   -0.6830 ha        1 DFY      0.137875
     31 H15         5.8200   -2.3320   -0.5730 ha        1 DFY      0.137875
     32 H16         3.4470   -2.3400   -0.5610 ha        1 DFY      0.149000
     33 H19         0.3120   -2.1790    1.5450 ha        1 DFY      0.137875
     34 H20         0.4060   -2.2090    3.9160 ha        1 DFY      0.137875
     35 H21         0.8160   -0.2020    5.1120 ha        1 DFY      0.137875
     36 H22         1.1320    1.8360    3.9390 ha        1 DFY      0.137875
     37 H17         1.0380    1.8660    1.5680 ha        1 DFY      0.141000
     38 H231       -5.1240    1.3880   -1.3730 h1        1 DFY      0.068500
     39 H232       -5.5700    0.8160    0.0590 h1        1 DFY      0.068500
     40 H8C1       -2.9810    1.9570   -0.3980 h1        1 DFY      0.118000
     41 H8C2       -3.4360    1.1860    0.9350 h1        1 DFY      0.118000
     42 H24        -6.2090    2.9500   -0.2620 ho        1 DFY      0.203000
     43 HAA1       -3.4630   -1.9940   -0.6620 h1        1 DFY      0.084333
     44 HAA2       -4.5300   -1.1590    0.2000 h1        1 DFY      0.084333
     45 HAA3       -4.5850   -1.1150   -1.4040 h1        1 DFY      0.084333
@<TRIPOS>BOND
     1    1   19 1   
     2    1   27 1   
     3    2    3 1   
     4    2   15 1   
     5    2   21 1   
     6    3    8 1   
     7    4    5 1   
     8    4   28 1   
     9    5   29 1   
    10    6    7 1   
    11    6   30 1   
    12    7   31 1   
    13    8   32 1   
    14    9   10 1   
    15    9   33 1   
    16   10   34 1   
    17   11   12 1   
    18   11   35 1   
    19   12   36 1   
    20   13   14 1   
    21   16   18 1   
    22   17   18 1   
    23   17   24 1   
    24   17   26 1   
    25   18   19 1   
    26   20   22 1   
    27   20   37 1   
    28   21   22 1   
    29   23   24 1   
    30   23   25 1   
    31   23   38 1   
    32   23   39 1   
    33   24   40 1   
    34   24   41 1   
    35   25   42 1   
    36   26   43 1   
    37   26   44 1   
    38   26   45 1   
@<TRIPOS>SUBSTRUCTURE
     1 DFY         1 TEMP              0 ****  ****    0 ROOT
