@<TRIPOS>MOLECULE
DFY
   45    48     1     0     0
SMALL
bcc


@<TRIPOS>ATOM
      1 C2         -3.2110   -0.4160   -2.3750 ca        1 DFY      0.661900
      2 C10        -1.0190    0.0050    1.4740 cc        1 DFY      0.099900
      3 C11        -0.8170    0.2290    2.8880 ca        1 DFY     -0.048800
      4 C12        -1.8690    0.0080    3.7930 ca        1 DFY     -0.099000
      5 C13        -1.6780    0.2270    5.1550 ca        1 DFY     -0.136000
      6 C14        -0.4420    0.6700    5.6280 ca        1 DFY     -0.114000
      7 C15         0.6040    0.8940    4.7330 ca        1 DFY     -0.136000
      8 C16         0.4210    0.6780    3.3690 ca        1 DFY     -0.099000
      9 C19         1.9380   -1.2640    1.1080 ca        1 DFY     -0.105500
     10 C20         3.3300   -1.2970    1.1390 ca        1 DFY     -0.136000
     11 C21         4.0700   -0.3150    0.4790 ca        1 DFY     -0.125000
     12 C22         3.4130    0.6990   -0.2170 ca        1 DFY     -0.136000
     13 N1         -3.4990   -0.2340   -1.0580 nb        1 DFY     -0.684000
     14 C6         -2.3780   -0.1990   -0.2980 ca        1 DFY      0.590600
     15 O6         -2.3820    0.0010    1.0790 os        1 DFY     -0.298400
     16 C5         -1.0260   -0.3410   -0.7800 ca        1 DFY     -0.323400
     17 C4         -0.8780   -0.5500   -2.1830 ca        1 DFY      0.690200
     18 N3         -2.0020   -0.5780   -2.9700 nb        1 DFY     -0.763000
     19 C17         2.0200    0.7370   -0.2540 ca        1 DFY     -0.105500
     20 C1         -0.1780   -0.1990    0.3900 cd        1 DFY     -0.026400
     21 C18         1.2710   -0.2430    0.4120 ca        1 DFY     -0.042800
     22 C23         0.2770    1.1030   -4.5190 c3        1 DFY      0.132400
     23 C8          0.5550   -0.3640   -4.1690 c3        1 DFY      0.180800
     24 O24         1.5060    1.8000   -4.3850 oh        1 DFY     -0.603800
     25 CAA         1.1140   -1.8880   -2.3720 c3        1 DFY      0.168100
     26 H2         -4.0880   -0.4480   -3.0560 h5        1 DFY      0.058100
     27 H12        -2.8470   -0.3350    3.4180 ha        1 DFY      0.150000
     28 H13        -2.5060    0.0520    5.8570 ha        1 DFY      0.136500
     29 H14        -0.2940    0.8420    6.7040 ha        1 DFY      0.134000
     30 H15         1.5790    1.2460    5.1030 ha        1 DFY      0.136500
     31 H16         1.2500    0.8560    2.6650 ha        1 DFY      0.150000
     32 H19         1.3560   -2.0370    1.6300 ha        1 DFY      0.143000
     33 H20         3.8450   -2.1000    1.6860 ha        1 DFY      0.135000
     34 H21         5.1690   -0.3430    0.5070 ha        1 DFY      0.132000
     35 H22         3.9930    1.4700   -0.7450 ha        1 DFY      0.135000
     36 H17         1.5040    1.5280   -0.8210 ha        1 DFY      0.143000
     37 H231       -0.5070    1.5620   -3.8610 h1        1 DFY      0.033700
     38 H232       -0.0660    1.1600   -5.5880 h1        1 DFY      0.033700
     39 H8C1        1.6260   -0.5830   -4.4520 h1        1 DFY      0.060700
     40 H8C2       -0.1150   -1.0090   -4.8070 h1        1 DFY      0.060700
     41 H24         1.3010    2.7390   -4.4570 ho        1 DFY      0.399000
     42 HAA1        0.9760   -2.0750   -1.2740 h1        1 DFY      0.048033
     43 HAA2        0.7520   -2.7840   -2.9460 h1        1 DFY      0.048033
     44 HAA3        2.2080   -1.7420   -2.5780 h1        1 DFY      0.048033
     45 N9          0.4210   -0.6730   -2.7510 nh        1 DFY     -0.726300
@<TRIPOS>BOND
     1    1   13 ar  
     2    1   18 ar  
     3    1   26 1   
     4    2    3 1   
     5    2   15 1   
     6    2   20 2   
     7    3    4 ar  
     8    3    8 ar  
     9    4    5 ar  
    10    4   27 1   
    11    5    6 ar  
    12    5   28 1   
    13    6    7 ar  
    14    6   29 1   
    15    7    8 ar  
    16    7   30 1   
    17    8   31 1   
    18    9   10 ar  
    19    9   21 ar  
    20    9   32 1   
    21   10   11 ar  
    22   10   33 1   
    23   11   12 ar  
    24   11   34 1   
    25   12   19 ar  
    26   12   35 1   
    27   13   14 ar  
    28   14   15 1   
    29   14   16 ar  
    30   16   17 ar  
    31   16   20 1   
    32   17   18 ar  
    33   17   45 1   
    34   19   21 ar  
    35   19   36 1   
    36   20   21 1   
    37   22   23 1   
    38   22   24 1   
    39   22   37 1   
    40   22   38 1   
    41   23   39 1   
    42   23   40 1   
    43   23   45 1   
    44   24   41 1   
    45   25   42 1   
    46   25   43 1   
    47   25   44 1   
    48   25   45 1   
@<TRIPOS>SUBSTRUCTURE
     1 DFY         1 TEMP              0 ****  ****    0 ROOT
