@<TRIPOS>MOLECULE
DFY
   46    48     1     0     0
SMALL
bcc


@<TRIPOS>ATOM
      1 C2          0.3630    0.0630   -0.2670 cg        1 DFY      0.143000
      2 C10         3.3750    0.1860    3.0610 cc        1 DFY     -0.096900
      3 C11         4.6250    0.0180    3.6450 cf        1 DFY      0.170800
      4 C12         5.8040   -0.0210    2.7380 c3        1 DFY     -0.089000
      5 C13         7.1130   -0.1900    3.3920 c2        1 DFY     -0.065200
      6 C14         7.2400   -0.3170    4.7330 ce        1 DFY     -0.185000
      7 C15         6.0770   -0.2950    5.5700 ce        1 DFY      0.039000
      8 C16         4.8240   -0.1320    5.0440 cf        1 DFY     -0.229000
      9 C19         1.9760    1.2260    5.8220 ca        1 DFY     -0.104000
     10 C20         1.5830    1.1280    7.1540 ca        1 DFY     -0.131000
     11 C21         0.8330    0.0320    7.5860 ca        1 DFY     -0.092000
     12 C22         0.4650   -0.9610    6.6780 ca        1 DFY     -0.131000
     13 N1          1.7060    0.1260   -0.0630 ne        1 DFY     -0.559700
     14 C6          2.0890    0.2570    1.2060 cd        1 DFY      0.723900
     15 O6          3.4040    0.2040    1.6280 os        1 DFY     -0.274700
     16 C5          1.2000    0.4000    2.3770 cd        1 DFY     -0.490200
     17 C4         -0.2130    0.5110    2.0860 cf        1 DFY      0.473100
     18 N3         -0.5590    0.2200    0.7600 nh        1 DFY     -0.338500
     19 C17         0.8400   -0.8660    5.3380 ca        1 DFY     -0.104000
     20 C1          2.0220    0.3010    3.5190 cc        1 DFY      0.222800
     21 C18         1.6090    0.2270    4.9060 ca        1 DFY     -0.135800
     22 C23        -3.0650   -0.5060    2.4580 c2        1 DFY     -0.196000
     23 C8         -2.5390    0.6880    2.7610 c2        1 DFY     -0.127100
     24 O24        -0.8220   -2.8480    3.1380 oh        1 DFY     -0.818000
     25 CAA        -0.8300    1.7000    4.1620 c3        1 DFY      0.007600
     26 H2         -1.5260    0.1870    0.4980 hn        1 DFY      0.326700
     27 H12         5.6520   -0.8560    1.9830 hc        1 DFY      0.142200
     28 H13         5.8140    0.9280    2.1160 hc        1 DFY      0.142200
     29 H14         7.9890   -0.2100    2.7220 ha        1 DFY      0.167000
     30 H15         8.2260   -0.4420    5.2110 ha        1 DFY      0.171000
     31 H16         6.2140   -0.4170    6.6590 ha        1 DFY      0.165000
     32 H19         3.9440   -0.1290    5.7090 ha        1 DFY      0.169000
     33 H20         2.5660    2.0920    5.4840 ha        1 DFY      0.158500
     34 H21         1.8650    1.9180    7.8680 ha        1 DFY      0.156000
     35 H22         0.5320   -0.0470    8.6430 ha        1 DFY      0.157000
     36 H17        -0.1270   -1.8270    7.0180 ha        1 DFY      0.156000
     37 H231       -0.4400   -3.4380    2.4810 ho        1 DFY      0.410500
     38 H232       -4.1500   -0.6120    2.3110 ha        1 DFY      0.155000
     39 H8C1       -2.4740   -1.4310    2.3510 ha        1 DFY      0.155000
     40 H8C2       -3.1610    1.5950    2.8990 h4        1 DFY      0.168000
     41 H24        -1.3620   -3.4310    3.6800 ho        1 DFY      0.410500
     42 HAA1        0.5310   -1.6480    4.6200 ha        1 DFY      0.158500
     43 HAA2       -0.8440    1.0380    5.0710 h1        1 DFY      0.072700
     44 HAA3        0.1860    2.1660    4.0560 h1        1 DFY      0.072700
     45 N9         -1.1540    0.9310    2.9850 nh        1 DFY     -0.199300
     46 H91        -1.5950    2.5140    4.2880 h1        1 DFY      0.072700
@<TRIPOS>BOND
     1    1   13 1   
     2    1   18 3   
     3    2    3 2   
     4    2   15 1   
     5    2   20 1   
     6    3    4 1   
     7    3    8 1   
     8    4    5 1   
     9    4   27 1   
    10    4   28 1   
    11    5    6 2   
    12    5   29 1   
    13    6    7 1   
    14    6   30 1   
    15    7    8 2   
    16    7   31 1   
    17    8   32 1   
    18    9   10 ar  
    19    9   21 ar  
    20    9   33 1   
    21   10   11 ar  
    22   10   34 1   
    23   11   12 ar  
    24   11   35 1   
    25   12   19 ar  
    26   12   36 1   
    27   13   14 2   
    28   14   15 1   
    29   14   16 1   
    30   16   17 1   
    31   16   20 2   
    32   17   18 1   
    33   17   45 2   
    34   18   26 1   
    35   19   21 ar  
    36   19   42 1   
    37   20   21 1   
    38   22   23 2   
    39   22   38 1   
    40   22   39 1   
    41   23   40 1   
    42   23   45 1   
    43   24   37 1   
    44   24   41 1   
    45   25   43 1   
    46   25   44 1   
    47   25   45 1   
    48   25   46 1   
@<TRIPOS>SUBSTRUCTURE
     1 DFY         1 TEMP              0 ****  ****    0 ROOT
