@<TRIPOS>MOLECULE
DFZ
   44    46     1     0     0
SMALL
bcc


@<TRIPOS>ATOM
      1 C2          0.1270    0.2660   -0.0710 c1        1 DFZ      0.038000
      2 C10         3.4750    0.0880    2.9980 c2        1 DFZ      0.166000
      3 C11         4.7530    0.1170    3.6620 c2        1 DFZ     -0.055000
      4 C12         5.9750    0.7670    3.0610 c3        1 DFZ     -0.116000
      5 C13         7.1960   -0.0650    3.3500 c2        1 DFZ     -0.117000
      6 C14         7.2860   -0.9210    4.3940 c2        1 DFZ     -0.156000
      7 C15         6.1990   -0.8620    5.3800 c2        1 DFZ     -0.015000
      8 C16         5.0460   -0.4950    4.8190 c1        1 DFZ     -0.190000
      9 C19         2.3980   -0.9450    5.8740 c3        1 DFZ     -0.183000
     10 C20         1.8740   -0.9250    7.2520 c2        1 DFZ     -0.061000
     11 C21         0.8910   -0.0710    7.6410 c2        1 DFZ     -0.194000
     12 C22         0.3010    0.8370    6.7230 c1        1 DFZ     -0.136000
     13 N1          1.4800    0.2530    0.0010 n2        1 DFZ     -0.181000
     14 C6          2.0270    0.1900    1.2250 c2        1 DFZ      0.157000
     15 C5          1.2270    0.1280    2.4860 c2        1 DFZ     -0.132000
     16 C4         -0.1560    0.1140    2.3360 c2        1 DFZ     -0.004000
     17 N3         -0.6810    0.2000    1.0490 n3        1 DFZ     -0.174000
     18 N90         3.3710    0.1640    1.5960 na        1 DFZ     -0.215000
     19 C17         0.9020    0.9720    5.4460 c2        1 DFZ     -0.268000
     20 C1          2.1880    0.0650    3.5740 c2        1 DFZ     -0.174000
     21 C18         1.8220    0.0750    4.9670 c2        1 DFZ      0.057000
     22 C23        -3.4510   -0.3390    3.7680 c2        1 DFZ     -0.098000
     23 C8         -2.2690   -0.7230    3.2740 c2        1 DFZ     -0.234000
     24 O24        -2.0680    1.8140    5.4780 oh        1 DFZ     -0.502000
     25 H2         -1.6710    0.2020    0.9040 hn        1 DFZ      0.276000
     26 H12         5.8620    0.8720    1.9510 hc        1 DFZ      0.130000
     27 H13         6.1440    1.8010    3.4730 hc        1 DFZ      0.130000
     28 H14         8.0460    0.1010    2.6690 ha        1 DFZ      0.161000
     29 H15         8.1580   -1.5570    4.5900 ha        1 DFZ      0.169000
     30 H16         6.3990   -1.0240    6.4450 ha        1 DFZ      0.178000
     31 H19         3.5360   -0.7570    5.9100 hc        1 DFZ      0.177500
     32 H20         2.2920   -1.9770    5.4340 hc        1 DFZ      0.177500
     33 H21         2.3160   -1.6630    7.9440 ha        1 DFZ      0.151000
     34 H22         0.5090   -0.0750    8.6760 ha        1 DFZ      0.167000
     35 H9         -0.5130   -0.4460    4.2790 hn        1 DFZ      0.283000
     36 H90         4.1320    0.1660    0.9590 hn        1 DFZ      0.290000
     37 H17         0.5860    1.8360    4.8360 ha        1 DFZ      0.142000
     38 H231       -1.4880    1.6010    6.2400 ho        1 DFZ      0.246500
     39 H232       -4.3510   -0.9500    3.5850 ha        1 DFZ      0.178500
     40 H8C1       -3.6030    0.5700    4.3800 ha        1 DFZ      0.178500
     41 H8C2       -2.1090   -1.6460    2.6850 hx        1 DFZ      0.192000
     42 H24        -2.3140    2.7310    5.6140 ho        1 DFZ      0.246500
     43 N9         -1.0370    0.0240    3.5190 n4        1 DFZ      0.026000
     44 H92        -1.2570    0.9900    3.8570 hn        1 DFZ      0.283000
@<TRIPOS>BOND
     1    1   13 1   
     2    1   17 1   
     3    2    3 1   
     4    2   18 1   
     5    2   20 1   
     6    3    4 1   
     7    3    8 1   
     8    4    5 1   
     9    4   26 1   
    10    4   27 1   
    11    5    6 1   
    12    5   28 1   
    13    6    7 1   
    14    6   29 1   
    15    7    8 1   
    16    7   30 1   
    17    9   10 1   
    18    9   21 1   
    19    9   31 1   
    20    9   32 1   
    21   10   11 1   
    22   10   33 1   
    23   11   12 1   
    24   11   34 1   
    25   12   19 1   
    26   13   14 1   
    27   14   15 1   
    28   14   18 1   
    29   15   16 1   
    30   15   20 1   
    31   16   17 1   
    32   16   43 1   
    33   17   25 1   
    34   18   36 1   
    35   19   21 1   
    36   19   37 1   
    37   20   21 1   
    38   22   23 1   
    39   22   39 1   
    40   22   40 1   
    41   23   41 1   
    42   23   43 1   
    43   24   38 1   
    44   24   42 1   
    45   35   43 1   
    46   43   44 1   
@<TRIPOS>SUBSTRUCTURE
     1 DFZ         1 TEMP              0 ****  ****    0 ROOT
