@<TRIPOS>MOLECULE
DFZ
   43    35     1     0     0
SMALL
bcc


@<TRIPOS>ATOM
      1 C2         -1.8320    0.2950   -3.8100 c1        1 DFZ      0.018000
      2 C10         1.6460    0.3000   -0.9010 c2        1 DFZ      0.012000
      3 C11         3.0290    0.2990   -0.5910 c1        1 DFZ     -0.032000
      4 C12         3.6510    1.4730   -0.2500 c1        1 DFZ     -0.129000
      5 C13         4.9650    1.4570    0.2070 c1        1 DFZ     -0.129000
      6 C14         5.6470    0.2540    0.3190 c1        1 DFZ     -0.129000
      7 C15         5.0250   -0.9230   -0.0220 c1        1 DFZ     -0.129000
      8 C16         3.7140   -0.9090   -0.4790 c1        1 DFZ     -0.102000
      9 C19         0.2020   -1.1420    1.6040 c1        1 DFZ     -0.129000
     10 C20         0.0600   -1.2980    2.9680 c1        1 DFZ     -0.129000
     11 C21        -0.0540   -0.1860    3.7850 c1        1 DFZ     -0.129000
     12 C22        -0.0260    1.0860    3.2340 c1        1 DFZ     -0.129000
     13 N1         -0.4820    0.3030   -3.7820 n1        1 DFZ     -0.213000
     14 C6          0.1740    0.2540   -2.5900 c1        1 DFZ      0.083000
     15 C5         -0.5310    0.1970   -1.4260 c1        1 DFZ     -0.223000
     16 N9         -2.9530    0.0910   -0.4890 n3        1 DFZ     -0.296000
     17 C4         -1.9050    0.1890   -1.4580 c2        1 DFZ      0.212000
     18 N3         -2.5480    0.2370   -2.6320 n2        1 DFZ     -0.260000
     19 N90         1.5280    0.3190   -2.2720 n1        1 DFZ     -0.186000
     20 C17         0.1150    1.2450    1.8740 c1        1 DFZ     -0.113000
     21 C1          0.3820    0.2250   -0.3680 c1        1 DFZ     -0.065000
     22 C18         0.2300    0.1290    1.0520 c1        1 DFZ     -0.025000
     23 C23        -5.0570   -0.7740    0.2970 c3        1 DFZ     -0.032000
     24 C8         -4.2810   -0.3260   -0.9010 c3        1 DFZ     -0.035000
     25 O24        -6.3920   -1.2200   -0.1270 oh        1 DFZ     -0.322000
     26 H2         -2.3170    0.3320   -4.6900 ha        1 DFZ      0.187000
     27 H12         3.1790    2.3080   -0.3280 ha        1 DFZ      0.135750
     28 H13         5.4120    2.3020    0.4520 ha        1 DFZ      0.135750
     29 H14         6.6110    0.2430    0.6550 ha        1 DFZ      0.135750
     30 H15         5.5080   -1.7740    0.0580 ha        1 DFZ      0.135750
     31 H16         3.2690   -1.7510   -0.7230 ha        1 DFZ      0.147000
     32 H19         0.2820   -1.9270    1.0290 ha        1 DFZ      0.135750
     33 H20         0.0400   -2.1850    3.3540 ha        1 DFZ      0.135750
     34 H21        -0.1530   -0.2960    4.7410 ha        1 DFZ      0.135750
     35 H22        -0.1080    1.8900    3.8260 ha        1 DFZ      0.135750
     36 H9         -2.8190    0.4020    0.3570 hn        1 DFZ      0.229000
     37 H90         2.2180    0.3970   -2.8700 DU        1 DFZ      0.264000
     38 H17         0.1340    2.1080    1.5010 ha        1 DFZ      0.143000
     39 H231       -5.1450   -0.0320    0.9250 h1        1 DFZ      0.067000
     40 H232       -4.5980   -1.4990    0.7220 h1        1 DFZ      0.067000
     41 H8C1       -4.7300    0.4070   -1.3150 h1        1 DFZ      0.108500
     42 H8C2       -4.2100   -1.0620   -1.5340 h1        1 DFZ      0.108500
     43 H24        -6.8800   -1.4400    0.5970 ho        1 DFZ      0.204000
@<TRIPOS>BOND
     1    1   18 1   
     2    1   26 1   
     3    2    3 1   
     4    2   19 1   
     5    2   21 1   
     6    3    8 1   
     7    4    5 1   
     8    4   27 1   
     9    5   28 1   
    10    6    7 1   
    11    6   29 1   
    12    7   30 1   
    13    8   31 1   
    14    9   10 1   
    15    9   32 1   
    16   10   33 1   
    17   11   12 1   
    18   11   34 1   
    19   12   35 1   
    20   13   14 1   
    21   15   17 1   
    22   16   17 1   
    23   16   24 1   
    24   16   36 1   
    25   17   18 1   
    26   20   22 1   
    27   20   38 1   
    28   21   22 1   
    29   23   24 1   
    30   23   25 1   
    31   23   39 1   
    32   23   40 1   
    33   24   41 1   
    34   24   42 1   
    35   25   43 1   
@<TRIPOS>SUBSTRUCTURE
     1 DFZ         1 TEMP              0 ****  ****    0 ROOT
