@<TRIPOS>MOLECULE
DFZ
   43    45     1     0     0
SMALL
bcc


@<TRIPOS>ATOM
      1 C2          0.2060   -0.1130   -0.1290 c1        1 DFZ     -0.040000
      2 C10         3.4370    0.0930    3.0460 c2        1 DFZ      0.027000
      3 C11         4.6920    0.1920    3.7470 c2        1 DFZ     -0.001000
      4 C12         5.8270    1.0610    3.2570 c3        1 DFZ     -0.115000
      5 C13         7.1320    0.3280    3.4340 c2        1 DFZ     -0.145000
      6 C14         7.3200   -0.6450    4.3540 c2        1 DFZ     -0.148000
      7 C15         6.2390   -0.8490    5.3320 c2        1 DFZ     -0.061000
      8 C16         5.0590   -0.5090    4.8240 c1        1 DFZ     -0.200000
      9 C19         2.1930   -1.2730    5.7400 c3        1 DFZ     -0.172000
     10 C20         1.7500   -1.2960    7.1480 c2        1 DFZ     -0.076000
     11 C21         0.9900   -0.3080    7.6810 c2        1 DFZ     -0.200000
     12 C22         0.5260    0.7850    6.8930 c1        1 DFZ     -0.125000
     13 N1          1.5300    0.0260   -0.0250 n2        1 DFZ     -0.255000
     14 C6          2.0360    0.0610    1.2420 c2        1 DFZ      0.149000
     15 C5          1.2190   -0.0210    2.4570 c2        1 DFZ     -0.253000
     16 C4         -0.1890   -0.1370    2.2930 c2        1 DFZ      0.229000
     17 N3         -0.6390   -0.1890    0.9780 n3        1 DFZ     -0.222000
     18 N90         3.3670    0.1590    1.6370 na        1 DFZ     -0.204000
     19 C17         1.0280    0.9040    5.5690 c2        1 DFZ     -0.228000
     20 C1          2.1400   -0.0130    3.5750 c2        1 DFZ     -0.077000
     21 C18         1.7680   -0.0740    4.9700 c2        1 DFZ      0.072000
     22 C23        -3.4050   -0.1050    3.9500 c2        1 DFZ     -0.242000
     23 C8         -2.3860   -0.6040    3.2350 c2        1 DFZ     -0.081000
     24 O24        -1.7110    2.0070    5.4680 oh        1 DFZ     -0.440000
     25 H2         -1.6140   -0.2810    0.7900 hn        1 DFZ      0.255000
     26 H12         5.6810    1.3090    2.1740 hc        1 DFZ      0.120500
     27 H13         5.8830    2.0350    3.8150 hc        1 DFZ      0.120500
     28 H14         7.9470    0.6640    2.7760 ha        1 DFZ      0.141000
     29 H15         8.2570   -1.2020    4.4660 ha        1 DFZ      0.146000
     30 H16         6.4650   -1.1380    6.3610 ha        1 DFZ      0.160000
     31 H19         3.3310   -1.3150    5.7160 hc        1 DFZ      0.162500
     32 H20         1.8330   -2.2030    5.2130 hc        1 DFZ      0.162500
     33 H21         2.0690   -2.1730    7.7340 ha        1 DFZ      0.130000
     34 H22         0.6780   -0.3380    8.7370 ha        1 DFZ      0.146000
     35 H9         -0.8070    0.3230    4.1930 hn        1 DFZ      0.269000
     36 H90         4.1440    0.1660    1.0280 hn        1 DFZ      0.266000
     37 H17         0.7530    1.8160    5.0100 ha        1 DFZ      0.145000
     38 H231       -1.3580    1.6450    6.2970 ho        1 DFZ      0.217000
     39 H232       -3.2970    0.7050    4.6870 ha        1 DFZ      0.142000
     40 H8C1       -4.4180   -0.5100    3.8280 ha        1 DFZ      0.142000
     41 H8C2       -2.5440   -1.4230    2.5060 h4        1 DFZ      0.136000
     42 H24        -1.3540    2.8970    5.4450 ho        1 DFZ      0.217000
     43 N9         -1.0390   -0.2350    3.3890 n3        1 DFZ     -0.270000
@<TRIPOS>BOND
     1    1   13 1   
     2    1   17 1   
     3    2    3 1   
     4    2   18 1   
     5    2   20 1   
     6    3    4 1   
     7    3    8 1   
     8    4    5 1   
     9    4   26 1   
    10    4   27 1   
    11    5    6 1   
    12    5   28 1   
    13    6    7 1   
    14    6   29 1   
    15    7    8 1   
    16    7   30 1   
    17    9   10 1   
    18    9   21 1   
    19    9   31 1   
    20    9   32 1   
    21   10   11 1   
    22   10   33 1   
    23   11   12 1   
    24   11   34 1   
    25   12   19 1   
    26   13   14 1   
    27   14   15 1   
    28   14   18 1   
    29   15   16 1   
    30   15   20 1   
    31   16   17 1   
    32   16   43 1   
    33   17   25 1   
    34   18   36 1   
    35   19   21 1   
    36   19   37 1   
    37   20   21 1   
    38   22   23 1   
    39   22   39 1   
    40   22   40 1   
    41   23   41 1   
    42   23   43 1   
    43   24   38 1   
    44   24   42 1   
    45   35   43 1   
@<TRIPOS>SUBSTRUCTURE
     1 DFZ         1 TEMP              0 ****  ****    0 ROOT
