@<TRIPOS>MOLECULE
DFZ
   43    46     1     0     0
SMALL
bcc


@<TRIPOS>ATOM
      1 C2         -3.5670    0.0490    2.2360 ca        1 DFZ      0.679900
      2 C10        -1.0630    0.0190   -1.4900 cc        1 DFZ     -0.007300
      3 C11        -0.5830    0.0120   -2.8640 ca        1 DFZ     -0.041800
      4 C12        -1.1970    0.8080   -3.8420 ca        1 DFZ     -0.113000
      5 C13        -0.7320    0.7840   -5.1550 ca        1 DFZ     -0.130500
      6 C14         0.3460   -0.0300   -5.5050 ca        1 DFZ     -0.122000
      7 C15         0.9610   -0.8210   -4.5350 ca        1 DFZ     -0.130500
      8 C16         0.5000   -0.8040   -3.2200 ca        1 DFZ     -0.113000
      9 C19         1.7390   -1.2520    0.3180 ca        1 DFZ     -0.116000
     10 C20         3.1260   -1.3000    0.4420 ca        1 DFZ     -0.134500
     11 C21         3.9000   -0.1910    0.1000 ca        1 DFZ     -0.127000
     12 C22         3.2820    0.9690   -0.3650 ca        1 DFZ     -0.134500
     13 N1         -3.7730    0.0780    0.9040 nb        1 DFZ     -0.740000
     14 C6         -2.6040    0.0420    0.1840 ca        1 DFZ      0.473800
     15 C5         -1.2850   -0.0300    0.7890 ca        1 DFZ     -0.361400
     16 C4         -1.2330   -0.0620    2.2210 ca        1 DFZ      0.728200
     17 N3         -2.4000   -0.0080    2.9390 nb        1 DFZ     -0.792000
     18 N90        -2.4400    0.0790   -1.1990 na        1 DFZ     -0.272100
     19 C17         1.8950    1.0230   -0.4940 ca        1 DFZ     -0.116000
     20 C1         -0.3310   -0.0420   -0.2910 cd        1 DFZ     -0.036400
     21 C18         1.1110   -0.0900   -0.1550 ca        1 DFZ     -0.036800
     22 C23         1.5440   -0.1790    4.7870 c3        1 DFZ      0.115400
     23 C8          0.1110    0.0120    4.2760 c3        1 DFZ      0.203800
     24 O24         2.3380    0.8480    4.2150 oh        1 DFZ     -0.605800
     25 H2         -4.4830    0.0820    2.8640 h5        1 DFZ      0.048100
     26 H12        -2.0380    1.4660   -3.5770 ha        1 DFZ      0.140500
     27 H13        -1.2150    1.4130   -5.9180 ha        1 DFZ      0.135000
     28 H14         0.7100   -0.0460   -6.5420 ha        1 DFZ      0.134000
     29 H15         1.8120   -1.4620   -4.8060 ha        1 DFZ      0.135000
     30 H16         0.9880   -1.4240   -2.4510 ha        1 DFZ      0.140500
     31 H19         1.1280   -2.1260    0.5920 ha        1 DFZ      0.143000
     32 H20         3.6100   -2.2170    0.8090 ha        1 DFZ      0.132500
     33 H21         4.9940   -0.2320    0.1970 ha        1 DFZ      0.131000
     34 H22         3.8890    1.8470   -0.6320 ha        1 DFZ      0.132500
     35 H9          0.7890    0.0410    2.3100 hn        1 DFZ      0.442800
     36 H90        -3.1650    0.0870   -1.8690 hn        1 DFZ      0.313700
     37 H17         1.4100    1.9390   -0.8630 ha        1 DFZ      0.143000
     38 H231        1.9500   -1.1870    4.5050 h1        1 DFZ      0.034200
     39 H232        1.5390   -0.0820    5.9060 h1        1 DFZ      0.034200
     40 H8C1       -0.5520   -0.7220    4.8170 h1        1 DFZ      0.062700
     41 H8C2       -0.2270    1.0550    4.5440 h1        1 DFZ      0.062700
     42 H24         3.2440    0.6930    4.5040 ho        1 DFZ      0.405000
     43 N9         -0.0080   -0.2190    2.8570 nh        1 DFZ     -0.838900
@<TRIPOS>BOND
     1    1   13 ar  
     2    1   17 ar  
     3    1   25 1   
     4    2    3 1   
     5    2   18 1   
     6    2   20 2   
     7    3    4 ar  
     8    3    8 ar  
     9    4    5 ar  
    10    4   26 1   
    11    5    6 ar  
    12    5   27 1   
    13    6    7 ar  
    14    6   28 1   
    15    7    8 ar  
    16    7   29 1   
    17    8   30 1   
    18    9   10 ar  
    19    9   21 ar  
    20    9   31 1   
    21   10   11 ar  
    22   10   32 1   
    23   11   12 ar  
    24   11   33 1   
    25   12   19 ar  
    26   12   34 1   
    27   13   14 ar  
    28   14   15 ar  
    29   14   18 1   
    30   15   16 ar  
    31   15   20 1   
    32   16   17 ar  
    33   16   43 1   
    34   18   36 1   
    35   19   21 ar  
    36   19   37 1   
    37   20   21 1   
    38   22   23 1   
    39   22   24 1   
    40   22   38 1   
    41   22   39 1   
    42   23   40 1   
    43   23   41 1   
    44   23   43 1   
    45   24   42 1   
    46   35   43 1   
@<TRIPOS>SUBSTRUCTURE
     1 DFZ         1 TEMP              0 ****  ****    0 ROOT
