@<TRIPOS>MOLECULE
DFZ
   43    45     1     0     0
SMALL
bcc


@<TRIPOS>ATOM
      1 C2          0.1670    0.1810   -0.1300 c1        1 DFZ     -0.040000
      2 C10         3.4110    0.1430    3.0380 c2        1 DFZ      0.027000
      3 C11         4.6700    0.1750    3.7380 c2        1 DFZ     -0.001000
      4 C12         5.8250    1.0380    3.2880 c3        1 DFZ     -0.115000
      5 C13         7.1120    0.2650    3.4230 c2        1 DFZ     -0.145000
      6 C14         7.2770   -0.7580    4.2900 c2        1 DFZ     -0.148000
      7 C15         6.1950   -0.9850    5.2610 c2        1 DFZ     -0.061000
      8 C16         5.0220   -0.5900    4.7760 c1        1 DFZ     -0.200000
      9 C19         2.1390   -1.3260    5.6640 c3        1 DFZ     -0.171000
     10 C20         1.7010   -1.4090    7.0710 c2        1 DFZ     -0.076000
     11 C21         0.9680   -0.4310    7.6570 c2        1 DFZ     -0.200000
     12 C22         0.5290    0.7120    6.9270 c1        1 DFZ     -0.125000
     13 N1          1.4940    0.2810   -0.0250 n2        1 DFZ     -0.255000
     14 C6          2.0040    0.2380    1.2400 c2        1 DFZ      0.149000
     15 C5          1.1890    0.1160    2.4540 c2        1 DFZ     -0.253000
     16 C4         -0.2220    0.0440    2.2900 c2        1 DFZ      0.229000
     17 N3         -0.6770    0.0700    0.9760 n7        1 DFZ     -0.222000
     18 N90         3.3380    0.2820    1.6350 na        1 DFZ     -0.204000
     19 C17         1.0310    0.8860    5.6090 c2        1 DFZ     -0.228000
     20 C1          2.1130    0.0430    3.5660 c2        1 DFZ     -0.077000
     21 C18         1.7440   -0.0790    4.9580 c2        1 DFZ      0.072000
     22 C23        -3.4320    0.0750    3.9580 c2        1 DFZ     -0.242000
     23 C8         -2.4280   -0.4130    3.2150 c2        1 DFZ     -0.081000
     24 O24        -1.6790    2.0620    5.5760 oh        1 DFZ     -0.440000
     25 H2         -1.6550    0.0130    0.7870 hn        1 DFZ      0.255000
     26 H12         5.6820    1.3460    2.2200 hc        1 DFZ      0.120500
     27 H13         5.9070    1.9810    3.8960 hc        1 DFZ      0.120500
     28 H14         7.9330    0.6140    2.7790 ha        1 DFZ      0.141000
     29 H15         8.2010   -1.3430    4.3690 ha        1 DFZ      0.146000
     30 H16         6.4170   -1.3330    6.2730 ha        1 DFZ      0.160000
     31 H19         3.2760   -1.3970    5.6330 hc        1 DFZ      0.162500
     32 H20         1.7540   -2.2190    5.0920 hc        1 DFZ      0.162500
     33 H21         1.9990   -2.3230    7.6100 ha        1 DFZ      0.130000
     34 H22         0.6590   -0.5060    8.7120 ha        1 DFZ      0.146000
     35 H9         -0.8230    0.4230    4.2130 hn        1 DFZ      0.269000
     36 H90         4.1140    0.3000    1.0240 hn        1 DFZ      0.266000
     37 H17         0.7780    1.8320    5.0980 ha        1 DFZ      0.145000
     38 H231       -1.3330    1.6490    6.3830 ho        1 DFZ      0.217000
     39 H232       -4.4550   -0.2960    3.8210 ha        1 DFZ      0.142000
     40 H8C1       -3.3010    0.8440    4.7350 ha        1 DFZ      0.142000
     41 H8C2       -2.6090   -1.1900    2.4460 h4        1 DFZ      0.136000
     42 H24        -1.3000    2.9440    5.5970 ho        1 DFZ      0.217000
     43 N9         -1.0710   -0.0870    3.3820 n7        1 DFZ     -0.270000
@<TRIPOS>BOND
     1    1   13 1   
     2    1   17 1   
     3    2    3 1   
     4    2   18 1   
     5    2   20 1   
     6    3    4 1   
     7    3    8 1   
     8    4    5 1   
     9    4   26 1   
    10    4   27 1   
    11    5    6 1   
    12    5   28 1   
    13    6    7 1   
    14    6   29 1   
    15    7    8 1   
    16    7   30 1   
    17    9   10 1   
    18    9   21 1   
    19    9   31 1   
    20    9   32 1   
    21   10   11 1   
    22   10   33 1   
    23   11   12 1   
    24   11   34 1   
    25   12   19 1   
    26   13   14 1   
    27   14   15 1   
    28   14   18 1   
    29   15   16 1   
    30   15   20 1   
    31   16   17 1   
    32   16   43 1   
    33   17   25 1   
    34   18   36 1   
    35   19   21 1   
    36   19   37 1   
    37   20   21 1   
    38   22   23 1   
    39   22   39 1   
    40   22   40 1   
    41   23   41 1   
    42   23   43 1   
    43   24   38 1   
    44   24   42 1   
    45   35   43 1   
@<TRIPOS>SUBSTRUCTURE
     1 DFZ         1 TEMP              0 ****  ****    0 ROOT
