@<TRIPOS>MOLECULE
DG
   35    37     1     0     0
SMALL
bcc


@<TRIPOS>ATOM
      1 OP3         0.0610    0.6790    6.0560 o         1 DG      -0.930167
      2 P           0.0340    1.1040    4.6210 p5        1 DG       1.331900
      3 OP1        -1.0940    1.9760    4.1520 o         1 DG      -0.930167
      4 OP2         1.3680    1.4180    3.9710 o         1 DG      -0.930167
      5 O5'        -0.3030   -0.3810    3.7600 os        1 DG      -0.553200
      6 C5'        -0.4030   -0.2190    2.4080 c3        1 DG       0.229400
      7 C4'         0.9010   -0.6740    1.7080 c3        1 DG       0.053100
      8 O4'         0.5830   -1.3650    0.4690 os        1 DG      -0.433600
      9 C3'         1.8630    0.4820    1.3700 c3        1 DG       0.158100
     10 O3'         3.0710    0.3670    2.0870 oh        1 DG      -0.673800
     11 C2'         2.1700    0.3350   -0.1280 c3        1 DG      -0.129400
     12 C1'         1.1620   -0.7120   -0.6450 c3        1 DG       0.251800
     13 N9          0.0990   -0.1490   -1.4850 na        1 DG      -0.181900
     14 C8         -1.1200    0.4230   -1.0680 cc        1 DG       0.452400
     15 N7         -1.9170    0.7930   -2.0980 nd        1 DG      -0.631000
     16 C5         -1.2030    0.4470   -3.2430 cd        1 DG       0.196800
     17 C6         -1.5310    0.6020   -4.6430 c         1 DG       0.645000
     18 O6         -2.5540    1.0880   -5.1590 o         1 DG      -0.642500
     19 N1         -0.5370    0.1120   -5.5310 n         1 DG      -0.498400
     20 C2          0.6770   -0.4420   -5.0770 cd        1 DG       0.595800
     21 N2          1.6200   -0.8100   -6.1030 nh        1 DG      -0.866800
     22 N3          1.0050   -0.6130   -3.7880 nc        1 DG      -0.623100
     23 C4          0.0640   -0.1500   -2.8790 cc        1 DG       0.050800
     24 H5'        -0.6240    0.8550    2.1430 h1        1 DG      -0.004300
     25 H5''       -1.2350   -0.8720    2.0040 h1        1 DG      -0.004300
     26 H4'         1.4160   -1.4420    2.3440 h1        1 DG       0.082700
     27 H3'         1.3860    1.4760    1.5990 h1        1 DG       0.105700
     28 HO3'        2.8580    0.6760    2.9990 ho        1 DG       0.502000
     29 H2'         3.2060   -0.0580   -0.2750 hc        1 DG       0.054200
     30 H2''        2.0880    1.3150   -0.6510 hc        1 DG       0.054200
     31 H1'         1.6620   -1.5120   -1.2670 h2        1 DG       0.066700
     32 H8         -1.3490    0.5280    0.0100 h5        1 DG       0.118100
     33 H1         -0.6770    0.2580   -6.5050 hn        1 DG       0.322500
     34 H21         2.5180   -1.0200   -5.7110 hn        1 DG       0.382300
     35 H22         1.2780   -1.5930   -6.6260 hn        1 DG       0.382300
@<TRIPOS>BOND
     1    1    2 1   
     2    2    3 1   
     3    2    4 1   
     4    2    5 1   
     5    5    6 1   
     6    6    7 1   
     7    6   24 1   
     8    6   25 1   
     9    7    8 1   
    10    7    9 1   
    11    7   26 1   
    12    8   12 1   
    13    9   10 1   
    14    9   11 1   
    15    9   27 1   
    16   10   28 1   
    17   11   12 1   
    18   11   29 1   
    19   11   30 1   
    20   12   13 1   
    21   12   31 1   
    22   13   14 1   
    23   13   23 1   
    24   14   15 2   
    25   14   32 1   
    26   15   16 1   
    27   16   17 1   
    28   16   23 2   
    29   17   18 2   
    30   17   19 1   
    31   19   20 1   
    32   19   33 1   
    33   20   21 1   
    34   20   22 2   
    35   21   34 1   
    36   21   35 1   
    37   22   23 1   
@<TRIPOS>SUBSTRUCTURE
     1 DG          1 TEMP              0 ****  ****    0 ROOT
