@<TRIPOS>MOLECULE
DG
   35    34     1     0     0
SMALL
bcc


@<TRIPOS>ATOM
      1 OP3        -3.4240    2.8340    1.0150 o         1 DG      -0.930167
      2 P          -3.2920    2.0390    2.3040 p5        1 DG       1.565500
      3 OP1        -4.5220    1.2060    2.5060 o         1 DG      -0.930167
      4 OP2        -3.1310    2.9900    3.4690 o         1 DG      -0.930167
      5 O5'        -2.0210    1.0970    2.2140 os        1 DG      -0.715000
      6 C5'        -0.7600    1.6840    2.2600 c3        1 DG       0.079000
      7 C4'         0.3000    0.6020    2.3830 c3        1 DG      -0.058000
      8 O4'         0.2340   -0.3690    1.1380 os        1 DG      -0.290000
      9 C3'         1.4770    1.1200    2.3460 c3        1 DG       0.047000
     10 O3'         2.4120    0.3090    3.1550 oh        1 DG      -0.401000
     11 C2'         1.9280    1.1020    0.7930 c3        1 DG      -0.208000
     12 C1'         1.4630   -0.0280    0.2890 c3        1 DG       0.160000
     13 N9          1.0860    0.1580   -1.0760 n3        1 DG      -0.137000
     14 C8          1.3930    1.1530   -1.9510 c1        1 DG      -0.036000
     15 N7          0.9370    0.7920   -3.1680 n2        1 DG      -0.105000
     16 C5          0.3440   -0.4280   -3.0530 c1        1 DG      -0.221000
     17 C6         -0.2000   -1.3790   -4.0900 c1        1 DG       0.392000
     18 O6         -0.3080   -1.0150   -5.2640 o         1 DG      -0.367000
     19 N1         -0.6540   -2.6370   -3.7080 n3        1 DG      -0.338000
     20 C2         -0.6060   -3.0240   -2.3380 c2        1 DG       0.149000
     21 N2         -1.0600   -4.3130   -1.9470 n3        1 DG      -0.305000
     22 N3         -0.0870   -2.1150   -1.3530 n1        1 DG      -0.196000
     23 C4          0.4380   -0.8170   -1.7610 c1        1 DG       0.001000
     24 H5'        -0.7090    2.2700    3.0170 h1        1 DG       0.035000
     25 H5''       -0.6100    2.1960    1.4400 h1        1 DG       0.035000
     26 H4'         0.1790    0.1010    3.2120 h1        1 DG       0.122000
     27 H3'         1.4520    2.0320    2.6760 h1        1 DG       0.145000
     28 HO3'        2.7750    0.8220    3.8010 ho        1 DG       0.301000
     29 H2'         1.5280    1.8900    0.3070 hc        1 DG       0.093500
     30 H2''        2.9140    1.1240    0.7250 hc        1 DG       0.093500
     31 H1'         2.1410   -0.7450    0.3630 h2        1 DG       0.106000
     32 H8          1.8190    2.0040   -1.7270 DU        1 DG       0.255000
     33 H1         -1.0290   -3.1980   -4.3310 hn        1 DG       0.236000
     34 H21        -1.4420   -4.8700   -2.5640 hn        1 DG       0.177500
     35 H22        -0.9660   -4.5860   -1.0810 hn        1 DG       0.177500
@<TRIPOS>BOND
     1    1    2 1   
     2    2    3 1   
     3    2    4 1   
     4    2    5 1   
     5    5    6 1   
     6    6    7 1   
     7    6   24 1   
     8    6   25 1   
     9    7    8 1   
    10    7    9 1   
    11    7   26 1   
    12    8   12 1   
    13    9   10 1   
    14    9   11 1   
    15    9   27 1   
    16   10   28 1   
    17   11   12 1   
    18   11   29 1   
    19   11   30 1   
    20   12   13 1   
    21   12   31 1   
    22   13   14 1   
    23   13   23 1   
    24   14   15 1   
    25   15   16 1   
    26   16   23 1   
    27   17   18 1   
    28   17   19 1   
    29   19   20 1   
    30   19   33 1   
    31   20   21 1   
    32   20   22 1   
    33   21   34 1   
    34   21   35 1   
@<TRIPOS>SUBSTRUCTURE
     1 DG          1 TEMP              0 ****  ****    0 ROOT
