@<TRIPOS>MOLECULE
DG0
   41    42     1     0     0
SMALL
bcc


@<TRIPOS>ATOM
      1 C1          0.8110    0.7460    0.4510 c3        1 DG0      0.288900
      2 O1         -0.3300    0.0800   -0.0770 os        1 DG0     -0.443600
      3 C2          1.3580    1.6930   -0.6360 c3        1 DG0      0.125100
      4 O2          0.3440    2.4940   -1.2060 oh        1 DG0     -0.621800
      5 C3          2.0640    0.9340   -1.7710 c3        1 DG0      0.126100
      6 O3          2.7520    1.8210   -2.6370 oh        1 DG0     -0.608800
      7 C4          3.0450   -0.0930   -1.1740 c3        1 DG0      0.107100
      8 O4          4.1000    0.6430   -0.5750 oh        1 DG0     -0.657800
      9 C5          2.2930   -1.0160   -0.2130 c3        1 DG0     -0.016900
     10 C6          3.2400   -2.0770    0.4230 c         1 DG0      0.929600
     11 O61         2.8970   -3.2830    0.3050 o         1 DG0     -0.832300
     12 O62         4.3090   -1.6850    0.9710 o         1 DG0     -0.832300
     13 O5          1.6960   -0.2760    0.8510 os        1 DG0     -0.413600
     14 C1'        -3.3600   -0.4810   -1.1370 c3        1 DG0      0.304900
     15 O1'        -4.6020   -0.8590   -0.5600 oh        1 DG0     -0.675800
     16 C2'        -2.3540   -1.6320   -0.9290 c3        1 DG0      0.098100
     17 O2'        -2.9560   -2.8550   -1.3070 oh        1 DG0     -0.595800
     18 C3'        -1.8350   -1.6580    0.5190 c3        1 DG0      0.110100
     19 O3'        -0.8520   -2.6470    0.7050 oh        1 DG0     -0.599800
     20 C4'        -1.3400   -0.2390    0.8800 c3        1 DG0      0.111100
     21 C5'        -2.5550    0.6880    0.7800 c3        1 DG0     -0.007900
     22 C6'        -2.3670    2.1480    1.2830 c         1 DG0      0.937600
     23 O61'       -3.4060    2.7300    1.6940 o         1 DG0     -0.829800
     24 O62'       -1.2080    2.6440    1.3090 o         1 DG0     -0.829800
     25 O5'        -3.0190    0.7590   -0.5720 os        1 DG0     -0.403600
     26 H2'        -1.4870   -1.4990   -1.6350 h1        1 DG0      0.102700
     27 H3'        -2.6740   -1.9530    1.2110 h1        1 DG0      0.057700
     28 H4'        -0.9250   -0.2230    1.9220 h1        1 DG0      0.073700
     29 H5'        -3.3750    0.2320    1.4100 h1        1 DG0      0.025700
     30 H1          0.5660    1.3270    1.3870 h2        1 DG0      0.121700
     31 H2          2.1090    2.3710   -0.1360 h1        1 DG0      0.043700
     32 HO2        -0.4170    2.4880   -0.5980 ho        1 DG0      0.455000
     33 H3          1.3040    0.4250   -2.4230 h1        1 DG0      0.079700
     34 HO3         3.4380    2.2430   -2.1030 ho        1 DG0      0.403000
     35 H4          3.4920   -0.7080   -2.0040 h1        1 DG0      0.038700
     36 HO4         4.3610    0.1700    0.2350 ho        1 DG0      0.461000
     37 H5          1.4850   -1.5410   -0.7930 h1        1 DG0      0.041700
     38 HO1'       -5.0130   -0.0570   -0.2100 ho        1 DG0      0.426000
     39 HO2'       -3.6680   -3.0180   -0.6760 ho        1 DG0      0.400000
     40 HO3'       -0.0010   -2.2900    0.4030 ho        1 DG0      0.442000
     41 H1'        -3.5080   -0.2780   -2.2360 h2        1 DG0      0.058700
@<TRIPOS>BOND
     1    1    2 1   
     2    1    3 1   
     3    1   13 1   
     4    1   30 1   
     5    2   20 1   
     6    3    4 1   
     7    3    5 1   
     8    3   31 1   
     9    4   32 1   
    10    5    6 1   
    11    5    7 1   
    12    5   33 1   
    13    6   34 1   
    14    7    8 1   
    15    7    9 1   
    16    7   35 1   
    17    8   36 1   
    18    9   10 1   
    19    9   13 1   
    20    9   37 1   
    21   10   11 1   
    22   10   12 1   
    23   14   15 1   
    24   14   16 1   
    25   14   25 1   
    26   14   41 1   
    27   15   38 1   
    28   16   17 1   
    29   16   18 1   
    30   16   26 1   
    31   17   39 1   
    32   18   19 1   
    33   18   20 1   
    34   18   27 1   
    35   19   40 1   
    36   20   21 1   
    37   20   28 1   
    38   21   22 1   
    39   21   25 1   
    40   21   29 1   
    41   22   23 1   
    42   22   24 1   
@<TRIPOS>SUBSTRUCTURE
     1 DG0         1 TEMP              0 ****  ****    0 ROOT
