@<TRIPOS>MOLECULE
DG2
   18    19     1     0     0
SMALL
bcc


@<TRIPOS>ATOM
      1 C3          1.5300    0.0000    0.0000 DU        1 DG2     -0.278000
      2 C4          0.0000    0.0000    0.0000 c3        1 DG2     -0.256000
      3 O2          2.0060    0.0000    1.3460 os        1 DG2     -0.521000
      4 O5         -0.4760   -1.1660    0.6730 os        1 DG2     -0.593000
      5 O9          3.4590    1.4000    3.0320 o         1 DG2     -0.813500
      6 O10         4.1160    1.3140    0.4890 o         1 DG2     -0.813500
      7 O11         2.0430    2.5220    1.2700 o         1 DG2     -0.813500
      8 P1          2.8870    1.3340    1.5290 p5        1 DG2      0.932500
      9 C7          2.0320   -1.2290   -0.7120 c3        1 DG2      0.480000
     10 P6         -2.0840   -1.1020    0.6340 p5        1 DG2      0.955500
     11 O15        -2.5440   -1.0840   -0.7710 o         1 DG2     -0.818833
     12 O14        -2.6900   -2.3940    1.3800 o         1 DG2     -0.818833
     13 O13        -2.5850    0.2320    1.3820 o         1 DG2     -0.818833
     14 H3          2.2460   -0.5340   -0.6140 DU        1 DG2      0.227000
     15 H41         0.5320   -0.9040   -0.2720 h1        1 DG2      0.084000
     16 H42         0.9520    0.4470   -0.2580 DU        1 DG2      0.295000
     17 O7          1.7080   -1.4420   -1.9960 o         1 DG2     -0.715500
     18 O8          2.7270   -2.0240   -0.1250 o         1 DG2     -0.715500
@<TRIPOS>BOND
     1    1    2 1   
     2    1    3 1   
     3    1    9 1   
     4    1   14 1   
     5    1   16 1   
     6    2    4 1   
     7    2   15 1   
     8    2   16 1   
     9    3    8 1   
    10    4   10 1   
    11    5    8 1   
    12    6    8 1   
    13    7    8 1   
    14    9   14 1   
    15    9   17 1   
    16    9   18 1   
    17   10   11 1   
    18   10   12 1   
    19   10   13 1   
@<TRIPOS>SUBSTRUCTURE
     1 DG2         1 TEMP              0 ****  ****    0 ROOT
