@<TRIPOS>MOLECULE
DG2
   18    17     1     0     0
SMALL
bcc


@<TRIPOS>ATOM
      1 C3          0.5920    0.1620    0.6380 c3        1 DG2      0.140100
      2 C4         -0.1620   -0.0850   -0.7180 c3        1 DG2      0.200400
      3 O2         -0.2970   -0.0640    1.6940 os        1 DG2     -0.609200
      4 O5          0.2810    0.7050   -1.7810 os        1 DG2     -0.604200
      5 O9         -2.0310    1.0040    3.1880 o         1 DG2     -0.976167
      6 O10         0.1040    0.2550    4.2320 o         1 DG2     -0.976167
      7 O11         0.0860    2.3200    2.7800 o         1 DG2     -0.976167
      8 P1         -0.5170    0.9540    3.0310 p5        1 DG2      1.357900
      9 C7          1.8240   -0.7840    0.7350 c         1 DG2      0.911600
     10 P6         -0.3910    0.4600   -3.3160 p5        1 DG2      1.344900
     11 O15        -1.4610    1.5260   -3.4970 o         1 DG2     -0.976833
     12 O14         0.7680    0.6870   -4.2770 o         1 DG2     -0.976833
     13 O13        -0.9570   -0.9440   -3.4170 o         1 DG2     -0.976833
     14 H3          0.9550    1.2260    0.6800 h1        1 DG2      0.027700
     15 H41        -0.0560   -1.1680   -1.0030 h1        1 DG2     -0.012800
     16 H42        -1.2550    0.1240   -0.5430 h1        1 DG2     -0.012800
     17 O7          2.9990   -0.2820    0.8490 o         1 DG2     -0.941800
     18 O8          1.7280   -2.0570    0.6890 o         1 DG2     -0.941800
@<TRIPOS>BOND
     1    1    2 1   
     2    1    3 1   
     3    1    9 1   
     4    1   14 1   
     5    2    4 1   
     6    2   15 1   
     7    2   16 1   
     8    3    8 1   
     9    4   10 1   
    10    5    8 1   
    11    6    8 1   
    12    7    8 1   
    13    9   17 1   
    14    9   18 1   
    15   10   11 1   
    16   10   12 1   
    17   10   13 1   
@<TRIPOS>SUBSTRUCTURE
     1 DG2         1 TEMP              0 ****  ****    0 ROOT
