@<TRIPOS>MOLECULE
DG2
   18    17     1     0     0
SMALL
bcc


@<TRIPOS>ATOM
      1 C3          0.6940    0.2570   -0.5200 c3        1 DG2      0.140100
      2 C4         -0.8250    0.3940   -0.4570 c3        1 DG2      0.200400
      3 O2          1.2130    0.1250    0.7870 os        1 DG2     -0.609200
      4 O5         -1.3710   -0.6750    0.3210 os        1 DG2     -0.604200
      5 O7          1.3600   -0.8480   -2.5220 o         1 DG2     -0.941800
      6 O8          1.0560   -2.0980   -0.7930 o         1 DG2     -0.941800
      7 O9          3.6220    0.5500    0.1640 o         1 DG2     -0.976167
      8 O10         2.2390    2.3970    1.0820 o         1 DG2     -0.976167
      9 O11         2.9510    0.5410    2.5690 o         1 DG2     -0.976167
     10 P1          2.5130    0.9120    1.1530 p5        1 DG2      1.357900
     11 C7          1.0560   -0.9650   -1.3320 c         1 DG2      0.911600
     12 P6         -2.9580   -0.7880    0.4480 p5        1 DG2      1.344900
     13 O15        -3.5690   -0.7580   -0.9150 o         1 DG2     -0.976833
     14 O14        -3.4810    0.3690    1.2590 o         1 DG2     -0.976833
     15 O13        -3.3170   -2.0800    1.1320 o         1 DG2     -0.976833
     16 H3          1.0790    1.0600   -0.9470 h1        1 DG2      0.027700
     17 H41        -1.2000    0.3570   -1.3840 h1        1 DG2     -0.012800
     18 H42        -1.0600    1.2500   -0.0450 h1        1 DG2     -0.012800
@<TRIPOS>BOND
     1    1    2 1   
     2    1    3 1   
     3    1   11 1   
     4    1   16 1   
     5    2    4 1   
     6    2   17 1   
     7    2   18 1   
     8    3   10 1   
     9    4   12 1   
    10    5   11 1   
    11    6   11 1   
    12    7   10 1   
    13    8   10 1   
    14    9   10 1   
    15   12   13 1   
    16   12   14 1   
    17   12   15 1   
@<TRIPOS>SUBSTRUCTURE
     1 DG2         1 TEMP              0 ****  ****    0 ROOT
