@<TRIPOS>MOLECULE
DG6
   28    27     1     0     0
SMALL
bcc


@<TRIPOS>ATOM
      1 C1          5.2390    0.7430   -0.0080 c3        1 DG6      0.123400
      2 O1          6.4200    0.5210    0.7600 oh        1 DG6     -0.647800
      3 C2          4.0270    0.0320    0.5570 c3        1 DG6     -0.117400
      4 C3          2.8270    0.1290   -0.3840 c3        1 DG6      0.076100
      5 O3          3.1820   -0.4170   -1.6410 oh        1 DG6     -0.674800
      6 C4          1.5950   -0.6520    0.2330 c3        1 DG6      0.381800
      7 O4          1.4800   -1.8440   -0.3270 o         1 DG6     -0.893500
      8 C5          0.3270    0.2400    0.0430 c3        1 DG6      0.065100
      9 O5          0.5750    1.5200    0.6200 oh        1 DG6     -0.644800
     10 C6         -0.8970   -0.4120    0.7000 c3        1 DG6      0.164400
     11 O6         -1.9640    0.4990    0.7300 os        1 DG6     -0.610200
     12 P          -3.3760    0.0640    0.0110 p5        1 DG6      1.434800
     13 O1P        -4.3480    1.1570    0.2230 o         1 DG6     -0.851000
     14 O2P        -2.8670    0.0830   -1.5440 oh        1 DG6     -0.787400
     15 O3P        -3.6380   -1.3630    0.3030 o         1 DG6     -0.851000
     16 HC11        5.1010    1.8570    0.0050 h1        1 DG6      0.037700
     17 HC12        5.4280    0.4050   -1.0620 h1        1 DG6      0.037700
     18 HO1         6.4020   -0.4020    1.0350 ho        1 DG6      0.388000
     19 HC21        4.2660   -1.0510    0.7170 hc        1 DG6      0.036200
     20 HC22        3.7510    0.4770    1.5460 hc        1 DG6      0.036200
     21 HC3         2.5780    1.2080   -0.5670 h1        1 DG6      0.035700
     22 HO3         2.7120   -1.2720   -1.7140 ho        1 DG6      0.434000
     23 HC4         1.7780   -0.6870    1.3580 h1        1 DG6     -0.079300
     24 HO4        -2.2750   -0.6330   -1.7420 ho        1 DG6      0.426000
     25 HC5         0.1260    0.3830   -1.0540 h1        1 DG6      0.015700
     26 HO5        -0.2910    1.9250    0.7570 ho        1 DG6      0.399000
     27 HC61       -1.1850   -1.3450    0.1460 h1        1 DG6      0.033700
     28 HC62       -0.6380   -0.6780    1.7630 h1        1 DG6      0.033700
@<TRIPOS>BOND
     1    1    2 1   
     2    1    3 1   
     3    1   16 1   
     4    1   17 1   
     5    2   18 1   
     6    3    4 1   
     7    3   19 1   
     8    3   20 1   
     9    4    5 1   
    10    4    6 1   
    11    4   21 1   
    12    5   22 1   
    13    6    7 1   
    14    6    8 1   
    15    6   23 1   
    16    8    9 1   
    17    8   10 1   
    18    8   25 1   
    19    9   26 1   
    20   10   11 1   
    21   10   27 1   
    22   10   28 1   
    23   11   12 1   
    24   12   13 1   
    25   12   14 1   
    26   12   15 1   
    27   14   24 1   
@<TRIPOS>SUBSTRUCTURE
     1 DG6         1 TEMP              0 ****  ****    0 ROOT
