@<TRIPOS>MOLECULE
DG6
   28    27     1     0     0
SMALL
bcc


@<TRIPOS>ATOM
      1 C1         -0.3870   -0.7780    0.1680 c3        1 DG6      0.128400
      2 O1          0.9750   -1.1910    0.1870 oh        1 DG6     -0.642800
      3 C2         -0.7910   -0.0720    1.4440 c3        1 DG6     -0.139400
      4 C3         -2.3010    0.1760    1.4870 c3        1 DG6      0.138100
      5 O3         -2.9890   -1.0440    1.3300 oh        1 DG6     -0.664800
      6 C4         -2.6520    0.9420    2.7850 c3        1 DG6      0.160100
      7 O4         -2.1040    0.2900    3.8970 oh        1 DG6     -0.678800
      8 C5         -4.1720    1.1790    2.8560 c3        1 DG6      0.060100
      9 O5         -4.3740    2.5150    2.3720 oh        1 DG6     -0.654800
     10 C6         -4.8010    0.9930    4.2620 c3        1 DG6      0.199400
     11 O6         -5.6970   -0.0460    4.2630 os        1 DG6     -0.570200
     12 P          -5.0890   -1.5030    4.9780 p5        1 DG6      1.339900
     13 O1P        -6.2390   -2.4540    4.8880 o         1 DG6     -0.922500
     14 O2P        -3.9280   -1.7400    4.0190 o         1 DG6     -0.922500
     15 O3P        -4.6490   -1.0340    6.3320 o         1 DG6     -0.922500
     16 HC11       -0.4580   -0.0950   -0.7190 h1        1 DG6      0.042200
     17 HC12       -1.0450   -1.6740    0.0020 h1        1 DG6      0.042200
     18 HO1         1.1140   -1.6450    1.0250 ho        1 DG6      0.395000
     19 HC21       -0.2510    0.9030    1.5350 hc        1 DG6      0.048700
     20 HC22       -0.5210   -0.6980    2.3360 hc        1 DG6      0.048700
     21 HC3        -2.6020    0.8060    0.6010 h1        1 DG6      0.020700
     22 HO3        -3.2610   -1.3750    2.2160 ho        1 DG6      0.500000
     23 HC4        -2.1280    1.9420    2.7440 h1        1 DG6      0.028700
     24 HO4        -2.6930   -0.4810    4.1430 ho        1 DG6      0.503000
     25 HC5        -4.6920    0.4730    2.1450 h1        1 DG6      0.065700
     26 HO5        -5.2920    2.7280    2.5690 ho        1 DG6      0.387000
     27 HC61       -4.0050    0.8400    5.0440 h1        1 DG6      0.004700
     28 HC62       -5.3490    1.9530    4.5120 h1        1 DG6      0.004700
@<TRIPOS>BOND
     1    1    2 1   
     2    1    3 1   
     3    1   16 1   
     4    1   17 1   
     5    2   18 1   
     6    3    4 1   
     7    3   19 1   
     8    3   20 1   
     9    4    5 1   
    10    4    6 1   
    11    4   21 1   
    12    5   22 1   
    13    6    7 1   
    14    6    8 1   
    15    6   23 1   
    16    7   24 1   
    17    8    9 1   
    18    8   10 1   
    19    8   25 1   
    20    9   26 1   
    21   10   11 1   
    22   10   27 1   
    23   10   28 1   
    24   11   12 1   
    25   12   13 1   
    26   12   14 1   
    27   12   15 1   
@<TRIPOS>SUBSTRUCTURE
     1 DG6         1 TEMP              0 ****  ****    0 ROOT
