@<TRIPOS>MOLECULE
DG6
   28    27     1     0     0
SMALL
bcc


@<TRIPOS>ATOM
      1 C1         -0.3960   -0.7070    0.1380 c3        1 DG6      0.128400
      2 O1          0.9500   -1.1700    0.1370 oh        1 DG6     -0.642800
      3 C2         -0.7860   -0.0710    1.4550 c3        1 DG6     -0.139400
      4 C3         -2.2860    0.2290    1.5040 c3        1 DG6      0.138100
      5 O3         -3.0160   -0.9520    1.2630 oh        1 DG6     -0.664800
      6 C4         -2.6200    0.9210    2.8480 c3        1 DG6      0.160100
      7 O4         -2.1050    0.1770    3.9180 oh        1 DG6     -0.678800
      8 C5         -4.1300    1.2080    2.9260 c3        1 DG6      0.060100
      9 O5         -4.2790    2.5800    2.5290 oh        1 DG6     -0.654800
     10 C6         -4.7770    0.9530    4.3130 c3        1 DG6      0.199400
     11 O6         -5.7110   -0.0490    4.2400 os        1 DG6     -0.570200
     12 P          -5.1620   -1.5710    4.8610 p5        1 DG6      1.339900
     13 O1P        -6.3450   -2.4720    4.7010 o         1 DG6     -0.922500
     14 O2P        -4.0020   -1.7870    3.8950 o         1 DG6     -0.922500
     15 O3P        -4.7160   -1.2080    6.2450 o         1 DG6     -0.922500
     16 HC11       -0.4350    0.0350   -0.7030 h1        1 DG6      0.042700
     17 HC12       -1.0860   -1.5650   -0.0910 h1        1 DG6      0.042700
     18 HO1         1.0650   -1.6830    0.9450 ho        1 DG6      0.395000
     19 HC21       -0.2100    0.8750    1.6120 hc        1 DG6      0.048700
     20 HC22       -0.5460   -0.7640    2.3050 hc        1 DG6      0.048700
     21 HC3        -2.5560    0.9270    0.6610 h1        1 DG6      0.020700
     22 HO3        -3.3080   -1.3300    2.1240 ho        1 DG6      0.500000
     23 HC4        -2.0590    1.9010    2.8760 h1        1 DG6      0.028700
     24 HO4        -2.7230   -0.5860    4.1100 ho        1 DG6      0.503000
     25 HC5        -4.6690    0.5700    2.1670 h1        1 DG6      0.065700
     26 HO5        -5.1900    2.8130    2.7350 ho        1 DG6      0.387000
     27 HC61       -3.9940    0.7200    5.0880 h1        1 DG6      0.004700
     28 HC62       -5.2930    1.9150    4.6220 h1        1 DG6      0.004700
@<TRIPOS>BOND
     1    1    2 1   
     2    1    3 1   
     3    1   16 1   
     4    1   17 1   
     5    2   18 1   
     6    3    4 1   
     7    3   19 1   
     8    3   20 1   
     9    4    5 1   
    10    4    6 1   
    11    4   21 1   
    12    5   22 1   
    13    6    7 1   
    14    6    8 1   
    15    6   23 1   
    16    7   24 1   
    17    8    9 1   
    18    8   10 1   
    19    8   25 1   
    20    9   26 1   
    21   10   11 1   
    22   10   27 1   
    23   10   28 1   
    24   11   12 1   
    25   12   13 1   
    26   12   14 1   
    27   12   15 1   
@<TRIPOS>SUBSTRUCTURE
     1 DG6         1 TEMP              0 ****  ****    0 ROOT
