@<TRIPOS>MOLECULE
DG6
   28    27     1     0     0
SMALL
bcc


@<TRIPOS>ATOM
      1 C1          2.8210   -0.6250   -2.4960 c3        1 DG6      0.128400
      2 O1          4.2310   -0.6250   -2.4960 oh        1 DG6     -0.642800
      3 C2          2.3160   -0.6250   -1.0700 c3        1 DG6     -0.139400
      4 C3          0.8050   -0.5660   -1.0690 c3        1 DG6      0.138100
      5 O3          0.2880   -1.8040   -1.4970 oh        1 DG6     -0.664800
      6 C4          0.3130   -0.2710    0.3290 c3        1 DG6      0.160100
      7 O4          0.1910   -1.4750    1.0480 oh        1 DG6     -0.678800
      8 C5         -1.0340    0.4110    0.2550 c3        1 DG6      0.060100
      9 O5         -0.8740    1.7140   -0.2530 oh        1 DG6     -0.654800
     10 C6         -1.6410    0.4800    1.6380 c3        1 DG6      0.199400
     11 O6         -2.7900    1.2940    1.6070 os        1 DG6     -0.570200
     12 P          -3.6670    1.4090    2.9160 p5        1 DG6      1.339900
     13 O1P        -4.7230    2.4700    2.7230 o         1 DG6     -0.922500
     14 O2P        -2.7840    1.7830    4.0830 o         1 DG6     -0.922500
     15 O3P        -4.3320    0.0820    3.1950 o         1 DG6     -0.922500
     16 HC11        2.4950    0.1720   -2.9560 h1        1 DG6      0.042200
     17 HC12        2.4950   -1.4220   -2.9560 h1        1 DG6      0.042200
     18 HO1         4.5270   -0.6130   -3.3330 ho        1 DG6      0.395000
     19 HC21        2.6110   -1.4400   -0.6210 hc        1 DG6      0.048700
     20 HC22        2.6720    0.1530   -0.5990 hc        1 DG6      0.048700
     21 HC3         0.5070    0.1380   -1.6750 h1        1 DG6      0.020700
     22 HO3        -0.1470   -1.6940   -2.2630 ho        1 DG6      0.500000
     23 HC4         0.9500    0.3150    0.7810 h1        1 DG6      0.028700
     24 HO4         0.7620   -1.4730    1.7280 ho        1 DG6      0.503000
     25 HC5        -1.6240   -0.0980   -0.3340 h1        1 DG6      0.065700
     26 HO5        -1.4910    1.8680   -0.8720 ho        1 DG6      0.387000
     27 HC61       -1.8860   -0.4180    1.9310 h1        1 DG6      0.004700
     28 HC62       -0.9900    0.8590    2.2600 h1        1 DG6      0.004700
@<TRIPOS>BOND
     1    1    2 1   
     2    1    3 1   
     3    1   16 1   
     4    1   17 1   
     5    2   18 1   
     6    3    4 1   
     7    3   19 1   
     8    3   20 1   
     9    4    5 1   
    10    4    6 1   
    11    4   21 1   
    12    5   22 1   
    13    6    7 1   
    14    6    8 1   
    15    6   23 1   
    16    7   24 1   
    17    8    9 1   
    18    8   10 1   
    19    8   25 1   
    20    9   26 1   
    21   10   11 1   
    22   10   27 1   
    23   10   28 1   
    24   11   12 1   
    25   12   13 1   
    26   12   14 1   
    27   12   15 1   
@<TRIPOS>SUBSTRUCTURE
     1 DG6         1 TEMP              0 ****  ****    0 ROOT
