@<TRIPOS>MOLECULE
DG7
   65    65     1     0     0
SMALL
bcc


@<TRIPOS>ATOM
      1 CAA         0.4050    1.3570    1.6600 c3        1 DG7     -0.193000
      2 CAB         8.5680   -0.4830    0.6000 c1        1 DG7     -0.030000
      3 CAC         9.2480   -2.2210    2.1870 c3        1 DG7     -0.180500
      4 CAD        10.0910    0.1230    2.3340 c3        1 DG7     -0.180500
      5 OAE         4.6910    0.6960    6.8060 o         1 DG7     -0.429000
      6 CAF         0.3690   11.1030   13.0620 c3        1 DG7     -0.279000
      7 CAG        -1.0730   10.8060   12.8170 c1        1 DG7     -0.003000
      8 CAH         1.3510   10.2670   12.3390 c2        1 DG7     -0.080000
      9 CAI         2.0080   -0.4840    1.4300 c1        1 DG7     -0.174000
     10 CAJ         2.4930    1.3180    2.9980 c2        1 DG7     -0.186000
     11 CAK         2.2660   -1.5050    0.8570 c1        1 DG7     -0.150000
     12 CAL         3.7970    0.9630    3.3340 c1        1 DG7     -0.115000
     13 CAM        -0.5150    9.0670   11.3780 c2        1 DG7      0.099000
     14 CAN         2.2040    2.5880    9.3500 c1        1 DG7     -1.005000
     15 CAO         7.9780    0.2810    4.2310 c1        1 DG7      0.031000
     16 CAP         2.1230    6.2920    9.7750 c3        1 DG7     -0.011000
     17 CAR         1.8640    8.4520   10.7070 c3        1 DG7      0.024000
     18 NAS        -1.4300    9.7810   11.9990 n2        1 DG7     -0.232000
     19 NAT         3.1050    4.2120    7.9850 n2        1 DG7     -0.221000
     20 NAU         6.4680   -0.7820    2.7680 n2        1 DG7      0.082000
     21 NAW         4.5130    2.9800    6.4360 ns        1 DG7     -0.261000
     22 OAX         1.2810    7.1600   10.5410 os        1 DG7     -0.291000
     23 SAY         2.8490    1.4710    8.6290 sh        1 DG7      1.252000
     24 CAZ         5.0640    1.7140    6.1650 c2        1 DG7      0.403000
     25 CBA         1.6730    0.7130    2.0900 c2        1 DG7      0.065000
     26 CBB         0.9230    9.2900   11.5020 c2        1 DG7     -0.196000
     27 CBC         2.2040    3.8900    9.0830 c2        1 DG7      0.195000
     28 CBD         4.2800   -0.3520    3.7230 c3        1 DG7     -0.048000
     29 CBE         6.5600    0.3230    4.8390 c3        1 DG7     -0.006000
     30 CBF         7.7680   -0.4100    2.9830 c2        1 DG7     -0.332000
     31 CBG         3.6460    3.1310    7.4860 c1        1 DG7     -0.203000
     32 NBH         5.7320   -0.4620    3.7940 n3        1 DG7     -0.223000
     33 HAA        -0.4230    0.6040    1.6530 hc        1 DG7      0.099667
     34 HAAA        0.5140    1.7650    0.6230 hc        1 DG7      0.099667
     35 HAAB        0.1240    2.1940    2.3450 hc        1 DG7      0.099667
     36 HAB         7.0510   -2.1050    0.0840 ha        1 DG7      0.012500
     37 HABA        7.7100    0.1800    0.4080 ha        1 DG7      0.034000
     38 HABB        7.6440   -2.3260   -0.1720 ha        1 DG7      0.012500
     39 HAC         8.3630   -2.8770    2.0080 hc        1 DG7      0.087500
     40 HACA        9.6260   -2.3970    3.2230 hc        1 DG7      0.087500
     41 HACB       10.0480   -2.4870    1.4550 hc        1 DG7      0.087500
     42 HAD        10.9370   -0.1560    1.6630 hc        1 DG7      0.087500
     43 HADA       10.3870   -0.0400    3.3990 hc        1 DG7      0.087500
     44 HADB        9.8460    1.2020    2.1950 hc        1 DG7      0.087500
     45 HAG         0.5370   11.0230   14.1750 hc        1 DG7      0.163000
     46 HAH         2.4200   10.4660   12.5050 ha        1 DG7      0.133000
     47 HAI         2.4960   -2.4100    0.3500 ha        1 DG7      0.234000
     48 HAJ         2.1600    2.2810    3.4400 ha        1 DG7      0.168000
     49 HAK         3.8800   -1.1640    3.0370 h1        1 DG7      0.154500
     50 HAL         3.9060   -0.5650    4.7770 h1        1 DG7      0.154500
     51 HAM        -0.8470    8.2350   10.7220 h4        1 DG7      0.175000
     52 HAN         3.9490    1.2430    9.3020 hs        1 DG7     -0.119000
     53 HAO         6.5750   -0.3420    5.7640 h2        1 DG7      0.185000
     54 HAP         2.2770    6.7310    8.7540 h1        1 DG7      0.080500
     55 HAPA        3.1150    6.1830   10.2870 h1        1 DG7      0.080500
     56 HAR         2.8540    8.3520   11.2300 h1        1 DG7      0.078500
     57 HARA        2.0320    8.9180    9.6960 h1        1 DG7      0.078500
     58 HNAW        4.8620    3.7830    5.9560 hn        1 DG7      0.239000
     59 CBI         8.8660   -0.7510    2.0180 c3        1 DG7     -0.052000
     60 NAV         6.0790    1.6230    5.1920 ns        1 DG7     -0.290000
     61 CAQ         1.3930    4.9610    9.7080 c3        1 DG7     -0.114000
     62 HAF         0.5220   12.1910   12.8010 hc        1 DG7      0.163000
     63 HAQ         1.1050    4.6380   10.7450 hc        1 DG7      0.120000
     64 HAQA        0.4430    5.0840    9.1190 hc        1 DG7      0.120000
     65 HNAV        6.0800    2.2970    4.4550 hn        1 DG7      0.243000
@<TRIPOS>BOND
     1    1   25 1   
     2    1   33 1   
     3    1   34 1   
     4    1   35 1   
     5    2   37 1   
     6    2   59 1   
     7    3   39 1   
     8    3   40 1   
     9    3   41 1   
    10    3   59 1   
    11    4   42 1   
    12    4   43 1   
    13    4   44 1   
    14    4   59 1   
    15    5   24 1   
    16    6    7 1   
    17    6    8 1   
    18    6   45 1   
    19    6   62 1   
    20    7   18 1   
    21    8   26 1   
    22    8   46 1   
    23    9   11 1   
    24    9   25 1   
    25   10   12 1   
    26   10   25 1   
    27   10   48 1   
    28   11   47 1   
    29   12   28 1   
    30   13   18 1   
    31   13   26 1   
    32   13   51 1   
    33   14   23 1   
    34   14   27 1   
    35   15   29 1   
    36   15   30 1   
    37   16   22 1   
    38   16   54 1   
    39   16   55 1   
    40   16   61 1   
    41   17   22 1   
    42   17   26 1   
    43   17   56 1   
    44   17   57 1   
    45   19   27 1   
    46   19   31 1   
    47   20   30 1   
    48   20   32 1   
    49   21   24 1   
    50   21   31 1   
    51   21   58 1   
    52   23   52 1   
    53   24   60 1   
    54   27   61 1   
    55   28   32 1   
    56   28   49 1   
    57   28   50 1   
    58   29   32 1   
    59   29   53 1   
    60   29   60 1   
    61   30   59 1   
    62   36   38 1   
    63   60   65 1   
    64   61   63 1   
    65   61   64 1   
@<TRIPOS>SUBSTRUCTURE
     1 DG7         1 TEMP              0 ****  ****    0 ROOT
