@<TRIPOS>MOLECULE
DG7
   65    65     1     0     0
SMALL
bcc


@<TRIPOS>ATOM
      1 CAA        -1.4660   -1.8590   -0.6170 c2        1 DG7     -0.170000
      2 CAB         8.0890   -1.0770    0.5840 c3        1 DG7     -0.207000
      3 CAC         9.5810   -1.2300    2.5730 c3        1 DG7     -0.207000
      4 CAD         9.1540    0.9270    1.3640 c1        1 DG7     -0.017000
      5 OAE         4.2860    1.0850    6.5630 o         1 DG7     -0.429000
      6 CAF         0.0890   10.2800   13.6310 c3        1 DG7     -0.285000
      7 CAG         0.2920   11.7330   13.3680 c1        1 DG7     -0.003000
      8 CAH         0.7460    9.3360   12.7010 c2        1 DG7     -0.048000
      9 CAI         2.5120   -1.2840    2.1310 c1        1 DG7     -0.136000
     10 CAJ         0.2260   -1.4230    1.3140 c2        1 DG7     -0.096000
     11 CAK         3.3650   -1.0740    3.0900 c2        1 DG7     -0.145000
     12 CAL        -0.6140   -1.6450    0.3360 c1        1 DG7     -0.139000
     13 CAM         1.6170   11.2540   11.5170 c2        1 DG7      0.079000
     14 CAN         2.2090    3.0240    9.4340 c1        1 DG7     -1.011000
     15 CAO         7.6570    0.3730    4.1360 c1        1 DG7     -0.050000
     16 CAP         2.5950    6.7060   10.0640 c3        1 DG7     -0.011000
     17 CAR         2.1950    8.9550   10.6750 c3        1 DG7      0.027000
     18 NAS         1.0540   12.1360   12.3140 n2        1 DG7     -0.228000
     19 NAT         3.8390    4.4800    8.7050 n2        1 DG7     -0.222000
     20 NAU         6.1140   -0.0560    2.4100 n2        1 DG7      0.111000
     21 NAW         4.9680    3.2800    6.9240 n         1 DG7     -0.266000
     22 OAX         1.9560    7.5860   10.9940 os        1 DG7     -0.291000
     23 SAY         2.5210    1.9910    8.4290 sh        1 DG7      1.260000
     24 CAZ         5.0620    2.0340    6.2750 c2        1 DG7      0.423000
     25 CBA         1.6670   -1.5180    1.1620 c2        1 DG7     -0.060000
     26 CBB         1.4900    9.8090   11.6710 c2        1 DG7     -0.214000
     27 CBC         2.7150    4.2440    9.5980 c2        1 DG7      0.201000
     28 CBD         3.9200    0.2820    3.4000 c3        1 DG7      0.009000
     29 CBE         6.2320    0.6090    4.6620 c3        1 DG7      0.034000
     30 CBF         7.4440   -0.0440    2.7890 c2        1 DG7     -0.280000
     31 CBG         4.0380    3.4580    7.9140 c1        1 DG7     -0.199000
     32 NBH         5.3740    0.3670    3.3760 n3        1 DG7     -0.212000
     33 HAA        -1.8180   -1.0560   -1.2820 ha        1 DG7      0.138000
     34 HAAA        2.0450   -1.8060    0.1630 ha        1 DG7      0.152000
     35 HAAB       -1.8870   -2.8560   -0.8160 ha        1 DG7      0.138000
     36 HAB         7.5340   -1.9990    0.8770 hc        1 DG7      0.086500
     37 HABA        7.4160   -0.4260   -0.0220 hc        1 DG7      0.086500
     38 HABB        8.9680   -1.3710   -0.0380 hc        1 DG7      0.086500
     39 HAC        10.4670   -1.4140    1.9190 hc        1 DG7      0.086500
     40 HACA        9.9150   -0.7280    3.5140 hc        1 DG7      0.086500
     41 HACB        9.1200   -2.2110    2.8360 hc        1 DG7      0.086500
     42 HAD        10.1970    0.8210    1.0110 ha        1 DG7      0.024000
     43 HADA        9.5500    1.7270    3.3660 ha        1 DG7      0.016000
     44 HADB       10.2020    1.7340    3.1580 ha        1 DG7      0.016000
     45 HAG        -1.0260   10.1020   13.6360 hc        1 DG7      0.166000
     46 HAH         0.6150    8.2550   12.8670 ha        1 DG7      0.155000
     47 HAI         3.7050   -1.8990    3.7410 ha        1 DG7      0.149000
     48 HAJ        -0.1530   -1.1500    2.3170 ha        1 DG7      0.146000
     49 HAK         3.5180    1.0460    2.6730 h1        1 DG7      0.126000
     50 HAL         3.6030    0.5700    4.4470 h1        1 DG7      0.126000
     51 HAM         2.2270   11.6330   10.6730 h4        1 DG7      0.152000
     52 HAN         3.3410    1.1760    9.0430 hs        1 DG7     -0.124000
     53 HAO         5.9380   -0.2330    5.3670 h2        1 DG7      0.173000
     54 HAP         2.1850    6.8890    9.0360 h1        1 DG7      0.080500
     55 HAPA        3.7000    6.9000   10.0640 h1        1 DG7      0.080500
     56 HAR         3.3010    9.1590   10.7040 h1        1 DG7      0.078500
     57 HARA        1.8120    9.1720    9.6390 h1        1 DG7      0.078500
     58 HNAW        5.6340    3.9960    6.7260 hn        1 DG7      0.237000
     59 CBI         8.5680   -0.3480    1.8450 c3        1 DG7     -0.051000
     60 NAV         6.0370    1.8720    5.2890 n         1 DG7     -0.343000
     61 CAQ         2.2770    5.2990   10.5400 c3        1 DG7     -0.114000
     62 HAF         0.4380   10.0870   14.6870 hc        1 DG7      0.166000
     63 HAQ         1.1700    5.1980   10.7050 hc        1 DG7      0.120500
     64 HAQA        2.7790    5.1170   11.5300 hc        1 DG7      0.120500
     65 HNAV        6.6390    2.6150    5.0190 hn        1 DG7      0.257000
@<TRIPOS>BOND
     1    1   12 1   
     2    1   33 1   
     3    1   35 1   
     4    2   36 1   
     5    2   37 1   
     6    2   38 1   
     7    2   59 1   
     8    3   39 1   
     9    3   40 1   
    10    3   41 1   
    11    3   59 1   
    12    4   42 1   
    13    4   59 1   
    14    5   24 1   
    15    6    7 1   
    16    6    8 1   
    17    6   45 1   
    18    6   62 1   
    19    7   18 1   
    20    8   26 1   
    21    8   46 1   
    22    9   11 1   
    23    9   25 1   
    24   10   12 1   
    25   10   25 1   
    26   10   48 1   
    27   11   28 1   
    28   11   47 1   
    29   13   18 1   
    30   13   26 1   
    31   13   51 1   
    32   14   23 1   
    33   14   27 1   
    34   15   29 1   
    35   15   30 1   
    36   16   22 1   
    37   16   54 1   
    38   16   55 1   
    39   16   61 1   
    40   17   22 1   
    41   17   26 1   
    42   17   56 1   
    43   17   57 1   
    44   19   27 1   
    45   19   31 1   
    46   20   30 1   
    47   20   32 1   
    48   21   24 1   
    49   21   31 1   
    50   21   58 1   
    51   23   52 1   
    52   24   60 1   
    53   25   34 1   
    54   27   61 1   
    55   28   32 1   
    56   28   49 1   
    57   28   50 1   
    58   29   32 1   
    59   29   53 1   
    60   29   60 1   
    61   30   59 1   
    62   43   44 1   
    63   60   65 1   
    64   61   63 1   
    65   61   64 1   
@<TRIPOS>SUBSTRUCTURE
     1 DG7         1 TEMP              0 ****  ****    0 ROOT
