@<TRIPOS>MOLECULE
DG7
   65    58     1     0     0
SMALL
bcc


@<TRIPOS>ATOM
      1 CAA        -6.8220    5.4020   -3.8520 c3        1 DG7     -0.182000
      2 CAB        -0.3690    6.9620   -0.7190 c3        1 DG7     -0.204333
      3 CAC        -0.1630    6.4240    1.6830 c3        1 DG7     -0.204333
      4 CAD         1.5030    5.5620    0.0780 c3        1 DG7     -0.204333
      5 OAE         0.0880    0.8270    0.5050 o         1 DG7     -0.335000
      6 CAF         6.1500  -10.1960    1.5390 c1        1 DG7     -0.126000
      7 CAG         7.1100   -9.6710    0.6870 c1        1 DG7     -0.073000
      8 CAH         5.0130   -9.4890    1.8030 c1        1 DG7     -0.126000
      9 CAI        -6.0600    4.6540   -1.5360 c1        1 DG7     -0.126000
     10 CAJ        -4.5860    4.4730   -3.4220 c1        1 DG7     -0.123000
     11 CAK        -5.0350    4.2520   -0.6960 c1        1 DG7     -0.126000
     12 CAL        -3.5600    4.0710   -2.5810 c1        1 DG7     -0.152000
     13 CAM         5.7820   -7.7440    0.3760 c1        1 DG7     -0.045000
     14 CAN        -0.1470   -4.3620    0.6160 c1        1 DG7     -0.487000
     15 CAO        -0.6380    3.3180    0.2410 c1        1 DG7     -0.204000
     16 CAP         2.4770   -5.5970    2.1690 c3        1 DG7     -0.015000
     17 CAQ         2.5150   -4.2630    1.4580 c3        1 DG7     -0.093000
     18 CAR         3.4810   -7.5850    1.3910 c3        1 DG7      0.025000
     19 NAS         6.9170   -8.4500    0.1140 n1        1 DG7     -0.141000
     20 NAT         1.0480   -2.2780    1.0530 n2        1 DG7     -0.125000
     21 NAU        -2.0230    4.8770   -0.4420 n2        1 DG7     -0.062000
     22 NAV        -2.0480    1.3150   -0.1290 n         1 DG7     -0.280000
     23 NAW        -1.2720   -0.9830    0.2350 n         1 DG7     -0.254000
     24 OAX         3.6730   -6.2940    1.9200 os        1 DG7     -0.287000
     25 SAY        -1.0340   -3.1760    0.2550 ss        1 DG7      0.618000
     26 CAZ        -1.0210    0.4100    0.2350 c2        1 DG7      0.369000
     27 CBA        -5.8360    4.7650   -2.8990 c1        1 DG7     -0.065000
     28 CBB         4.8210   -8.2670    1.2280 c1        1 DG7     -0.131000
     29 CBC         1.1090   -3.8440    1.0980 c2        1 DG7     -0.069000
     30 CBD        -3.7850    3.9600   -1.2180 c1        1 DG7      0.050000
     31 CBE        -1.7820    2.7050   -0.1780 c2        1 DG7      0.043000
     32 CBF        -0.7950    4.6630    0.0740 c1        1 DG7     -0.091000
     33 CBG        -0.2310   -1.8900    0.5500 c2        1 DG7     -0.215000
     34 NBH        -2.6360    3.6600   -0.5990 n2        1 DG7     -0.113000
     35 CBI         0.0440    5.9020    0.2790 c2        1 DG7      0.020000
     36 HAA        -7.1000    4.7430   -4.5220 hc        1 DG7      0.087667
     37 HAAA       -6.3980    6.1640   -4.2990 hc        1 DG7      0.087667
     38 HAAB       -7.6060    5.7110   -3.3520 hc        1 DG7      0.087667
     39 HAB         0.1780    7.7640   -0.5880 hc        1 DG7      0.078778
     40 HABA       -0.2380    6.6220   -1.6290 hc        1 DG7      0.078778
     41 HABB       -1.3140    7.1850   -0.5860 hc        1 DG7      0.078778
     42 HAC        -0.1020    5.6820    2.3200 hc        1 DG7      0.078778
     43 HACA       -1.0480    6.8400    1.7500 hc        1 DG7      0.078778
     44 HACB        0.5270    7.0890    1.8890 hc        1 DG7      0.078778
     45 HAD         1.8460    5.1110    0.8770 hc        1 DG7      0.078778
     46 HADA        1.5970    4.9700   -0.6970 hc        1 DG7      0.078778
     47 HADB        2.0120    6.3850   -0.0760 hc        1 DG7      0.078778
     48 HAF         6.2880  -11.0700    1.9500 ha        1 DG7      0.143750
     49 HAG         7.9230  -10.1760    0.4990 ha        1 DG7      0.158000
     50 HAH         4.3370   -9.8580    2.4020 ha        1 DG7      0.143750
     51 HAI        -6.9410    4.8600   -1.1680 ha        1 DG7      0.143750
     52 HAJ        -4.4280    4.5510   -4.3820 ha        1 DG7      0.138000
     53 HAK        -5.1930    4.1740    0.2640 ha        1 DG7      0.143750
     54 HAL        -2.6800    3.8650   -2.9490 ha        1 DG7      0.148000
     55 HAM         5.6450   -6.8690   -0.0350 ha        1 DG7      0.177000
     56 HAN        -0.3880   -5.3050    0.5360 DU        1 DG7      0.189500
     57 HAO         0.1550    2.8730    0.5970 DU        1 DG7      0.189500
     58 HAP         2.3780   -5.4510    3.1320 h1        1 DG7      0.081000
     59 HAPA        1.7180   -6.1210    1.8380 h1        1 DG7      0.081000
     60 HAQ         2.9140   -3.5910    2.0470 hc        1 DG7      0.108500
     61 HAQA        3.0500   -4.3420    0.6440 hc        1 DG7      0.108500
     62 HAR         2.9210   -8.1080    2.0010 h1        1 DG7      0.079000
     63 HARA        3.0400   -7.5180    0.5190 h1        1 DG7      0.079000
     64 HNAV       -2.8840    1.0030   -0.3190 hn        1 DG7      0.230000
     65 HNAW       -2.1010   -1.2970    0.0200 hn        1 DG7      0.216000
@<TRIPOS>BOND
     1    1   27 1   
     2    1   36 1   
     3    1   37 1   
     4    1   38 1   
     5    2   35 1   
     6    2   39 1   
     7    2   40 1   
     8    2   41 1   
     9    3   35 1   
    10    3   42 1   
    11    3   43 1   
    12    3   44 1   
    13    4   35 1   
    14    4   45 1   
    15    4   46 1   
    16    4   47 1   
    17    5   26 1   
    18    6    8 1   
    19    6   48 1   
    20    7   19 1   
    21    7   49 1   
    22    8   50 1   
    23    9   11 1   
    24    9   51 1   
    25   10   27 1   
    26   10   52 1   
    27   11   53 1   
    28   12   30 1   
    29   12   54 1   
    30   13   28 1   
    31   13   55 1   
    32   14   25 1   
    33   14   29 1   
    34   15   31 1   
    35   15   32 1   
    36   16   17 1   
    37   16   24 1   
    38   16   58 1   
    39   16   59 1   
    40   17   29 1   
    41   17   60 1   
    42   17   61 1   
    43   18   24 1   
    44   18   28 1   
    45   18   62 1   
    46   18   63 1   
    47   20   29 1   
    48   20   33 1   
    49   21   32 1   
    50   21   34 1   
    51   22   26 1   
    52   22   31 1   
    53   22   64 1   
    54   23   26 1   
    55   23   33 1   
    56   23   65 1   
    57   25   33 1   
    58   31   34 1   
@<TRIPOS>SUBSTRUCTURE
     1 DG7         1 TEMP              0 ****  ****    0 ROOT
