@<TRIPOS>MOLECULE
DG7
   65    66     1     0     0
SMALL
bcc


@<TRIPOS>ATOM
      1 CAA        -0.5730   -1.4600    0.3580 c3        1 DG7     -0.375000
      2 CAB         8.4860    0.2190    0.5160 c1        1 DG7     -0.028000
      3 CAC         8.7850   -1.8500    1.7930 c3        1 DG7     -0.177500
      4 CAD         9.9940    0.2540    2.3680 c3        1 DG7     -0.177500
      5 OAE         4.4930    1.1290    6.6810 o         1 DG7     -0.426000
      6 CAF        -0.0950   10.3240   13.5190 c3        1 DG7     -0.285000
      7 CAG        -0.0080   11.7740   13.1850 c1        1 DG7     -0.002000
      8 CAH         0.5940    9.3880   12.6060 c2        1 DG7     -0.048000
      9 CAI         2.6770   -1.4440    2.2680 c1        1 DG7     -0.138000
     10 CAJ         0.3550   -1.6450    1.5340 c3        1 DG7     -0.293000
     11 CAK         3.5630   -1.2770    3.2070 c2        1 DG7     -0.136000
     12 CAL        -0.4810   -2.7830    1.0160 c1        1 DG7      0.214000
     13 CAM         1.2780   11.3050   11.3060 c2        1 DG7      0.079000
     14 CAN         2.4080    3.0360    9.5840 c1        1 DG7     -1.011000
     15 CAO         7.8050    0.6130    4.1310 c1        1 DG7     -0.054000
     16 CAP         2.5210    6.7750   10.0070 c3        1 DG7     -0.011000
     17 CAR         1.9910    9.0170   10.5420 c3        1 DG7      0.027000
     18 NAS         0.6820   12.1820   12.0850 n2        1 DG7     -0.227000
     19 NAT         3.8430    4.5900    8.6700 n2        1 DG7     -0.223000
     20 NAU         6.2420   -0.1800    2.5610 n2        1 DG7      0.101000
     21 NAW         4.9870    3.3920    6.8980 n         1 DG7     -0.266000
     22 OAX         1.8540    7.6500   10.9220 os        1 DG7     -0.291000
     23 SAY         2.7570    1.9720    8.6270 sh        1 DG7      1.261000
     24 CAZ         5.1530    2.1310    6.2990 c2        1 DG7      0.421000
     25 CBA         1.8020   -1.6390    1.3200 c2        1 DG7     -0.057000
     26 CBB         1.2630    9.8640   11.5270 c2        1 DG7     -0.214000
     27 CBC         2.8010    4.3060    9.6450 c2        1 DG7      0.205000
     28 CBD         4.0630    0.0720    3.6190 c3        1 DG7      0.007000
     29 CBE         6.3910    0.7270    4.7220 c3        1 DG7      0.032000
     30 CBF         7.5830    0.0360    2.8530 c2        1 DG7     -0.338000
     31 CBG         4.0950    3.5420    7.9280 c1        1 DG7     -0.200000
     32 NBH         5.5060    0.2470    3.5210 n3        1 DG7     -0.198000
     33 HAA        -0.1470   -1.3310   -0.6570 hc        1 DG7      0.156000
     34 HAAA        2.1450   -1.8140    0.2830 ha        1 DG7      0.148000
     35 HAAB       -1.4750   -0.8320    0.4850 hc        1 DG7      0.156000
     36 HAB         6.7740   -1.0300   -0.3320 ha        1 DG7      0.013000
     37 HABA        7.7440    1.0280    0.4210 ha        1 DG7      0.030000
     38 HABB        7.3410   -1.2960   -0.6030 ha        1 DG7      0.013000
     39 HAC         7.8190   -2.3060    1.4700 hc        1 DG7      0.086500
     40 HACA        9.0630   -2.2590    2.7930 hc        1 DG7      0.086500
     41 HACB        9.5760   -2.1220    1.0530 hc        1 DG7      0.086500
     42 HAD        10.8180   -0.0510    1.6790 hc        1 DG7      0.086500
     43 HADA       10.2000   -0.1320    3.3940 hc        1 DG7      0.086500
     44 HADB        9.9390    1.3670    2.4130 hc        1 DG7      0.086500
     45 HAG        -1.1930   10.0680   13.5780 hc        1 DG7      0.166000
     46 HAH         0.5480    8.3090   12.8250 ha        1 DG7      0.155000
     47 HAI         3.9740   -2.1390    3.7610 ha        1 DG7      0.153000
     48 HAJ         0.0480   -1.1930    2.5030 hc        1 DG7      0.157000
     49 HAK         3.5800    0.8800    2.9950 h1        1 DG7      0.126500
     50 HAL         3.7960    0.2430    4.7050 h1        1 DG7      0.126500
     51 HAM         1.8290   11.6870   10.4220 h4        1 DG7      0.152000
     52 HAN         3.6900    1.2800    9.2320 hs        1 DG7     -0.125000
     53 HAO         6.2450   -0.0750    5.5150 h2        1 DG7      0.173000
     54 HAP         2.0660    6.8870    8.9870 h1        1 DG7      0.080500
     55 HAPA        3.6090    7.0420    9.9590 h1        1 DG7      0.080500
     56 HAR         3.0820    9.2930   10.5240 h1        1 DG7      0.078500
     57 HARA        1.5620    9.1650    9.5120 h1        1 DG7      0.078500
     58 HNAW        5.5600    4.1580    6.6140 hn        1 DG7      0.237000
     59 CBI         8.6590   -0.3290    1.8730 c3        1 DG7     -0.050000
     60 NAV         6.0560    2.0120    5.2370 n         1 DG7     -0.344000
     61 CAQ         2.3150    5.3720   10.5500 c3        1 DG7     -0.115000
     62 HAF         0.3060   10.2060   14.5680 hc        1 DG7      0.166000
     63 HAQ         2.8530    5.2690   11.5330 hc        1 DG7      0.121500
     64 HAQA        1.2220    5.2030   10.7510 hc        1 DG7      0.121500
     65 HNAV        6.6150    2.7780    4.9420 hn        1 DG7      0.255000
@<TRIPOS>BOND
     1    1   10 1   
     2    1   12 1   
     3    1   33 1   
     4    1   35 1   
     5    2   37 1   
     6    2   59 1   
     7    3   39 1   
     8    3   40 1   
     9    3   41 1   
    10    3   59 1   
    11    4   42 1   
    12    4   43 1   
    13    4   44 1   
    14    4   59 1   
    15    5   24 1   
    16    6    7 1   
    17    6    8 1   
    18    6   45 1   
    19    6   62 1   
    20    7   18 1   
    21    8   26 1   
    22    8   46 1   
    23    9   11 1   
    24    9   25 1   
    25   10   12 1   
    26   10   25 1   
    27   10   48 1   
    28   11   28 1   
    29   11   47 1   
    30   13   18 1   
    31   13   26 1   
    32   13   51 1   
    33   14   23 1   
    34   14   27 1   
    35   15   29 1   
    36   15   30 1   
    37   16   22 1   
    38   16   54 1   
    39   16   55 1   
    40   16   61 1   
    41   17   22 1   
    42   17   26 1   
    43   17   56 1   
    44   17   57 1   
    45   19   27 1   
    46   19   31 1   
    47   20   30 1   
    48   20   32 1   
    49   21   24 1   
    50   21   31 1   
    51   21   58 1   
    52   23   52 1   
    53   24   60 1   
    54   25   34 1   
    55   27   61 1   
    56   28   32 1   
    57   28   49 1   
    58   28   50 1   
    59   29   32 1   
    60   29   53 1   
    61   29   60 1   
    62   30   59 1   
    63   36   38 1   
    64   60   65 1   
    65   61   63 1   
    66   61   64 1   
@<TRIPOS>SUBSTRUCTURE
     1 DG7         1 TEMP              0 ****  ****    0 ROOT
