@<TRIPOS>MOLECULE
DG7
   65    68     1     0     0
SMALL
bcc


@<TRIPOS>ATOM
      1 CAA         5.1960    6.1410    0.4700 c3        1 DG7     -0.056800
      2 CAB         7.6760   -2.4780   -0.8640 c3        1 DG7     -0.085100
      3 CAC         5.6840   -3.3740   -2.0450 c3        1 DG7     -0.085100
      4 CAD         6.0180   -3.8470    0.3780 c3        1 DG7     -0.085100
      5 OAE         1.4290   -1.7490    1.0980 o         1 DG7     -0.574100
      6 CAF       -10.0570   -0.8320   -1.2820 ca        1 DG7     -0.247300
      7 CAG       -10.8970    0.2840   -1.4380 ca        1 DG7      0.391200
      8 CAH        -8.7360   -0.6240   -0.8780 ca        1 DG7     -0.068000
      9 CAI         5.9410    3.8550    1.1560 ca        1 DG7     -0.124000
     10 CAJ         4.1820    4.0620   -0.4810 ca        1 DG7     -0.124000
     11 CAK         5.8660    2.4680    1.0790 ca        1 DG7     -0.127500
     12 CAL         4.0970    2.6770   -0.5800 ca        1 DG7     -0.127500
     13 CAM        -9.2220    1.7380   -0.8250 ca        1 DG7      0.393200
     14 CAN        -2.6710   -1.8470    2.8460 cc        1 DG7     -0.287400
     15 CAO         3.9420   -1.6120   -0.1990 cc        1 DG7     -0.271300
     16 CAP        -4.9220    0.0510    0.6320 c3        1 DG7      0.137400
     17 CAR        -6.9060    1.0060   -0.2290 c3        1 DG7      0.182700
     18 NAS       -10.4950    1.5520   -1.2160 nb        1 DG7     -0.664000
     19 NAT        -2.0110   -0.4090    1.1220 nd        1 DG7     -0.656000
     20 NAU         5.8720   -0.3440   -0.1790 nd        1 DG7     -0.490800
     21 NAW         0.2960    0.2030    1.7010 n         1 DG7     -0.487400
     22 OAX        -6.2660   -0.1920    0.2100 os        1 DG7     -0.430600
     23 SAY        -1.1090   -1.5260    3.2810 ss        1 DG7      0.040700
     24 CAZ         1.3640   -0.5050    1.0590 c         1 DG7      0.743100
     25 CBA         5.0990    4.6660    0.3860 ca        1 DG7     -0.072300
     26 CBB        -8.2990    0.6840   -0.6430 ca        1 DG7     -0.203600
     27 CBC        -3.0230   -1.1790    1.6690 cd        1 DG7      0.354600
     28 CBD         4.9280    1.8640    0.2170 ca        1 DG7      0.004800
     29 CBE         3.6000   -0.2870    0.1240 cd        1 DG7      0.013300
     30 CBF         5.3830   -1.5970   -0.3770 cc        1 DG7      0.332600
     31 CBG        -0.9100   -0.5030    1.9030 cc        1 DG7      0.442300
     32 NBH         4.8340    0.4440    0.1660 na        1 DG7      0.123300
     33 HAA         5.9770    6.5110   -0.2420 hc        1 DG7      0.048033
     34 HAAA        4.2240    6.6240    0.2050 hc        1 DG7      0.048033
     35 HAAB        5.4830    6.4640    1.5010 hc        1 DG7      0.048033
     36 HAB         7.8350   -1.7220   -1.6690 hc        1 DG7      0.039478
     37 HABA        8.0810   -2.0730    0.0930 hc        1 DG7      0.039478
     38 HABB        8.2420   -3.4040   -1.1270 hc        1 DG7      0.039478
     39 HAC         5.8270   -2.6320   -2.8660 hc        1 DG7      0.039478
     40 HACA        6.2470   -4.3040   -2.2990 hc        1 DG7      0.039478
     41 HACB        4.5980   -3.6200   -1.9680 hc        1 DG7      0.039478
     42 HAD         6.5780   -4.7760    0.1140 hc        1 DG7      0.039478
     43 HADA        6.4090   -3.4550    1.3470 hc        1 DG7      0.039478
     44 HADB        4.9380   -4.1000    0.5030 hc        1 DG7      0.039478
     45 HAG       -11.9470    0.1650   -1.7560 h4        1 DG7      0.021100
     46 HAH        -8.0440   -1.4690   -0.7410 ha        1 DG7      0.157000
     47 HAI         6.6750    4.3200    1.8320 ha        1 DG7      0.139000
     48 HAJ         3.5260    4.6890   -1.1040 ha        1 DG7      0.139000
     49 HAK         6.5450    1.8470    1.6850 ha        1 DG7      0.152500
     50 HAL         3.3970    2.2280   -1.3030 ha        1 DG7      0.152500
     51 HAM        -8.9210    2.7860   -0.6470 h4        1 DG7      0.019100
     52 HAN        -3.3410   -2.5020    3.4010 h4        1 DG7      0.186000
     53 HAO         3.2730   -2.4650   -0.2700 ha        1 DG7      0.192000
     54 HAP        -4.9260    0.7560    1.5050 h1        1 DG7      0.039200
     55 HAPA       -4.3360    0.5050   -0.2100 h1        1 DG7      0.039200
     56 HAR        -6.9090    1.7570    0.6090 h1        1 DG7      0.039700
     57 HARA       -6.3350    1.4350   -1.1000 h1        1 DG7      0.039700
     58 HNAW        0.1410    1.1380    1.3670 hn        1 DG7      0.303500
     59 CBI         6.1950   -2.8070   -0.7240 c3        1 DG7     -0.076300
     60 NAV         2.3470    0.2730    0.3980 n         1 DG7     -0.426100
     61 CAQ        -4.3570   -1.3050    1.0270 c3        1 DG7     -0.108700
     62 HAF       -10.4350   -1.8440   -1.4740 ha        1 DG7      0.144000
     63 HAQ        -5.0650   -1.8120    1.7350 hc        1 DG7      0.069700
     64 HAQA       -4.2720   -1.9520    0.1120 hc        1 DG7      0.069700
     65 HNAV        2.3420    1.2610    0.5500 hn        1 DG7      0.316500
@<TRIPOS>BOND
     1    1   25 1   
     2    1   33 1   
     3    1   34 1   
     4    1   35 1   
     5    2   36 1   
     6    2   37 1   
     7    2   38 1   
     8    2   59 1   
     9    3   39 1   
    10    3   40 1   
    11    3   41 1   
    12    3   59 1   
    13    4   42 1   
    14    4   43 1   
    15    4   44 1   
    16    4   59 1   
    17    5   24 2   
    18    6    7 ar  
    19    6    8 ar  
    20    6   62 1   
    21    7   18 ar  
    22    7   45 1   
    23    8   26 ar  
    24    8   46 1   
    25    9   11 ar  
    26    9   25 ar  
    27    9   47 1   
    28   10   12 ar  
    29   10   25 ar  
    30   10   48 1   
    31   11   28 ar  
    32   11   49 1   
    33   12   28 ar  
    34   12   50 1   
    35   13   18 ar  
    36   13   26 ar  
    37   13   51 1   
    38   14   23 1   
    39   14   27 2   
    40   14   52 1   
    41   15   29 2   
    42   15   30 1   
    43   15   53 1   
    44   16   22 1   
    45   16   54 1   
    46   16   55 1   
    47   16   61 1   
    48   17   22 1   
    49   17   26 1   
    50   17   56 1   
    51   17   57 1   
    52   19   27 1   
    53   19   31 2   
    54   20   30 2   
    55   20   32 1   
    56   21   24 1   
    57   21   31 1   
    58   21   58 1   
    59   23   31 1   
    60   24   60 1   
    61   27   61 1   
    62   28   32 1   
    63   29   32 1   
    64   29   60 1   
    65   30   59 1   
    66   60   65 1   
    67   61   63 1   
    68   61   64 1   
@<TRIPOS>SUBSTRUCTURE
     1 DG7         1 TEMP              0 ****  ****    0 ROOT
