@<TRIPOS>MOLECULE
DG8
   61    67     1     0     0
SMALL
bcc


@<TRIPOS>ATOM
      1 P          -1.9370    4.0740   -0.4030 p5        1 DG8      1.344900
      2 O1P        -2.3670    2.7830    0.2520 o         1 DG8     -0.932167
      3 O2P        -2.6620    5.3250   -0.0310 o         1 DG8     -0.932167
      4 O5'        -0.3480    4.2850    0.2690 os        1 DG8     -0.555200
      5 C5'         0.4230    3.1570    0.2960 c3        1 DG8      0.231400
      6 C4'         1.4400    3.1390   -0.8680 c3        1 DG8      0.052100
      7 C3'         0.9270    2.4760   -2.1620 c3        1 DG8      0.155100
      8 C2'         2.0010    1.4470   -2.5490 c3        1 DG8     -0.131400
      9 C1'         2.9540    1.3760   -1.3430 c3        1 DG8      0.246800
     10 O4'         2.6250    2.4220   -0.4400 os        1 DG8     -0.435600
     11 N9          2.9950    0.0910   -0.6390 na        1 DG8     -0.189900
     12 C8          1.9250   -0.7460   -0.1540 cc        1 DG8      0.663400
     13 N7          2.3730   -1.7180    0.7130 nd        1 DG8     -0.648000
     14 C5          3.7400   -1.5000    0.8190 cd        1 DG8      0.216800
     15 C6          4.7360   -2.2160    1.5910 c         1 DG8      0.642000
     16 O6          4.5930   -3.2240    2.3050 o         1 DG8     -0.639500
     17 N1          6.0410   -1.6710    1.4990 n         1 DG8     -0.497400
     18 C2          6.3390   -0.5570    0.6870 cd        1 DG8      0.595800
     19 N2          7.7250   -0.1690    0.6340 nh        1 DG8     -0.865800
     20 N3          5.4380    0.1170   -0.0440 nc        1 DG8     -0.616100
     21 C4          4.1410   -0.3700    0.0250 cc        1 DG8      0.068800
     22 N24         0.6130   -0.5920   -0.6290 nh        1 DG8     -0.718300
     23 C25        -0.3060   -1.6570   -0.5400 ca        1 DG8      0.180600
     24 C30        -1.6820   -1.4140   -0.2510 ca        1 DG8     -0.050000
     25 C35        -2.5910   -2.5070   -0.2640 ca        1 DG8     -0.005000
     26 C34        -3.9820   -2.2910    0.0170 ca        1 DG8     -0.032000
     27 C38        -4.8940   -3.3820    0.0150 ca        1 DG8     -0.031000
     28 C37        -4.3950   -4.7000   -0.2720 ca        1 DG8     -0.142000
     29 C36        -3.0830   -4.9080   -0.5430 ca        1 DG8     -0.108000
     30 C28        -2.1400   -3.8230   -0.5520 ca        1 DG8     -0.073000
     31 C27        -0.7880   -4.0290   -0.8400 ca        1 DG8     -0.115000
     32 C26         0.1100   -2.9720   -0.8430 ca        1 DG8     -0.150000
     33 C39        -6.2460   -3.1520    0.2880 ca        1 DG8     -0.158000
     34 C40        -6.7020   -1.8610    0.5570 ca        1 DG8     -0.140000
     35 C41        -5.8220   -0.7860    0.5610 ca        1 DG8     -0.121000
     36 C33        -4.4560   -0.9810    0.2950 ca        1 DG8     -0.009000
     37 C32        -3.5210    0.1050    0.2940 ca        1 DG8     -0.105000
     38 C31        -2.2010   -0.1070    0.0410 ca        1 DG8     -0.112000
     39 O3'         0.8230    3.4160   -3.2060 oh        1 DG8     -0.667800
     40 H3          1.0240    3.1360    1.2540 h1        1 DG8     -0.005800
     41 H4         -0.2110    2.2270    0.2520 h1        1 DG8     -0.005800
     42 H5          1.7820    4.1880   -1.0800 h1        1 DG8      0.077700
     43 H6         -0.0730    1.9870   -1.9970 h1        1 DG8      0.096700
     44 H7          1.5470    0.4670   -2.8220 hc        1 DG8      0.061700
     45 H8          2.5770    1.8150   -3.4350 hc        1 DG8      0.061700
     46 H9          4.0220    1.5670   -1.6690 h2        1 DG8      0.072700
     47 H10         6.7730   -2.1400    1.9820 hn        1 DG8      0.323500
     48 H11         8.0310    0.1570    1.5310 hn        1 DG8      0.384300
     49 H12         7.8770    0.5380   -0.0600 hn        1 DG8      0.384300
     50 H13         0.2420    0.3400   -0.5420 hn        1 DG8      0.479800
     51 H14        -5.1140   -5.5320   -0.2660 ha        1 DG8      0.109000
     52 H15        -2.7000   -5.9160   -0.7630 ha        1 DG8      0.109000
     53 H16        -0.4300   -5.0430   -1.0680 ha        1 DG8      0.113000
     54 H17         1.1630   -3.1790   -1.0850 ha        1 DG8      0.138000
     55 H18        -6.9510   -3.9950    0.2870 ha        1 DG8      0.107000
     56 H19        -7.7680   -1.6960    0.7660 ha        1 DG8      0.109000
     57 H20        -6.1810    0.2330    0.7690 ha        1 DG8      0.143000
     58 H21        -3.8440    1.1530    0.4850 ha        1 DG8      0.229000
     59 H22        -1.5690    0.8080    0.0630 ha        1 DG8      0.226000
     60 H23        -0.0230    3.8950   -3.0450 ho        1 DG8      0.501000
     61 O3P        -1.5330    3.8730   -1.8470 o         1 DG8     -0.932167
@<TRIPOS>BOND
     1    1    2 1   
     2    1    3 1   
     3    1    4 1   
     4    1   61 1   
     5    4    5 1   
     6    5    6 1   
     7    5   40 1   
     8    5   41 1   
     9    6    7 1   
    10    6   10 1   
    11    6   42 1   
    12    7    8 1   
    13    7   39 1   
    14    7   43 1   
    15    8    9 1   
    16    8   44 1   
    17    8   45 1   
    18    9   10 1   
    19    9   11 1   
    20    9   46 1   
    21   11   12 1   
    22   11   21 1   
    23   12   13 2   
    24   12   22 1   
    25   13   14 1   
    26   14   15 1   
    27   14   21 2   
    28   15   16 2   
    29   15   17 1   
    30   17   18 1   
    31   17   47 1   
    32   18   19 1   
    33   18   20 2   
    34   19   48 1   
    35   19   49 1   
    36   20   21 1   
    37   22   23 1   
    38   22   50 1   
    39   23   24 ar  
    40   23   32 ar  
    41   24   25 ar  
    42   24   38 ar  
    43   25   26 ar  
    44   25   30 ar  
    45   26   27 ar  
    46   26   36 ar  
    47   27   28 ar  
    48   27   33 ar  
    49   28   29 ar  
    50   28   51 1   
    51   29   30 ar  
    52   29   52 1   
    53   30   31 ar  
    54   31   32 ar  
    55   31   53 1   
    56   32   54 1   
    57   33   34 ar  
    58   33   55 1   
    59   34   35 ar  
    60   34   56 1   
    61   35   36 ar  
    62   35   57 1   
    63   36   37 ar  
    64   37   38 ar  
    65   37   58 1   
    66   38   59 1   
    67   39   60 1   
@<TRIPOS>SUBSTRUCTURE
     1 DG8         1 TEMP              0 ****  ****    0 ROOT
