@<TRIPOS>MOLECULE
DGA
  120   119     1     0     0
SMALL
bcc


@<TRIPOS>ATOM
      1 CA1        -0.2860   -0.7660   -0.4360 c         1 DGA      0.632100
      2 CA2         1.1420   -1.1540   -0.2040 c3        1 DGA     -0.126400
      3 CA3         1.6350   -0.5770    1.1070 c3        1 DGA     -0.077400
      4 CA4         3.0950   -0.9110    1.3270 c3        1 DGA     -0.078400
      5 CA5         3.5950   -0.3200    2.6280 c3        1 DGA     -0.079400
      6 CA6         5.0850   -0.5310    2.7920 c3        1 DGA     -0.079400
      7 CA7         5.5800    0.0650    4.0930 c3        1 DGA     -0.078400
      8 CA8         7.0870   -0.0180    4.2290 c3        1 DGA     -0.077400
      9 CA9         7.8220    1.0440    3.4380 c3        1 DGA     -0.078400
     10 CAA         7.7870    2.3980    4.1140 c3        1 DGA     -0.079400
     11 CBA         8.4940    3.4460    3.2810 c3        1 DGA     -0.079400
     12 CCA         8.4400    4.8050    3.9460 c3        1 DGA     -0.079400
     13 CDA         9.1350    5.8550    3.1070 c3        1 DGA     -0.078400
     14 CEA         9.0800    7.2140    3.7710 c3        1 DGA     -0.080400
     15 CFA         9.7890    8.2630    2.9400 c3        1 DGA     -0.078400
     16 CGA         9.7600    9.6100    3.6270 c3        1 DGA     -0.085400
     17 CHA        10.4760   10.6690    2.8160 c3        1 DGA     -0.079400
     18 CIA        10.4600   12.0010    3.5200 c3        1 DGA     -0.094100
     19 OA1        -1.2950   -1.1090    0.1830 o         1 DGA     -0.537000
     20 CB1        -1.3940    3.6500   -1.5930 c         1 DGA      0.636100
     21 CB2        -0.4310    4.7400   -1.2380 c3        1 DGA     -0.127400
     22 CB3        -0.6060    5.1670    0.2040 c3        1 DGA     -0.079400
     23 CB4         0.3520    6.2870    0.5520 c3        1 DGA     -0.078400
     24 CB5         0.1570    6.7440    1.9820 c3        1 DGA     -0.079400
     25 CB6         1.1600    7.8140    2.3580 c3        1 DGA     -0.079400
     26 CB7         0.9120    8.3280    3.7600 c3        1 DGA     -0.078400
     27 CB8         1.9290    9.3680    4.1810 c3        1 DGA     -0.078400
     28 CB9         3.2290    8.7480    4.6480 c3        1 DGA     -0.079400
     29 CAB         4.2320    9.8130    5.0370 c3        1 DGA     -0.079400
     30 CBB         5.4970    9.2000    5.6010 c3        1 DGA     -0.079400
     31 CCB         6.5090   10.2680    5.9610 c3        1 DGA     -0.079400
     32 CDB         7.7390    9.6650    6.6040 c3        1 DGA     -0.083400
     33 CEB         8.7780   10.7260    6.8980 c3        1 DGA     -0.083400
     34 CFB         9.9860   10.1360    7.5930 c3        1 DGA     -0.079400
     35 CGB        11.0510   11.1860    7.8290 c3        1 DGA     -0.079400
     36 CHB        12.2570   10.6010    8.5330 c3        1 DGA     -0.080400
     37 CIB        13.3200   11.6430    8.7670 c3        1 DGA     -0.092100
     38 OB1        -2.5670    3.5030   -1.2470 o         1 DGA     -0.538000
     39 OG1        -0.4350    0.0830   -1.5000 os        1 DGA     -0.440900
     40 CG1        -1.7620    0.5640   -1.7600 c3        1 DGA      0.114400
     41 CG2        -1.6590    1.6190   -2.8560 c3        1 DGA      0.108100
     42 OG2        -0.8400    2.7230   -2.4360 os        1 DGA     -0.446900
     43 CG3        -0.9740    1.0730   -4.1130 c3        1 DGA      0.135400
     44 OXT        -0.9640    2.0320   -5.1480 oh        1 DGA     -0.595800
     45 HA21        1.7760   -0.7870   -1.0540 hc        1 DGA      0.077700
     46 HA22        1.1950   -2.2750   -0.1820 hc        1 DGA      0.077700
     47 HA31        1.0170   -0.9840    1.9510 hc        1 DGA      0.055200
     48 HA32        1.5020    0.5370    1.1010 hc        1 DGA      0.055200
     49 HA41        3.7050   -0.5130    0.4730 hc        1 DGA      0.042200
     50 HA42        3.2320   -2.0250    1.3410 hc        1 DGA      0.042200
     51 HA51        3.3690    0.7790    2.6520 hc        1 DGA      0.042200
     52 HA52        3.0490   -0.7880    3.4890 hc        1 DGA      0.042200
     53 HA61        5.3150   -1.6290    2.7680 hc        1 DGA      0.040200
     54 HA62        5.6270   -0.0620    1.9290 hc        1 DGA      0.040200
     55 HA71        5.1040   -0.4840    4.9490 hc        1 DGA      0.040700
     56 HA72        5.2510    1.1350    4.1650 hc        1 DGA      0.040700
     57 HA81        7.3600    0.0780    5.3140 hc        1 DGA      0.039700
     58 HA82        7.4310   -1.0300    3.8890 hc        1 DGA      0.039700
     59 HA91        7.3780    1.1270    2.4110 hc        1 DGA      0.039700
     60 HA92        8.8920    0.7280    3.3110 hc        1 DGA      0.039700
     61 HAT1        8.2740    2.3280    5.1220 hc        1 DGA      0.039700
     62 HAT2        6.7230    2.7110    4.2830 hc        1 DGA      0.039700
     63 HAE1        9.5630    3.1450    3.1260 hc        1 DGA      0.039200
     64 HAE2        8.0170    3.5050    2.2670 hc        1 DGA      0.039200
     65 HAW1        8.9240    4.7480    4.9560 hc        1 DGA      0.039200
     66 HAW2        7.3700    5.1010    4.1090 hc        1 DGA      0.039200
     67 HAH1        8.6510    5.9110    2.0960 hc        1 DGA      0.039200
     68 HAH2       10.2050    5.5590    2.9450 hc        1 DGA      0.039200
     69 HAF1        8.0100    7.5160    3.9260 hc        1 DGA      0.039700
     70 HAF2        9.5550    7.1560    4.7870 hc        1 DGA      0.039700
     71 HAN1       10.8520    7.9510    2.7670 hc        1 DGA      0.039200
     72 HAN2        9.2990    8.3410    1.9340 hc        1 DGA      0.039200
     73 HAS1        8.6950    9.9240    3.7990 hc        1 DGA      0.042200
     74 HAS2       10.2390    9.5270    4.6400 hc        1 DGA      0.042200
     75 HAV1       11.5360   10.3500    2.6360 hc        1 DGA      0.038200
     76 HAV2        9.9860   10.7660    1.8110 hc        1 DGA      0.038200
     77 HAG1       10.9870   12.7720    2.9080 hc        1 DGA      0.032700
     78 HAG2       10.9680   11.9280    4.5130 hc        1 DGA      0.032700
     79 HAG3        9.4100   12.3430    3.6930 hc        1 DGA      0.032700
     80 HB21       -0.6300    5.6040   -1.9280 hc        1 DGA      0.079200
     81 HB22        0.6190    4.3890   -1.4200 hc        1 DGA      0.079200
     82 HB31       -0.4250    4.2910    0.8810 hc        1 DGA      0.058200
     83 HB32       -1.6650    5.5000    0.3690 hc        1 DGA      0.058200
     84 HB41        0.1920    7.1520   -0.1440 hc        1 DGA      0.041200
     85 HB42        1.4090    5.9370    0.4090 hc        1 DGA      0.041200
     86 HB51        0.2640    5.8680    2.6760 hc        1 DGA      0.042700
     87 HB52       -0.8840    7.1410    2.1100 hc        1 DGA      0.042700
     88 HB61        1.0940    8.6640    1.6290 hc        1 DGA      0.040200
     89 HB62        2.1990    7.3970    2.2860 hc        1 DGA      0.040200
     90 HB71        0.9270    7.4700    4.4830 hc        1 DGA      0.040200
     91 HB72       -0.1150    8.7790    3.8060 hc        1 DGA      0.040200
     92 HB81        2.1310   10.0660    3.3270 hc        1 DGA      0.039700
     93 HB82        1.4970    9.9830    5.0150 hc        1 DGA      0.039700
     94 HB91        3.0310    8.0790    5.5270 hc        1 DGA      0.039700
     95 HB92        3.6580    8.1070    3.8350 hc        1 DGA      0.039700
     96 HBT1        4.4840   10.4380    4.1410 hc        1 DGA      0.039700
     97 HBT2        3.7770   10.4980    5.8010 hc        1 DGA      0.039700
     98 HBE1        5.9450    8.4980    4.8490 hc        1 DGA      0.039200
     99 HBE2        5.2480    8.5950    6.5120 hc        1 DGA      0.039200
    100 HBW1        6.8060   10.8290    5.0350 hc        1 DGA      0.039200
    101 HBW2        6.0420   11.0090    6.6620 hc        1 DGA      0.039200
    102 HBH1        7.4510    9.1440    7.5540 hc        1 DGA      0.041200
    103 HBH2        8.1810    8.8920    5.9190 hc        1 DGA      0.041200
    104 HBF1        9.1000   11.2090    5.9350 hc        1 DGA      0.041200
    105 HBF2        8.3290   11.5290    7.5400 hc        1 DGA      0.041200
    106 HBN1        9.6750    9.6870    8.5730 hc        1 DGA      0.039200
    107 HBN2       10.4100    9.3060    6.9680 hc        1 DGA      0.039200
    108 HBS1       10.6250   12.0220    8.4440 hc        1 DGA      0.039200
    109 HBS2       11.3670   11.6270    6.8460 hc        1 DGA      0.039200
    110 HBV1       12.6790    9.7640    7.9180 hc        1 DGA      0.038700
    111 HBV2       11.9380   10.1610    9.5150 hc        1 DGA      0.038700
    112 HBG1       13.6680   12.0760    7.7980 hc        1 DGA      0.032700
    113 HBG2       12.9250   12.4750    9.4000 hc        1 DGA      0.032700
    114 HBG3       14.1980   11.1910    9.2880 hc        1 DGA      0.032700
    115 HG11       -2.1890    1.0090   -0.8220 h1        1 DGA      0.071200
    116 HG12       -2.3980   -0.2940   -2.0980 h1        1 DGA      0.071200
    117 HG2        -2.6950    1.9930   -3.0910 h1        1 DGA      0.089700
    118 HG31        0.0700    0.7460   -3.8640 h1        1 DGA      0.063700
    119 HG32       -1.5670    0.2100   -4.5150 h1        1 DGA      0.063700
    120 HXT        -0.4570    2.7880   -4.8270 ho        1 DGA      0.409000
@<TRIPOS>BOND
     1    1    2 1   
     2    1   19 2   
     3    1   39 1   
     4    2    3 1   
     5    2   45 1   
     6    2   46 1   
     7    3    4 1   
     8    3   47 1   
     9    3   48 1   
    10    4    5 1   
    11    4   49 1   
    12    4   50 1   
    13    5    6 1   
    14    5   51 1   
    15    5   52 1   
    16    6    7 1   
    17    6   53 1   
    18    6   54 1   
    19    7    8 1   
    20    7   55 1   
    21    7   56 1   
    22    8    9 1   
    23    8   57 1   
    24    8   58 1   
    25    9   10 1   
    26    9   59 1   
    27    9   60 1   
    28   10   11 1   
    29   10   61 1   
    30   10   62 1   
    31   11   12 1   
    32   11   63 1   
    33   11   64 1   
    34   12   13 1   
    35   12   65 1   
    36   12   66 1   
    37   13   14 1   
    38   13   67 1   
    39   13   68 1   
    40   14   15 1   
    41   14   69 1   
    42   14   70 1   
    43   15   16 1   
    44   15   71 1   
    45   15   72 1   
    46   16   17 1   
    47   16   73 1   
    48   16   74 1   
    49   17   18 1   
    50   17   75 1   
    51   17   76 1   
    52   18   77 1   
    53   18   78 1   
    54   18   79 1   
    55   20   21 1   
    56   20   38 2   
    57   20   42 1   
    58   21   22 1   
    59   21   80 1   
    60   21   81 1   
    61   22   23 1   
    62   22   82 1   
    63   22   83 1   
    64   23   24 1   
    65   23   84 1   
    66   23   85 1   
    67   24   25 1   
    68   24   86 1   
    69   24   87 1   
    70   25   26 1   
    71   25   88 1   
    72   25   89 1   
    73   26   27 1   
    74   26   90 1   
    75   26   91 1   
    76   27   28 1   
    77   27   92 1   
    78   27   93 1   
    79   28   29 1   
    80   28   94 1   
    81   28   95 1   
    82   29   30 1   
    83   29   96 1   
    84   29   97 1   
    85   30   31 1   
    86   30   98 1   
    87   30   99 1   
    88   31   32 1   
    89   31  100 1   
    90   31  101 1   
    91   32   33 1   
    92   32  102 1   
    93   32  103 1   
    94   33   34 1   
    95   33  104 1   
    96   33  105 1   
    97   34   35 1   
    98   34  106 1   
    99   34  107 1   
   100   35   36 1   
   101   35  108 1   
   102   35  109 1   
   103   36   37 1   
   104   36  110 1   
   105   36  111 1   
   106   37  112 1   
   107   37  113 1   
   108   37  114 1   
   109   39   40 1   
   110   40   41 1   
   111   40  115 1   
   112   40  116 1   
   113   41   42 1   
   114   41   43 1   
   115   41  117 1   
   116   43   44 1   
   117   43  118 1   
   118   43  119 1   
   119   44  120 1   
@<TRIPOS>SUBSTRUCTURE
     1 DGA         1 TEMP              0 ****  ****    0 ROOT
