@<TRIPOS>MOLECULE
DGA
  120   119     1     0     0
SMALL
bcc


@<TRIPOS>ATOM
      1 CA1        -8.1380   13.0140   -4.9220 c         1 DGA      0.632100
      2 CA2        -8.9720   14.0040   -5.6750 c3        1 DGA     -0.126400
      3 CA3       -10.2600   14.2820   -4.9260 c3        1 DGA     -0.077400
      4 CA4       -11.1400   15.2370   -5.7040 c3        1 DGA     -0.078400
      5 CA5       -12.4350   15.5010   -4.9650 c3        1 DGA     -0.079400
      6 CA6       -13.3790   16.3450   -5.7950 c3        1 DGA     -0.079400
      7 CA7       -14.6740   16.6040   -5.0530 c3        1 DGA     -0.078400
      8 CA8       -15.6900   17.3380   -5.9040 c3        1 DGA     -0.077400
      9 CA9       -16.4080   16.4410   -6.8920 c3        1 DGA     -0.078400
     10 CAA       -17.4890   15.6080   -6.2360 c3        1 DGA     -0.079400
     11 CBA       -18.1610   14.6940   -7.2380 c3        1 DGA     -0.079400
     12 CCA       -19.2260   13.8440   -6.5790 c3        1 DGA     -0.079400
     13 CDA       -19.8890   12.9200   -7.5780 c3        1 DGA     -0.078400
     14 CEA       -20.9530   12.0700   -6.9190 c3        1 DGA     -0.080400
     15 CFA       -21.6260   11.1550   -7.9200 c3        1 DGA     -0.078400
     16 CGA       -22.7120   10.3340   -7.2610 c3        1 DGA     -0.085400
     17 CHA       -23.4050    9.4230   -8.2510 c3        1 DGA     -0.079400
     18 CIA       -24.4990    8.6260   -7.5870 c3        1 DGA     -0.094100
     19 OA1        -7.5690   13.1430   -3.8380 o         1 DGA     -0.537000
     20 CB1        -9.3940    8.4900   -4.7500 c         1 DGA      0.636100
     21 CB2       -10.8300    8.1420   -4.9930 c3        1 DGA     -0.127400
     22 CB3       -11.6510    8.3280   -3.7340 c3        1 DGA     -0.079400
     23 CB4       -13.0960    7.9500   -3.9750 c3        1 DGA     -0.078400
     24 CB5       -13.9150    8.0990   -2.7110 c3        1 DGA     -0.079400
     25 CB6       -15.3760    7.7900   -2.9630 c3        1 DGA     -0.079400
     26 CB7       -16.1790    7.8600   -1.6820 c3        1 DGA     -0.078400
     27 CB8       -17.6530    7.6000   -1.9110 c3        1 DGA     -0.078400
     28 CB9       -18.3820    8.8240   -2.4230 c3        1 DGA     -0.079400
     29 CAB       -19.8460    8.5260   -2.6670 c3        1 DGA     -0.079400
     30 CBB       -20.6020    9.7700   -3.0830 c3        1 DGA     -0.079400
     31 CCB       -22.0580    9.4600   -3.3550 c3        1 DGA     -0.079400
     32 CDB       -22.8360   10.7160   -3.6850 c3        1 DGA     -0.083400
     33 CEB       -24.2760   10.3950   -4.0260 c3        1 DGA     -0.083400
     34 CFB       -25.0700   11.6540   -4.3010 c3        1 DGA     -0.079400
     35 CGB       -26.4920   11.3270   -4.7040 c3        1 DGA     -0.079400
     36 CHB       -27.2930   12.5840   -4.9710 c3        1 DGA     -0.080400
     37 CIB       -28.7080   12.2630   -5.3750 c3        1 DGA     -0.092100
     38 OB1        -8.6980    8.2790   -3.7570 o         1 DGA     -0.538000
     39 OG1        -8.0190   11.8190   -5.5800 os        1 DGA     -0.440900
     40 CG1        -7.2930   10.7810   -4.9040 c3        1 DGA      0.114400
     41 CG2        -7.4440    9.5070   -5.7280 c3        1 DGA      0.108100
     42 OG2        -8.8240    9.1170   -5.8280 os        1 DGA     -0.446900
     43 CG3        -6.9810    9.7030   -7.1760 c3        1 DGA      0.135400
     44 OXT        -7.0450    8.4950   -7.9010 oh        1 DGA     -0.595800
     45 HA21       -9.1960   13.6090   -6.7000 hc        1 DGA      0.077700
     46 HA22       -8.3730   14.9470   -5.7830 hc        1 DGA      0.077700
     47 HA31      -10.8090   13.3190   -4.7550 hc        1 DGA      0.055700
     48 HA32      -10.0210   14.7150   -3.9180 hc        1 DGA      0.055700
     49 HA41      -11.3640   14.8030   -6.7140 hc        1 DGA      0.042200
     50 HA42      -10.5970   16.2040   -5.8700 hc        1 DGA      0.042200
     51 HA51      -12.9300   14.5250   -4.7140 hc        1 DGA      0.042200
     52 HA52      -12.2160   16.0200   -3.9950 hc        1 DGA      0.042200
     53 HA61      -12.8880   17.3220   -6.0490 hc        1 DGA      0.040200
     54 HA62      -13.5940   15.8220   -6.7640 hc        1 DGA      0.040200
     55 HA71      -14.4530   17.2150   -4.1380 hc        1 DGA      0.040700
     56 HA72      -15.1060   15.6300   -4.7030 hc        1 DGA      0.040700
     57 HA81      -16.4460   17.8230   -5.2310 hc        1 DGA      0.039700
     58 HA82      -15.1720   18.1590   -6.4670 hc        1 DGA      0.039700
     59 HA91      -15.6700   15.7650   -7.3980 hc        1 DGA      0.039700
     60 HA92      -16.8740   17.0780   -7.6900 hc        1 DGA      0.039700
     61 HAT1      -17.0450   14.9930   -5.4090 hc        1 DGA      0.039700
     62 HAT2      -18.2550   16.2830   -5.7700 hc        1 DGA      0.039700
     63 HAE1      -18.6220   15.3070   -8.0570 hc        1 DGA      0.039200
     64 HAE2      -17.3930   14.0300   -7.7160 hc        1 DGA      0.039200
     65 HAW1      -19.9990   14.5080   -6.1090 hc        1 DGA      0.039200
     66 HAW2      -18.7660   13.2380   -5.7540 hc        1 DGA      0.039200
     67 HAH1      -20.3490   13.5260   -8.4020 hc        1 DGA      0.039200
     68 HAH2      -19.1150   12.2570   -8.0480 hc        1 DGA      0.039200
     69 HAF1      -20.4920   11.4560   -6.0990 hc        1 DGA      0.039700
     70 HAF2      -21.7210   12.7320   -6.4390 hc        1 DGA      0.039700
     71 HAN1      -22.0680   11.7670   -8.7510 hc        1 DGA      0.039200
     72 HAN2      -20.8640   10.4740   -8.3810 hc        1 DGA      0.039200
     73 HAS1      -22.2700    9.7200   -6.4310 hc        1 DGA      0.042200
     74 HAS2      -23.4680   11.0190   -6.7890 hc        1 DGA      0.042200
     75 HAV1      -22.6540    8.7260   -8.7080 hc        1 DGA      0.038200
     76 HAV2      -23.8380   10.0360   -9.0850 hc        1 DGA      0.038200
     77 HAG1      -24.9970    7.9560   -8.3280 hc        1 DGA      0.032700
     78 HAG2      -25.2710    9.3050   -7.1480 hc        1 DGA      0.032700
     79 HAG3      -24.0830    7.9960   -6.7640 hc        1 DGA      0.032700
     80 HB21      -10.8650    7.0710   -5.3270 hc        1 DGA      0.079200
     81 HB22      -11.2360    8.7760   -5.8250 hc        1 DGA      0.079200
     82 HB31      -11.2190    7.6990   -2.9110 hc        1 DGA      0.058200
     83 HB32      -11.5900    9.3970   -3.3990 hc        1 DGA      0.058200
     84 HB41      -13.1550    6.8900   -4.3380 hc        1 DGA      0.041200
     85 HB42      -13.5270    8.6010   -4.7820 hc        1 DGA      0.041200
     86 HB51      -13.5140    7.4090   -1.9220 hc        1 DGA      0.042700
     87 HB52      -13.8150    9.1450   -2.3170 hc        1 DGA      0.042700
     88 HB61      -15.7900    8.5180   -3.7100 hc        1 DGA      0.040200
     89 HB62      -15.4720    6.7660   -3.4120 hc        1 DGA      0.040200
     90 HB71      -16.0410    8.8670   -1.2060 hc        1 DGA      0.040200
     91 HB72      -15.7800    7.0970   -0.9610 hc        1 DGA      0.040200
     92 HB81      -17.7800    6.7550   -2.6390 hc        1 DGA      0.039700
     93 HB82      -18.1210    7.2750   -0.9440 hc        1 DGA      0.039700
     94 HB91      -17.9070    9.1780   -3.3750 hc        1 DGA      0.039700
     95 HB92      -18.2870    9.6560   -1.6770 hc        1 DGA      0.039700
     96 HBT1      -19.9420    7.7430   -3.4650 hc        1 DGA      0.039700
     97 HBT2      -20.3050    8.1040   -1.7340 hc        1 DGA      0.039700
     98 HBE1      -20.5260   10.5430   -2.2730 hc        1 DGA      0.039200
     99 HBE2      -20.1330   10.2080   -4.0040 hc        1 DGA      0.039200
    100 HBW1      -22.5120    8.9620   -2.4580 hc        1 DGA      0.039200
    101 HBW2      -22.1340    8.7370   -4.2100 hc        1 DGA      0.039200
    102 HBH1      -22.8020   11.4220   -2.8140 hc        1 DGA      0.041200
    103 HBH2      -22.3540   11.2380   -4.5570 hc        1 DGA      0.041200
    104 HBF1      -24.3030    9.7290   -4.9320 hc        1 DGA      0.041200
    105 HBF2      -24.7480    9.8280   -3.1820 hc        1 DGA      0.041200
    106 HBN1      -25.0770   12.3030   -3.3870 hc        1 DGA      0.039200
    107 HBN2      -24.5730   12.2400   -5.1200 hc        1 DGA      0.039200
    108 HBS1      -26.4830   10.6850   -5.6250 hc        1 DGA      0.039200
    109 HBS2      -26.9870   10.7320   -3.8920 hc        1 DGA      0.039200
    110 HBV1      -26.7950   13.1790   -5.7820 hc        1 DGA      0.038700
    111 HBV2      -27.3000   13.2250   -4.0500 hc        1 DGA      0.038700
    112 HBG1      -29.2800   13.2030   -5.5660 hc        1 DGA      0.032700
    113 HBG2      -29.2290   11.6910   -4.5690 hc        1 DGA      0.032700
    114 HBG3      -28.7230   11.6460   -6.3060 hc        1 DGA      0.032700
    115 HG11       -6.2150   11.0800   -4.8360 h1        1 DGA      0.071200
    116 HG12       -7.7150   10.6390   -3.8740 h1        1 DGA      0.071200
    117 HG2        -6.8610    8.6850   -5.2260 h1        1 DGA      0.089700
    118 HG31       -5.8990    9.9970   -7.1840 h1        1 DGA      0.063700
    119 HG32       -7.6040   10.4960   -7.6680 h1        1 DGA      0.063700
    120 HXT        -7.9700    8.2190   -7.9100 ho        1 DGA      0.409000
@<TRIPOS>BOND
     1    1    2 1   
     2    1   19 2   
     3    1   39 1   
     4    2    3 1   
     5    2   45 1   
     6    2   46 1   
     7    3    4 1   
     8    3   47 1   
     9    3   48 1   
    10    4    5 1   
    11    4   49 1   
    12    4   50 1   
    13    5    6 1   
    14    5   51 1   
    15    5   52 1   
    16    6    7 1   
    17    6   53 1   
    18    6   54 1   
    19    7    8 1   
    20    7   55 1   
    21    7   56 1   
    22    8    9 1   
    23    8   57 1   
    24    8   58 1   
    25    9   10 1   
    26    9   59 1   
    27    9   60 1   
    28   10   11 1   
    29   10   61 1   
    30   10   62 1   
    31   11   12 1   
    32   11   63 1   
    33   11   64 1   
    34   12   13 1   
    35   12   65 1   
    36   12   66 1   
    37   13   14 1   
    38   13   67 1   
    39   13   68 1   
    40   14   15 1   
    41   14   69 1   
    42   14   70 1   
    43   15   16 1   
    44   15   71 1   
    45   15   72 1   
    46   16   17 1   
    47   16   73 1   
    48   16   74 1   
    49   17   18 1   
    50   17   75 1   
    51   17   76 1   
    52   18   77 1   
    53   18   78 1   
    54   18   79 1   
    55   20   21 1   
    56   20   38 2   
    57   20   42 1   
    58   21   22 1   
    59   21   80 1   
    60   21   81 1   
    61   22   23 1   
    62   22   82 1   
    63   22   83 1   
    64   23   24 1   
    65   23   84 1   
    66   23   85 1   
    67   24   25 1   
    68   24   86 1   
    69   24   87 1   
    70   25   26 1   
    71   25   88 1   
    72   25   89 1   
    73   26   27 1   
    74   26   90 1   
    75   26   91 1   
    76   27   28 1   
    77   27   92 1   
    78   27   93 1   
    79   28   29 1   
    80   28   94 1   
    81   28   95 1   
    82   29   30 1   
    83   29   96 1   
    84   29   97 1   
    85   30   31 1   
    86   30   98 1   
    87   30   99 1   
    88   31   32 1   
    89   31  100 1   
    90   31  101 1   
    91   32   33 1   
    92   32  102 1   
    93   32  103 1   
    94   33   34 1   
    95   33  104 1   
    96   33  105 1   
    97   34   35 1   
    98   34  106 1   
    99   34  107 1   
   100   35   36 1   
   101   35  108 1   
   102   35  109 1   
   103   36   37 1   
   104   36  110 1   
   105   36  111 1   
   106   37  112 1   
   107   37  113 1   
   108   37  114 1   
   109   39   40 1   
   110   40   41 1   
   111   40  115 1   
   112   40  116 1   
   113   41   42 1   
   114   41   43 1   
   115   41  117 1   
   116   43   44 1   
   117   43  118 1   
   118   43  119 1   
   119   44  120 1   
@<TRIPOS>SUBSTRUCTURE
     1 DGA         1 TEMP              0 ****  ****    0 ROOT
