@<TRIPOS>MOLECULE
DGA
  120   119     1     0     0
SMALL
bcc


@<TRIPOS>ATOM
      1 CA1        -0.2830   -0.7710   -0.4320 c         1 DGA      0.632100
      2 CA2         1.1430   -1.1600   -0.1950 c3        1 DGA     -0.126400
      3 CA3         1.6340   -0.5790    1.1170 c3        1 DGA     -0.077400
      4 CA4         3.0920   -0.9150    1.3420 c3        1 DGA     -0.078400
      5 CA5         3.5890   -0.3200    2.6430 c3        1 DGA     -0.079400
      6 CA6         5.0780   -0.5330    2.8120 c3        1 DGA     -0.079400
      7 CA7         5.5700    0.0670    4.1130 c3        1 DGA     -0.078400
      8 CA8         7.0760   -0.0160    4.2540 c3        1 DGA     -0.077400
      9 CA9         7.8150    1.0410    3.4610 c3        1 DGA     -0.078400
     10 CAA         7.7790    2.3980    4.1330 c3        1 DGA     -0.079400
     11 CBA         8.4900    3.4420    3.2970 c3        1 DGA     -0.079400
     12 CCA         8.4350    4.8030    3.9570 c3        1 DGA     -0.079400
     13 CDA         9.1330    5.8510    3.1160 c3        1 DGA     -0.078400
     14 CEA         9.0780    7.2120    3.7750 c3        1 DGA     -0.080400
     15 CFA         9.7870    8.2570    2.9410 c3        1 DGA     -0.078400
     16 CGA         9.7580    9.6070    3.6230 c3        1 DGA     -0.085400
     17 CHA        10.4750   10.6620    2.8080 c3        1 DGA     -0.079400
     18 CIA        10.4580   11.9970    3.5080 c3        1 DGA     -0.094100
     19 OA1        -1.2940   -1.1110    0.1840 o         1 DGA     -0.537000
     20 CB1        -1.3820    3.6440   -1.6020 c         1 DGA      0.636100
     21 CB2        -0.4190    4.7340   -1.2460 c3        1 DGA     -0.127400
     22 CB3        -0.5970    5.1640    0.1950 c3        1 DGA     -0.079400
     23 CB4         0.3600    6.2840    0.5430 c3        1 DGA     -0.078400
     24 CB5         0.1610    6.7430    1.9720 c3        1 DGA     -0.079400
     25 CB6         1.1630    7.8140    2.3480 c3        1 DGA     -0.079400
     26 CB7         0.9120    8.3290    3.7490 c3        1 DGA     -0.078400
     27 CB8         1.9280    9.3710    4.1700 c3        1 DGA     -0.078400
     28 CB9         3.2270    8.7530    4.6400 c3        1 DGA     -0.079400
     29 CAB         4.2310    9.8180    5.0290 c3        1 DGA     -0.079400
     30 CBB         5.4950    9.2070    5.5940 c3        1 DGA     -0.079400
     31 CCB         6.5060   10.2750    5.9520 c3        1 DGA     -0.079400
     32 CDB         7.7360    9.6740    6.5990 c3        1 DGA     -0.083400
     33 CEB         8.7750   10.7360    6.8900 c3        1 DGA     -0.083400
     34 CFB         9.9830   10.1470    7.5880 c3        1 DGA     -0.079400
     35 CGB        11.0470   11.1980    7.8200 c3        1 DGA     -0.079400
     36 CHB        12.2530   10.6150    8.5270 c3        1 DGA     -0.080400
     37 CIB        13.3160   11.6570    8.7580 c3        1 DGA     -0.092100
     38 OB1        -2.5560    3.4990   -1.2600 o         1 DGA     -0.538000
     39 OG1        -0.4270    0.0760   -1.4990 os        1 DGA     -0.440900
     40 CG1        -1.7520    0.5580   -1.7640 c3        1 DGA      0.114400
     41 CG2        -1.6450    1.6100   -2.8620 c3        1 DGA      0.108100
     42 OG2        -0.8260    2.7150   -2.4410 os        1 DGA     -0.446900
     43 CG3        -0.9560    1.0620   -4.1160 c3        1 DGA      0.135400
     44 OXT        -0.9420    2.0180   -5.1530 oh        1 DGA     -0.595800
     45 HA21        1.7810   -0.7960   -1.0430 hc        1 DGA      0.077700
     46 HA22        1.1950   -2.2800   -0.1680 hc        1 DGA      0.077700
     47 HA31        1.5020    0.5350    1.1060 hc        1 DGA      0.055700
     48 HA32        1.0120   -0.9820    1.9600 hc        1 DGA      0.055700
     49 HA41        3.7050   -0.5200    0.4890 hc        1 DGA      0.042200
     50 HA42        3.2280   -2.0280    1.3610 hc        1 DGA      0.042200
     51 HA51        3.3640    0.7800    2.6630 hc        1 DGA      0.042200
     52 HA52        3.0400   -0.7840    3.5030 hc        1 DGA      0.042200
     53 HA61        5.3070   -1.6310    2.7930 hc        1 DGA      0.040200
     54 HA62        5.6230   -0.0670    1.9490 hc        1 DGA      0.040200
     55 HA71        5.0910   -0.4780    4.9700 hc        1 DGA      0.040700
     56 HA72        5.2420    1.1380    4.1790 hc        1 DGA      0.040700
     57 HA81        7.4200   -1.0310    3.9190 hc        1 DGA      0.039700
     58 HA82        7.3460    0.0830    5.3390 hc        1 DGA      0.039700
     59 HA91        7.3750    1.1210    2.4320 hc        1 DGA      0.039700
     60 HA92        8.8850    0.7240    3.3380 hc        1 DGA      0.039700
     61 HAT1        8.2640    2.3310    5.1420 hc        1 DGA      0.039700
     62 HAT2        6.7150    2.7130    4.2980 hc        1 DGA      0.039700
     63 HAE1        9.5590    3.1390    3.1460 hc        1 DGA      0.039200
     64 HAE2        8.0160    3.4980    2.2820 hc        1 DGA      0.039200
     65 HAW1        8.9180    4.7500    4.9690 hc        1 DGA      0.039200
     66 HAW2        7.3650    5.1010    4.1170 hc        1 DGA      0.039200
     67 HAH1        8.6510    5.9030    2.1040 hc        1 DGA      0.039200
     68 HAH2       10.2030    5.5530    2.9570 hc        1 DGA      0.039200
     69 HAF1        8.0070    7.5150    3.9280 hc        1 DGA      0.039700
     70 HAF2        9.5510    7.1570    4.7920 hc        1 DGA      0.039700
     71 HAN1       10.8510    7.9440    2.7700 hc        1 DGA      0.039200
     72 HAN2        9.2990    8.3320    1.9340 hc        1 DGA      0.039200
     73 HAS1        8.6930    9.9220    3.7930 hc        1 DGA      0.042200
     74 HAS2       10.2370    9.5270    4.6370 hc        1 DGA      0.042200
     75 HAV1       11.5350   10.3420    2.6310 hc        1 DGA      0.038200
     76 HAV2        9.9850   10.7560    1.8030 hc        1 DGA      0.038200
     77 HAG1       10.9860   12.7660    2.8940 hc        1 DGA      0.032700
     78 HAG2        9.4090   12.3400    3.6780 hc        1 DGA      0.032700
     79 HAG3       10.9660   11.9280    4.5020 hc        1 DGA      0.032700
     80 HB21        0.6310    4.3810   -1.4250 hc        1 DGA      0.079200
     81 HB22       -0.6160    5.5970   -1.9380 hc        1 DGA      0.079200
     82 HB31       -1.6570    5.4970    0.3560 hc        1 DGA      0.058200
     83 HB32       -0.4190    4.2890    0.8740 hc        1 DGA      0.058200
     84 HB41        0.2010    7.1480   -0.1550 hc        1 DGA      0.041200
     85 HB42        1.4170    5.9340    0.4030 hc        1 DGA      0.041200
     86 HB51        0.2670    5.8690    2.6670 hc        1 DGA      0.042700
     87 HB52       -0.8810    7.1400    2.0960 hc        1 DGA      0.042700
     88 HB61        2.2030    7.3970    2.2780 hc        1 DGA      0.040200
     89 HB62        1.0980    8.6630    1.6180 hc        1 DGA      0.040200
     90 HB71        0.9270    7.4730    4.4730 hc        1 DGA      0.040200
     91 HB72       -0.1150    8.7810    3.7920 hc        1 DGA      0.040200
     92 HB81        1.4950    9.9870    5.0030 hc        1 DGA      0.039700
     93 HB82        2.1310   10.0680    3.3150 hc        1 DGA      0.039700
     94 HB91        3.6580    8.1090    3.8280 hc        1 DGA      0.039700
     95 HB92        3.0280    8.0850    5.5200 hc        1 DGA      0.039700
     96 HBT1        3.7740   10.5050    5.7900 hc        1 DGA      0.039700
     97 HBT2        4.4830   10.4420    4.1310 hc        1 DGA      0.039700
     98 HBE1        5.9430    8.5020    4.8450 hc        1 DGA      0.039200
     99 HBE2        5.2440    8.6040    6.5070 hc        1 DGA      0.039200
    100 HBW1        6.0390   11.0180    6.6510 hc        1 DGA      0.039200
    101 HBW2        6.8050   10.8330    5.0250 hc        1 DGA      0.039200
    102 HBH1        7.4470    9.1560    7.5500 hc        1 DGA      0.041200
    103 HBH2        8.1780    8.8980    5.9160 hc        1 DGA      0.041200
    104 HBF1        9.0980   11.2150    5.9250 hc        1 DGA      0.041200
    105 HBF2        8.3260   11.5410    7.5280 hc        1 DGA      0.041200
    106 HBN1        9.6710    9.7020    8.5690 hc        1 DGA      0.039200
    107 HBN2       10.4070    9.3150    6.9660 hc        1 DGA      0.039200
    108 HBS1       11.3640   11.6350    6.8360 hc        1 DGA      0.039200
    109 HBS2       10.6220   12.0360    8.4330 hc        1 DGA      0.039200
    110 HBV1       12.6750    9.7750    7.9140 hc        1 DGA      0.038700
    111 HBV2       11.9340   10.1770    9.5100 hc        1 DGA      0.038700
    112 HBG1       14.1940   11.2070    9.2800 hc        1 DGA      0.032700
    113 HBG2       12.9210   12.4910    9.3880 hc        1 DGA      0.032700
    114 HBG3       13.6650   12.0870    7.7880 hc        1 DGA      0.032700
    115 HG11       -2.1820    1.0050   -0.8290 h1        1 DGA      0.071200
    116 HG12       -2.3890   -0.3000   -2.1020 h1        1 DGA      0.071200
    117 HG2        -2.6790    1.9860   -3.1010 h1        1 DGA      0.089700
    118 HG31        0.0860    0.7330   -3.8620 h1        1 DGA      0.063700
    119 HG32       -1.5490    0.1980   -4.5180 h1        1 DGA      0.063700
    120 HXT        -0.4350    2.7750   -4.8320 ho        1 DGA      0.409000
@<TRIPOS>BOND
     1    1    2 1   
     2    1   19 2   
     3    1   39 1   
     4    2    3 1   
     5    2   45 1   
     6    2   46 1   
     7    3    4 1   
     8    3   47 1   
     9    3   48 1   
    10    4    5 1   
    11    4   49 1   
    12    4   50 1   
    13    5    6 1   
    14    5   51 1   
    15    5   52 1   
    16    6    7 1   
    17    6   53 1   
    18    6   54 1   
    19    7    8 1   
    20    7   55 1   
    21    7   56 1   
    22    8    9 1   
    23    8   57 1   
    24    8   58 1   
    25    9   10 1   
    26    9   59 1   
    27    9   60 1   
    28   10   11 1   
    29   10   61 1   
    30   10   62 1   
    31   11   12 1   
    32   11   63 1   
    33   11   64 1   
    34   12   13 1   
    35   12   65 1   
    36   12   66 1   
    37   13   14 1   
    38   13   67 1   
    39   13   68 1   
    40   14   15 1   
    41   14   69 1   
    42   14   70 1   
    43   15   16 1   
    44   15   71 1   
    45   15   72 1   
    46   16   17 1   
    47   16   73 1   
    48   16   74 1   
    49   17   18 1   
    50   17   75 1   
    51   17   76 1   
    52   18   77 1   
    53   18   78 1   
    54   18   79 1   
    55   20   21 1   
    56   20   38 2   
    57   20   42 1   
    58   21   22 1   
    59   21   80 1   
    60   21   81 1   
    61   22   23 1   
    62   22   82 1   
    63   22   83 1   
    64   23   24 1   
    65   23   84 1   
    66   23   85 1   
    67   24   25 1   
    68   24   86 1   
    69   24   87 1   
    70   25   26 1   
    71   25   88 1   
    72   25   89 1   
    73   26   27 1   
    74   26   90 1   
    75   26   91 1   
    76   27   28 1   
    77   27   92 1   
    78   27   93 1   
    79   28   29 1   
    80   28   94 1   
    81   28   95 1   
    82   29   30 1   
    83   29   96 1   
    84   29   97 1   
    85   30   31 1   
    86   30   98 1   
    87   30   99 1   
    88   31   32 1   
    89   31  100 1   
    90   31  101 1   
    91   32   33 1   
    92   32  102 1   
    93   32  103 1   
    94   33   34 1   
    95   33  104 1   
    96   33  105 1   
    97   34   35 1   
    98   34  106 1   
    99   34  107 1   
   100   35   36 1   
   101   35  108 1   
   102   35  109 1   
   103   36   37 1   
   104   36  110 1   
   105   36  111 1   
   106   37  112 1   
   107   37  113 1   
   108   37  114 1   
   109   39   40 1   
   110   40   41 1   
   111   40  115 1   
   112   40  116 1   
   113   41   42 1   
   114   41   43 1   
   115   41  117 1   
   116   43   44 1   
   117   43  118 1   
   118   43  119 1   
   119   44  120 1   
@<TRIPOS>SUBSTRUCTURE
     1 DGA         1 TEMP              0 ****  ****    0 ROOT
