@<TRIPOS>MOLECULE
DGA
  120   117     1     0     0
SMALL
bcc


@<TRIPOS>ATOM
      1 CA1         4.9490   -2.1720    4.1580 c1        1 DGA      0.309000
      2 CA2         4.6050   -3.6020    3.8030 c2        1 DGA     -0.156000
      3 CA3         3.1710   -3.8880    4.1950 c3        1 DGA     -0.158000
      4 CA4         2.7930   -5.2810    3.7460 c3        1 DGA     -0.158000
      5 CA5         1.3330   -5.3080    3.3650 c3        1 DGA     -0.156000
      6 CA6         0.9270   -6.7200    3.0300 c3        1 DGA     -0.157000
      7 CA7         1.0410   -6.9350    1.5440 c3        1 DGA     -0.158000
      8 CA8        -0.1440   -7.7300    1.0590 c3        1 DGA     -0.157500
      9 CA9         0.2190   -8.4450   -0.2160 c3        1 DGA     -0.157500
     10 CAA        -0.5410   -7.8330   -1.3710 c3        1 DGA     -0.157500
     11 CBA        -0.0830   -8.4640   -2.6650 c3        1 DGA     -0.157500
     12 CCA        -0.6250   -7.6720   -3.8300 c3        1 DGA     -0.157500
     13 CDA         0.2060   -7.9520   -5.0580 c3        1 DGA     -0.158000
     14 CEA        -0.1950   -7.0080   -6.1630 c3        1 DGA     -0.157000
     15 CFA         0.9420   -6.8700   -7.1440 c3        1 DGA     -0.158000
     16 CGA         0.5450   -5.9200   -8.2420 c3        1 DGA     -0.158000
     17 CHA         1.7400   -5.6390   -9.1200 c3        1 DGA     -0.159000
     18 CIA         1.3650   -4.6220  -10.1700 c3        1 DGA     -0.210000
     19 OA1         4.9740   -1.8250    5.3200 o         1 DGA     -0.348000
     20 CB1         5.6890    2.7240    1.7010 c1        1 DGA      0.307000
     21 CB2         4.3680    3.4540    1.6750 c2        1 DGA     -0.156000
     22 CB3         4.5710    4.8420    1.1140 c3        1 DGA     -0.158000
     23 CB4         3.4880    5.7620    1.6390 c3        1 DGA     -0.158000
     24 CB5         2.8130    6.4610    0.4770 c3        1 DGA     -0.156000
     25 CB6         1.8600    7.5160    1.0070 c3        1 DGA     -0.157000
     26 CB7         0.4380    7.1540    0.6160 c3        1 DGA     -0.158000
     27 CB8        -0.4660    8.3590    0.8180 c3        1 DGA     -0.157500
     28 CB9        -1.7330    7.9280    1.5440 c3        1 DGA     -0.157500
     29 CAB        -2.9500    8.4480    0.7930 c3        1 DGA     -0.157500
     30 CBB        -4.1920    8.2660    1.6510 c3        1 DGA     -0.157500
     31 CCB        -5.3700    7.9110    0.7660 c3        1 DGA     -0.157500
     32 CDB        -6.5710    7.5930    1.6280 c3        1 DGA     -0.158000
     33 CEB        -7.4780    6.6390    0.8930 c3        1 DGA     -0.157000
     34 CFB        -8.6070    6.2220    1.7970 c3        1 DGA     -0.158000
     35 CGB        -9.1390    4.8830    1.3520 c3        1 DGA     -0.158000
     36 CHB       -10.2960    4.4850    2.2320 c3        1 DGA     -0.159000
     37 CIB       -10.5220    2.9950    2.1220 c3        1 DGA     -0.210000
     38 OB1         6.4620    2.8360    0.7710 o         1 DGA     -0.358000
     39 OG1         5.2730   -1.2530    3.1420 os        1 DGA     -0.285000
     40 CG1         6.3330   -0.3830    3.4750 c3        1 DGA     -0.023000
     41 CG2         6.5220    0.6280    2.3670 c3        1 DGA     -0.018000
     42 OG2         5.9940    1.8650    2.7680 os        1 DGA     -0.275000
     43 CG3         7.9980    0.7830    2.0710 c3        1 DGA     -0.041000
     44 OXT         8.2780    0.2600    0.7940 oh        1 DGA     -0.320000
     45 HA21        5.2010   -4.2100    4.2830 ha        1 DGA      0.119250
     46 HA22        4.7120   -3.7330    2.8400 ha        1 DGA      0.119250
     47 HA31        3.0790   -3.8220    5.1670 hc        1 DGA      0.096500
     48 HA32        2.5790   -3.2360    3.7660 hc        1 DGA      0.096500
     49 HA41        2.9510   -5.9130    4.4760 hc        1 DGA      0.081500
     50 HA42        3.3370   -5.5330    2.9730 hc        1 DGA      0.081500
     51 HA51        0.7960   -4.9840    4.1130 hc        1 DGA      0.081250
     52 HA52        1.1880   -4.7330    2.5860 hc        1 DGA      0.081250
     53 HA61        1.5150   -7.3480    3.4960 hc        1 DGA      0.080000
     54 HA62        0.0050   -6.8690    3.3100 hc        1 DGA      0.080000
     55 HA71        1.0610   -6.0690    1.0900 hc        1 DGA      0.079250
     56 HA72        1.8660   -7.4260    1.3470 hc        1 DGA      0.079250
     57 HA81       -0.3980   -8.3860    1.7400 hc        1 DGA      0.078750
     58 HA82       -0.8950   -7.1260    0.8910 hc        1 DGA      0.078750
     59 HA91       -0.0140   -9.3900   -0.1370 hc        1 DGA      0.079000
     60 HA92        1.1800   -8.3590   -0.3760 hc        1 DGA      0.079000
     61 HAT1       -0.3700   -6.8700   -1.3990 hc        1 DGA      0.078750
     62 HAT2       -1.4990   -7.9920   -1.2510 hc        1 DGA      0.078750
     63 HAE1        0.8950   -8.4660   -2.6980 hc        1 DGA      0.079000
     64 HAE2       -0.4130   -9.3830   -2.7140 hc        1 DGA      0.079000
     65 HAW1       -1.5540   -7.9330   -3.9980 hc        1 DGA      0.079250
     66 HAW2       -0.5870   -6.7170   -3.6210 hc        1 DGA      0.079250
     67 HAH1        1.1540   -7.8230   -4.8470 hc        1 DGA      0.079000
     68 HAH2        0.0590   -8.8740   -5.3470 hc        1 DGA      0.079000
     69 HAF1       -0.9830   -7.3620   -6.6240 hc        1 DGA      0.079000
     70 HAF2       -0.4060   -6.1320   -5.7830 hc        1 DGA      0.079000
     71 HAN1        1.7320   -6.5230   -6.6810 hc        1 DGA      0.079000
     72 HAN2        1.1480   -7.7450   -7.5280 hc        1 DGA      0.079000
     73 HAS1        0.2260   -5.0840   -7.8500 hc        1 DGA      0.079000
     74 HAS2       -0.1680   -6.3210   -8.7790 hc        1 DGA      0.079000
     75 HAV1        2.0260   -6.4660   -9.5550 hc        1 DGA      0.078000
     76 HAV2        2.4710   -5.2890   -8.5730 hc        1 DGA      0.078000
     77 HAG1        2.1600   -4.3740  -10.6840 hc        1 DGA      0.072000
     78 HAG2        0.9960   -3.8260   -9.7360 hc        1 DGA      0.072000
     79 HAG3        0.6940   -5.0060  -10.7720 hc        1 DGA      0.072000
     80 HB21        4.0140    3.5180    2.5840 ha        1 DGA      0.119250
     81 HB22        3.7370    2.9640    1.1140 ha        1 DGA      0.119250
     82 HB31        4.5250    4.8090    0.1380 hc        1 DGA      0.096500
     83 HB32        5.4470    5.1810    1.3890 hc        1 DGA      0.096500
     84 HB41        3.8860    6.4280    2.2340 hc        1 DGA      0.081500
     85 HB42        2.8270    5.2380    2.1320 hc        1 DGA      0.081500
     86 HB51        3.4920    6.8880   -0.0860 hc        1 DGA      0.081250
     87 HB52        2.3150    5.8070   -0.0520 hc        1 DGA      0.081250
     88 HB61        1.9300    7.5590    1.9820 hc        1 DGA      0.080000
     89 HB62        2.0920    8.3860    0.6250 hc        1 DGA      0.080000
     90 HB71        0.1250    6.4150    1.1740 hc        1 DGA      0.079250
     91 HB72        0.4160    6.8850   -0.3240 hc        1 DGA      0.079250
     92 HB81        0.0030    9.0320    1.3520 hc        1 DGA      0.078750
     93 HB82       -0.7010    8.7400   -0.0520 hc        1 DGA      0.078750
     94 HB91       -1.7300    8.2930    2.4530 hc        1 DGA      0.079000
     95 HB92       -1.7690    6.9520    1.5850 hc        1 DGA      0.079000
     96 HBT1       -2.8280    9.3970    0.5930 hc        1 DGA      0.078750
     97 HBT2       -3.0550    7.9500   -0.0430 hc        1 DGA      0.078750
     98 HBE1       -4.3830    9.0980    2.1300 hc        1 DGA      0.079000
     99 HBE2       -4.0400    7.5460    2.2960 hc        1 DGA      0.079000
    100 HBW1       -5.1440    7.1300    0.2210 hc        1 DGA      0.079250
    101 HBW2       -5.5790    8.6670    0.1820 hc        1 DGA      0.079250
    102 HBH1       -6.2730    7.1810    2.4630 hc        1 DGA      0.079000
    103 HBH2       -7.0570    8.4190    1.8270 hc        1 DGA      0.079000
    104 HBF1       -6.9700    5.8490    0.6220 hc        1 DGA      0.079000
    105 HBF2       -7.8420    7.0810    0.1010 hc        1 DGA      0.079000
    106 HBN1       -8.2800    6.1540    2.7170 hc        1 DGA      0.079000
    107 HBN2       -9.3220    6.8880    1.7540 hc        1 DGA      0.079000
    108 HBS1       -8.4310    4.2120    1.4210 hc        1 DGA      0.079000
    109 HBS2       -9.4410    4.9450    0.4230 hc        1 DGA      0.079000
    110 HBV1      -11.1020    4.9590    1.9450 hc        1 DGA      0.078000
    111 HBV2      -10.0950    4.7160    3.1610 hc        1 DGA      0.078000
    112 HBG1       -9.6870    2.5230    2.3200 hc        1 DGA      0.072000
    113 HBG2      -10.8150    2.7750    1.2140 hc        1 DGA      0.072000
    114 HBG3      -11.2110    2.7220    2.7630 hc        1 DGA      0.072000
    115 HG11        7.1570   -0.9010    3.5880 h1        1 DGA      0.127000
    116 HG12        6.1240    0.0830    4.3090 h1        1 DGA      0.127000
    117 HG2         6.0590    0.3210    1.5620 h1        1 DGA      0.125000
    118 HG31        8.2380    1.7320    2.0950 h1        1 DGA      0.101000
    119 HG32        8.5190    0.2960    2.7450 h1        1 DGA      0.101000
    120 HXT         9.1270   -0.0050    0.7610 ho        1 DGA      0.205000
@<TRIPOS>BOND
     1    1   19 1   
     2    1   39 1   
     3    2    3 1   
     4    2   45 1   
     5    2   46 1   
     6    3    4 1   
     7    3   47 1   
     8    3   48 1   
     9    4    5 1   
    10    4   49 1   
    11    4   50 1   
    12    5    6 1   
    13    5   51 1   
    14    5   52 1   
    15    6    7 1   
    16    6   53 1   
    17    6   54 1   
    18    7    8 1   
    19    7   55 1   
    20    7   56 1   
    21    8    9 1   
    22    8   57 1   
    23    8   58 1   
    24    9   10 1   
    25    9   59 1   
    26    9   60 1   
    27   10   11 1   
    28   10   61 1   
    29   10   62 1   
    30   11   12 1   
    31   11   63 1   
    32   11   64 1   
    33   12   13 1   
    34   12   65 1   
    35   12   66 1   
    36   13   14 1   
    37   13   67 1   
    38   13   68 1   
    39   14   15 1   
    40   14   69 1   
    41   14   70 1   
    42   15   16 1   
    43   15   71 1   
    44   15   72 1   
    45   16   17 1   
    46   16   73 1   
    47   16   74 1   
    48   17   18 1   
    49   17   75 1   
    50   17   76 1   
    51   18   77 1   
    52   18   78 1   
    53   18   79 1   
    54   20   38 1   
    55   20   42 1   
    56   21   22 1   
    57   21   80 1   
    58   21   81 1   
    59   22   23 1   
    60   22   82 1   
    61   22   83 1   
    62   23   24 1   
    63   23   84 1   
    64   23   85 1   
    65   24   25 1   
    66   24   86 1   
    67   24   87 1   
    68   25   26 1   
    69   25   88 1   
    70   25   89 1   
    71   26   27 1   
    72   26   90 1   
    73   26   91 1   
    74   27   28 1   
    75   27   92 1   
    76   27   93 1   
    77   28   29 1   
    78   28   94 1   
    79   28   95 1   
    80   29   30 1   
    81   29   96 1   
    82   29   97 1   
    83   30   31 1   
    84   30   98 1   
    85   30   99 1   
    86   31   32 1   
    87   31  100 1   
    88   31  101 1   
    89   32   33 1   
    90   32  102 1   
    91   32  103 1   
    92   33   34 1   
    93   33  104 1   
    94   33  105 1   
    95   34   35 1   
    96   34  106 1   
    97   34  107 1   
    98   35   36 1   
    99   35  108 1   
   100   35  109 1   
   101   36   37 1   
   102   36  110 1   
   103   36  111 1   
   104   37  112 1   
   105   37  113 1   
   106   37  114 1   
   107   39   40 1   
   108   40   41 1   
   109   40  115 1   
   110   40  116 1   
   111   41   42 1   
   112   41   43 1   
   113   41  117 1   
   114   43   44 1   
   115   43  118 1   
   116   43  119 1   
   117   44  120 1   
@<TRIPOS>SUBSTRUCTURE
     1 DGA         1 TEMP              0 ****  ****    0 ROOT
