@<TRIPOS>MOLECULE
DGB
   60    62     1     0     0
SMALL
bcc


@<TRIPOS>ATOM
      1 CAK        -8.1060    0.5220    0.4970 ca        1 DGB     -0.095000
      2 CAF        -9.1010    1.4620    0.2310 ca        1 DGB     -0.137000
      3 CAE        -9.3050    1.9160   -1.0720 ca        1 DGB     -0.113000
      4 CAG        -8.5190    1.4250   -2.1140 ca        1 DGB     -0.137000
      5 CAL        -7.5280    0.4780   -1.8560 ca        1 DGB     -0.095000
      6 CBA        -7.3150    0.0340   -0.5470 ca        1 DGB     -0.132600
      7 CAY        -6.2860   -1.0210   -0.3070 c         1 DGB      0.662700
      8 OAB        -6.3360   -2.1010   -0.9290 o         1 DGB     -0.593100
      9 NBC        -5.3200   -0.8120    0.6810 n         1 DGB     -0.450800
     10 CAU        -4.9390    0.5170    1.1030 c3        1 DGB      0.078000
     11 CAS        -3.5760    0.9760    0.5800 c3        1 DGB     -0.100900
     12 CAT        -4.2910   -1.8140    0.8830 c3        1 DGB      0.078000
     13 CAR        -2.9120   -1.4140    0.3570 c3        1 DGB     -0.100900
     14 CBB        -2.4960   -0.0510    0.8880 c3        1 DGB     -0.064700
     15 CAQ        -1.1680    0.3970    0.2980 c3        1 DGB     -0.075400
     16 CAO         0.0040   -0.3620    0.8840 c3        1 DGB     -0.077400
     17 CAN         1.3130    0.1300    0.3030 c3        1 DGB     -0.105400
     18 CAP         2.4800   -0.6470    0.9170 c3        1 DGB      0.084000
     19 NAW         3.7720   -0.2890    0.4010 n         1 DGB     -0.567900
     20 CAX         4.6960    0.4290    1.1360 c         1 DGB      0.653100
     21 OAA         4.5090    0.6960    2.3400 o         1 DGB     -0.605100
     22 CAC         5.9730    0.8510    0.4310 c3        1 DGB     -0.153400
     23 CAD         6.8370   -0.3480    0.0880 c3        1 DGB     -0.027100
     24 CAZ         8.1560    0.0710   -0.4500 ca        1 DGB     -0.200600
     25 CAJ         9.1240    0.6570    0.3760 ca        1 DGB     -0.089000
     26 CAH        10.3530    1.0240   -0.1720 ca        1 DGB     -0.242300
     27 CAI        10.5740    0.7890   -1.5420 ca        1 DGB      0.393200
     28 NAV         9.6590    0.2260   -2.3540 nb        1 DGB     -0.662000
     29 CAM         8.4790   -0.1230   -1.8100 ca        1 DGB      0.396200
     30 HAK        -7.9480    0.1590    1.5240 ha        1 DGB      0.145000
     31 HAF        -9.7280    1.8420    1.0520 ha        1 DGB      0.136500
     32 HAE       -10.0900    2.6590   -1.2780 ha        1 DGB      0.135000
     33 HAG        -8.6840    1.7770   -3.1430 ha        1 DGB      0.136500
     34 HAL        -6.9200    0.0680   -2.6770 ha        1 DGB      0.145000
     35 HAU1       -4.9040    0.5070    2.2320 h1        1 DGB      0.060700
     36 HAU2       -5.7190    1.2650    0.7870 h1        1 DGB      0.060700
     37 HAS1       -3.3240    1.9530    1.0670 hc        1 DGB      0.050700
     38 HAS2       -3.6260    1.1490   -0.5260 hc        1 DGB      0.050700
     39 HAT1       -4.2180   -1.9870    1.9960 h1        1 DGB      0.060700
     40 HAT2       -4.6060   -2.7790    0.3950 h1        1 DGB      0.060700
     41 HAR1       -2.9210   -1.3980   -0.7640 hc        1 DGB      0.050700
     42 HAR2       -2.1740   -2.1930    0.6800 hc        1 DGB      0.050700
     43 HBB        -2.3870   -0.1250    2.0070 hc        1 DGB      0.050700
     44 HAQ1       -1.0300    1.4940    0.4960 hc        1 DGB      0.042700
     45 HAQ2       -1.1870    0.2610   -0.8160 hc        1 DGB      0.042700
     46 HAO1       -0.1110   -1.4580    0.6750 hc        1 DGB      0.044200
     47 HAO2        0.0170   -0.2350    1.9990 hc        1 DGB      0.044200
     48 HAN1        1.4300    1.2260    0.5120 hc        1 DGB      0.044700
     49 HAN2        1.3030    0.0000   -0.8100 hc        1 DGB      0.044700
     50 HAP1        2.3220   -1.7470    0.7200 h1        1 DGB      0.062700
     51 HAP2        2.4800   -0.4870    2.0340 h1        1 DGB      0.062700
     52 HAW         3.9020   -0.3650   -0.5790 hn        1 DGB      0.303500
     53 HAC1        5.7260    1.4320   -0.4950 hc        1 DGB      0.073200
     54 HAC2        6.5310    1.5360    1.1260 hc        1 DGB      0.073200
     55 HAD1        6.9940   -0.9670    1.0140 hc        1 DGB      0.059200
     56 HAD2        6.3070   -0.9970   -0.6600 hc        1 DGB      0.059200
     57 HAJ         8.9140    0.8220    1.4440 ha        1 DGB      0.143000
     58 HAH        11.1340    1.4840    0.4470 ha        1 DGB      0.145000
     59 HAI        11.5330    1.0650   -2.0160 h4        1 DGB      0.023100
     60 HAM         7.7520   -0.5860   -2.5010 h4        1 DGB      0.020100
@<TRIPOS>BOND
     1    1    2 ar  
     2    1    6 ar  
     3    1   30 1   
     4    2    3 ar  
     5    2   31 1   
     6    3    4 ar  
     7    3   32 1   
     8    4    5 ar  
     9    4   33 1   
    10    5    6 ar  
    11    5   34 1   
    12    6    7 1   
    13    7    8 2   
    14    7    9 1   
    15    9   10 1   
    16    9   12 1   
    17   10   11 1   
    18   10   35 1   
    19   10   36 1   
    20   11   14 1   
    21   11   37 1   
    22   11   38 1   
    23   12   13 1   
    24   12   39 1   
    25   12   40 1   
    26   13   14 1   
    27   13   41 1   
    28   13   42 1   
    29   14   15 1   
    30   14   43 1   
    31   15   16 1   
    32   15   44 1   
    33   15   45 1   
    34   16   17 1   
    35   16   46 1   
    36   16   47 1   
    37   17   18 1   
    38   17   48 1   
    39   17   49 1   
    40   18   19 1   
    41   18   50 1   
    42   18   51 1   
    43   19   20 1   
    44   19   52 1   
    45   20   21 2   
    46   20   22 1   
    47   22   23 1   
    48   22   53 1   
    49   22   54 1   
    50   23   24 1   
    51   23   55 1   
    52   23   56 1   
    53   24   25 ar  
    54   24   29 ar  
    55   25   26 ar  
    56   25   57 1   
    57   26   27 ar  
    58   26   58 1   
    59   27   28 ar  
    60   27   59 1   
    61   28   29 ar  
    62   29   60 1   
@<TRIPOS>SUBSTRUCTURE
     1 DGB         1 TEMP              0 ****  ****    0 ROOT
