@<TRIPOS>MOLECULE
DGB
   60    57     1     0     0
SMALL
bcc


@<TRIPOS>ATOM
      1 CAK         3.4850    6.5810   -0.4030 c1        1 DGB     -0.101000
      2 CAF         3.4820    7.7590   -1.1170 c1        1 DGB     -0.119250
      3 CAE         4.6700    8.4720   -1.2970 c1        1 DGB     -0.119250
      4 CAG         5.8520    7.9930   -0.7570 c1        1 DGB     -0.119250
      5 CAL         5.8550    6.7990   -0.0340 c1        1 DGB     -0.119250
      6 CBA         4.6780    6.0960    0.1420 c1        1 DGB     -0.112000
      7 CAY         4.6800    4.7710    0.9270 c2        1 DGB      0.336000
      8 OAB         5.7040    4.3540    1.3960 o         1 DGB     -0.353000
      9 NBC         3.4180    4.0770    1.1920 n         1 DGB     -0.310000
     10 CAU         3.3310    2.8720    2.0150 c3        1 DGB     -0.037500
     11 CAS         2.5890    1.7260    1.3000 c3        1 DGB     -0.179500
     12 CAT         2.1410    4.5200    0.6580 c3        1 DGB     -0.037500
     13 CAR         1.3940    3.3940   -0.0670 c3        1 DGB     -0.179500
     14 CBB         1.2850    2.1490    0.7730 c3        1 DGB     -0.104000
     15 CAQ         0.6890    0.9760   -0.1210 c3        1 DGB     -0.154000
     16 CAO         0.0930   -0.1450    0.8060 c3        1 DGB     -0.156000
     17 CAN        -1.0690   -0.8870    0.0510 c3        1 DGB     -0.184000
     18 CAP        -0.9320   -2.4220    0.2650 c3        1 DGB     -0.032000
     19 NAW        -2.0850   -3.0970   -0.3110 n         1 DGB     -0.380000
     20 CAX        -2.3370   -4.4370   -0.0020 c2        1 DGB      0.297000
     21 OAA        -1.5510   -5.0580    0.6510 o         1 DGB     -0.367000
     22 CAC        -3.6470   -5.1200   -0.5080 c3        1 DGB     -0.178000
     23 CAD        -3.7330   -6.5340    0.0370 c3        1 DGB     -0.113000
     24 CAZ        -5.0060   -7.1860   -0.4690 c2        1 DGB     -0.125000
     25 CAJ        -4.9850   -7.9200   -1.6100 c2        1 DGB     -0.090000
     26 CAH        -6.1280   -8.5570   -2.0380 c1        1 DGB     -0.179000
     27 CAI        -7.3090   -8.4480   -1.2950 c1        1 DGB     -0.075000
     28 NAV        -7.3280   -7.7220   -0.1670 n1        1 DGB     -0.136000
     29 CAM        -6.1780   -7.0800    0.2650 c1        1 DGB     -0.072000
     30 HAK         2.6570    6.0870   -0.2790 ha        1 DGB      0.143000
     31 HAF         2.6550    8.0930   -1.4940 ha        1 DGB      0.138750
     32 HAE         4.6670    9.3130   -1.8060 ha        1 DGB      0.138750
     33 HAG         6.6710    8.4830   -0.8810 ha        1 DGB      0.138750
     34 HAL         6.6840    6.4620    0.3450 ha        1 DGB      0.138750
     35 HAU1        2.8480    3.0910    2.8520 h1        1 DGB      0.099500
     36 HAU2        4.2370    2.5740    2.2390 h1        1 DGB      0.099500
     37 HAS1        3.1380    1.4080    0.5600 hc        1 DGB      0.090500
     38 HAS2        2.4520    0.9810    1.9420 hc        1 DGB      0.090500
     39 HAT1        2.2990    5.2540    0.0250 h1        1 DGB      0.099500
     40 HAT2        1.5870    4.8490    1.3920 h1        1 DGB      0.099500
     41 HAR1        0.4870    3.7060   -0.2920 hc        1 DGB      0.090500
     42 HAR2        1.8740    3.1770   -0.8990 hc        1 DGB      0.090500
     43 HBB         0.6840    2.3180    1.5140 hc        1 DGB      0.089000
     44 HAQ1       -0.0170    1.3320   -0.6980 hc        1 DGB      0.081500
     45 HAQ2        1.3960    0.5990   -0.6700 hc        1 DGB      0.081500
     46 HAO1        0.8010   -0.7920    1.0350 hc        1 DGB      0.084000
     47 HAO2       -0.2560    0.2580    1.6210 hc        1 DGB      0.084000
     48 HAN1       -1.0170   -0.6840   -0.9060 hc        1 DGB      0.083500
     49 HAN2       -1.9300   -0.5850    0.4020 hc        1 DGB      0.083500
     50 HAP1       -0.1060   -2.7440   -0.1770 h1        1 DGB      0.102500
     51 HAP2       -0.8860   -2.6170    1.2310 h1        1 DGB      0.102500
     52 HAW        -2.6060   -2.6690   -0.9010 hn        1 DGB      0.217000
     53 HAC1       -3.6420   -5.1490   -1.5070 hc        1 DGB      0.105000
     54 HAC2       -4.4370   -4.5970   -0.1960 hc        1 DGB      0.105000
     55 HAD1       -2.9610   -7.0470   -0.2620 hc        1 DGB      0.110000
     56 HAD2       -3.7470   -6.5080    1.0080 hc        1 DGB      0.110000
     57 HAJ        -4.1630   -7.9950   -2.1270 ha        1 DGB      0.140000
     58 HAH        -6.1140   -9.0770   -2.8480 ha        1 DGB      0.144000
     59 HAI        -8.1160   -8.8980   -1.5970 ha        1 DGB      0.159000
     60 HAM        -6.1940   -6.5450    1.0930 ha        1 DGB      0.158000
@<TRIPOS>BOND
     1    1    6 1   
     2    1   30 1   
     3    2    3 1   
     4    2   31 1   
     5    3   32 1   
     6    4    5 1   
     7    4   33 1   
     8    5   34 1   
     9    6    7 1   
    10    7    8 1   
    11    7    9 1   
    12    9   10 1   
    13    9   12 1   
    14   10   11 1   
    15   10   35 1   
    16   10   36 1   
    17   11   14 1   
    18   11   37 1   
    19   11   38 1   
    20   12   13 1   
    21   12   39 1   
    22   12   40 1   
    23   13   14 1   
    24   13   41 1   
    25   13   42 1   
    26   14   15 1   
    27   14   43 1   
    28   15   16 1   
    29   15   44 1   
    30   15   45 1   
    31   16   17 1   
    32   16   46 1   
    33   16   47 1   
    34   17   18 1   
    35   17   48 1   
    36   17   49 1   
    37   18   19 1   
    38   18   50 1   
    39   18   51 1   
    40   19   20 1   
    41   19   52 1   
    42   20   21 1   
    43   20   22 1   
    44   22   23 1   
    45   22   53 1   
    46   22   54 1   
    47   23   24 1   
    48   23   55 1   
    49   23   56 1   
    50   24   25 1   
    51   24   29 1   
    52   25   26 1   
    53   25   57 1   
    54   26   58 1   
    55   27   28 1   
    56   27   59 1   
    57   29   60 1   
@<TRIPOS>SUBSTRUCTURE
     1 DGB         1 TEMP              0 ****  ****    0 ROOT
