@<TRIPOS>MOLECULE
DGB
   61    63     1     0     0
SMALL
bcc


@<TRIPOS>ATOM
      1 CAK         0.0600    0.1380   -0.7330 ca        1 DGB     -0.093000
      2 CAF         1.4240    0.0470   -0.4560 ca        1 DGB     -0.136000
      3 CAE         1.8620   -0.1430    0.8550 ca        1 DGB     -0.105000
      4 CAG         0.9360   -0.2520    1.8920 ca        1 DGB     -0.136000
      5 CAL        -0.4290   -0.1710    1.6220 ca        1 DGB     -0.093000
      6 CBA        -0.8680    0.0350    0.3080 ca        1 DGB     -0.142600
      7 CAY        -2.3340    0.0600    0.0450 c         1 DGB      0.664700
      8 OAB        -3.0800   -0.8300    0.4970 o         1 DGB     -0.584100
      9 NBC        -2.8560    1.0610   -0.7900 n         1 DGB     -0.452800
     10 CAU        -2.2420    2.3670   -0.8660 c3        1 DGB      0.078000
     11 CAS        -2.9670    3.4490   -0.0600 c3        1 DGB     -0.103900
     12 CAT        -4.2800    1.0700   -1.0570 c3        1 DGB      0.078000
     13 CAR        -5.0640    2.1100   -0.2530 c3        1 DGB     -0.103900
     14 CBB        -4.4500    3.4930   -0.4050 c3        1 DGB     -0.063700
     15 CAQ        -5.1490    4.5150    0.4790 c3        1 DGB     -0.077400
     16 CAO        -6.5450    4.8340   -0.0180 c3        1 DGB     -0.078400
     17 CAN        -7.2020    5.8700    0.8750 c3        1 DGB     -0.109400
     18 CAP        -8.6160    6.1370    0.3750 c3        1 DGB      0.105800
     19 NAW        -9.3410    7.1430    1.2100 n4        1 DGB     -0.690800
     20 CAX       -10.7600    7.3630    0.7010 c         1 DGB      0.547100
     21 OAA       -11.6100    6.6870    1.2520 o         1 DGB     -0.393100
     22 CAC       -10.9030    8.3800   -0.3900 c3        1 DGB     -0.150400
     23 CAD       -12.3660    8.5330   -0.7890 c3        1 DGB     -0.019100
     24 CAZ       -12.5020    9.5760   -1.8350 ca        1 DGB     -0.243600
     25 CAJ       -12.8310    9.2480   -3.1570 ca        1 DGB     -0.076000
     26 CAH       -12.9710   10.2720   -4.0930 ca        1 DGB     -0.233300
     27 CAI       -12.7740   11.6020   -3.6730 ca        1 DGB      0.418200
     28 NAV       -12.4630   11.9380   -2.4050 nb        1 DGB     -0.646000
     29 CAM       -12.3380   10.9410   -1.5120 ca        1 DGB      0.401200
     30 HAK        -0.2840    0.2760   -1.7690 ha        1 DGB      0.145000
     31 HAF         2.1540    0.1190   -1.2760 ha        1 DGB      0.141500
     32 HAE         2.9390   -0.2140    1.0690 ha        1 DGB      0.141000
     33 HAG         1.2810   -0.4130    2.9250 ha        1 DGB      0.141500
     34 HAL        -1.1670   -0.2860    2.4310 ha        1 DGB      0.145000
     35 HAU1       -1.1720    2.3140   -0.5180 h1        1 DGB      0.065950
     36 HAU2       -2.2400    2.6720   -1.9530 h1        1 DGB      0.065950
     37 HAS1       -2.8420    3.2580    1.0370 hc        1 DGB      0.049700
     38 HAS2       -2.4920    4.4370   -0.2910 hc        1 DGB      0.049700
     39 HAT1       -4.4070    1.2900   -2.1560 h1        1 DGB      0.065950
     40 HAT2       -4.7070    0.0470   -0.8480 h1        1 DGB      0.065950
     41 HAR1       -6.1210    2.1130   -0.6250 hc        1 DGB      0.049700
     42 HAR2       -5.0820    1.8180    0.8290 hc        1 DGB      0.049700
     43 HBB        -4.5530    3.8120   -1.4800 hc        1 DGB      0.050700
     44 HAQ1       -5.2020    4.1250    1.5300 hc        1 DGB      0.049700
     45 HAQ2       -4.5400    5.4580    0.5010 hc        1 DGB      0.049700
     46 HAO1       -6.4920    5.2180   -1.0710 hc        1 DGB      0.057200
     47 HAO2       -7.1640    3.8980   -0.0300 hc        1 DGB      0.057200
     48 HAN1       -6.5950    6.8140    0.8630 hc        1 DGB      0.068700
     49 HAN2       -7.2250    5.4890    1.9310 hc        1 DGB      0.068700
     50 HAP1       -9.2190    5.1820    0.3940 hx        1 DGB      0.107700
     51 HAP2       -8.5840    6.5250   -0.6830 hx        1 DGB      0.107700
     52 HAW        -8.8280    8.0290    1.1990 hn        1 DGB      0.457800
     53 HAC1      -10.2960    8.0570   -1.2800 hc        1 DGB      0.104700
     54 HAC2      -10.5050    9.3710   -0.0370 hc        1 DGB      0.104700
     55 HAD1      -12.9730    8.8150    0.1140 hc        1 DGB      0.078700
     56 HAD2      -12.7590    7.5480   -1.1590 hc        1 DGB      0.078700
     57 HAJ       -12.9880    8.1990   -3.4510 ha        1 DGB      0.143000
     58 HAH       -13.2350   10.0530   -5.1370 ha        1 DGB      0.162000
     59 HAI       -12.8760   12.4440   -4.3820 h4        1 DGB      0.043100
     60 HAM       -12.1050   11.2530   -0.4780 h4        1 DGB      0.016100
     61 HAW2       -9.3770    6.8000    2.1800 hn        1 DGB      0.457800
@<TRIPOS>BOND
     1    1    2 ar  
     2    1    6 ar  
     3    1   30 1   
     4    2    3 ar  
     5    2   31 1   
     6    3    4 ar  
     7    3   32 1   
     8    4    5 ar  
     9    4   33 1   
    10    5    6 ar  
    11    5   34 1   
    12    6    7 1   
    13    7    8 2   
    14    7    9 1   
    15    9   10 1   
    16    9   12 1   
    17   10   11 1   
    18   10   35 1   
    19   10   36 1   
    20   11   14 1   
    21   11   37 1   
    22   11   38 1   
    23   12   13 1   
    24   12   39 1   
    25   12   40 1   
    26   13   14 1   
    27   13   41 1   
    28   13   42 1   
    29   14   15 1   
    30   14   43 1   
    31   15   16 1   
    32   15   44 1   
    33   15   45 1   
    34   16   17 1   
    35   16   46 1   
    36   16   47 1   
    37   17   18 1   
    38   17   48 1   
    39   17   49 1   
    40   18   19 1   
    41   18   50 1   
    42   18   51 1   
    43   19   20 1   
    44   19   52 1   
    45   19   61 1   
    46   20   21 2   
    47   20   22 1   
    48   22   23 1   
    49   22   53 1   
    50   22   54 1   
    51   23   24 1   
    52   23   55 1   
    53   23   56 1   
    54   24   25 ar  
    55   24   29 ar  
    56   25   26 ar  
    57   25   57 1   
    58   26   27 ar  
    59   26   58 1   
    60   27   28 ar  
    61   27   59 1   
    62   28   29 ar  
    63   29   60 1   
@<TRIPOS>SUBSTRUCTURE
     1 DGB         1 TEMP              0 ****  ****    0 ROOT
