@<TRIPOS>MOLECULE
DGB
   61    63     1     0     0
SMALL
bcc


@<TRIPOS>ATOM
      1 CAK         0.0710    0.1530   -0.7380 ca        1 DGB     -0.093000
      2 CAF         1.4330    0.0610   -0.4540 ca        1 DGB     -0.136000
      3 CAE         1.8640   -0.1410    0.8570 ca        1 DGB     -0.105000
      4 CAG         0.9320   -0.2620    1.8880 ca        1 DGB     -0.136000
      5 CAL        -0.4320   -0.1800    1.6110 ca        1 DGB     -0.093000
      6 CBA        -0.8630    0.0390    0.2970 ca        1 DGB     -0.142600
      7 CAY        -2.3270    0.0650    0.0260 c         1 DGB      0.664700
      8 OAB        -3.0750   -0.8300    0.4640 o         1 DGB     -0.584100
      9 NBC        -2.8460    1.0740   -0.8030 n         1 DGB     -0.452800
     10 CAU        -2.2330    2.3810   -0.8620 c3        1 DGB      0.078000
     11 CAS        -2.9650    3.4550   -0.0500 c3        1 DGB     -0.103900
     12 CAT        -4.2690    1.0830   -1.0780 c3        1 DGB      0.078000
     13 CAR        -5.0590    2.1140   -0.2700 c3        1 DGB     -0.103900
     14 CBB        -4.4460    3.5000   -0.4040 c3        1 DGB     -0.063700
     15 CAQ        -5.1520    4.5130    0.4850 c3        1 DGB     -0.077400
     16 CAO        -6.5440    4.8340   -0.0180 c3        1 DGB     -0.078400
     17 CAN        -7.2090    5.8610    0.8800 c3        1 DGB     -0.109400
     18 CAP        -8.6200    6.1300    0.3740 c3        1 DGB      0.105800
     19 NAW        -9.3530    7.1270    1.2140 ny        1 DGB     -0.690800
     20 CAX       -10.7700    7.3470    0.7000 c         1 DGB      0.547100
     21 OAA       -11.6210    6.6650    1.2430 o         1 DGB     -0.393100
     22 CAC       -10.9110    8.3700   -0.3850 c3        1 DGB     -0.150400
     23 CAD       -12.3720    8.5250   -0.7880 c3        1 DGB     -0.019100
     24 CAZ       -12.5060    9.5730   -1.8280 ca        1 DGB     -0.243600
     25 CAJ       -12.8310    9.2510   -3.1530 ca        1 DGB     -0.076000
     26 CAH       -12.9690   10.2800   -4.0850 ca        1 DGB     -0.233300
     27 CAI       -12.7740   11.6070   -3.6570 ca        1 DGB      0.418200
     28 NAV       -12.4660   11.9370   -2.3870 nb        1 DGB     -0.646000
     29 CAM       -12.3440   10.9360   -1.4980 ca        1 DGB      0.401200
     30 HAK        -0.2670    0.3010   -1.7740 ha        1 DGB      0.145000
     31 HAF         2.1680    0.1420   -1.2690 ha        1 DGB      0.141500
     32 HAE         2.9400   -0.2140    1.0780 ha        1 DGB      0.141000
     33 HAG         1.2710   -0.4330    2.9210 ha        1 DGB      0.141500
     34 HAL        -1.1740   -0.3040    2.4140 ha        1 DGB      0.145000
     35 HAU1       -1.1650    2.3260   -0.5080 h1        1 DGB      0.065950
     36 HAU2       -2.2240    2.6960   -1.9460 h1        1 DGB      0.065950
     37 HAS1       -2.4900    4.4450   -0.2680 hc        1 DGB      0.049700
     38 HAS2       -2.8470    3.2520    1.0460 hc        1 DGB      0.049700
     39 HAT1       -4.6950    0.0580   -0.8820 h1        1 DGB      0.065950
     40 HAT2       -4.3890    1.3140   -2.1760 h1        1 DGB      0.065950
     41 HAR1       -6.1130    2.1200   -0.6480 hc        1 DGB      0.049700
     42 HAR2       -5.0830    1.8120    0.8090 hc        1 DGB      0.049700
     43 HBB        -4.5420    3.8290   -1.4770 hc        1 DGB      0.050700
     44 HAQ1       -5.2110    4.1120    1.5320 hc        1 DGB      0.049700
     45 HAQ2       -4.5440    5.4560    0.5210 hc        1 DGB      0.049700
     46 HAO1       -6.4850    5.2290   -1.0670 hc        1 DGB      0.057200
     47 HAO2       -7.1620    3.8980   -0.0430 hc        1 DGB      0.057200
     48 HAN1       -7.2370    5.4700    1.9330 hc        1 DGB      0.068700
     49 HAN2       -6.6040    6.8060    0.8800 hc        1 DGB      0.068700
     50 HAP1       -8.5830    6.5280   -0.6800 hx        1 DGB      0.107700
     51 HAP2       -9.2210    5.1740    0.3810 hx        1 DGB      0.107700
     52 HAW        -9.3920    6.7750    2.1810 hn        1 DGB      0.457800
     53 HAC1      -10.3000    8.0540   -1.2750 hc        1 DGB      0.104700
     54 HAC2      -10.5140    9.3600   -0.0250 hc        1 DGB      0.104700
     55 HAD1      -12.9820    8.8020    0.1150 hc        1 DGB      0.078700
     56 HAD2      -12.7640    7.5410   -1.1640 hc        1 DGB      0.078700
     57 HAJ       -12.9860    8.2040   -3.4530 ha        1 DGB      0.143000
     58 HAH       -13.2300   10.0660   -5.1300 ha        1 DGB      0.162000
     59 HAI       -12.8740   12.4540   -4.3620 h4        1 DGB      0.043100
     60 HAM       -12.1140   11.2430   -0.4620 h4        1 DGB      0.016100
     61 HAW2       -8.8420    8.0140    1.2130 hn        1 DGB      0.457800
@<TRIPOS>BOND
     1    1    2 ar  
     2    1    6 ar  
     3    1   30 1   
     4    2    3 ar  
     5    2   31 1   
     6    3    4 ar  
     7    3   32 1   
     8    4    5 ar  
     9    4   33 1   
    10    5    6 ar  
    11    5   34 1   
    12    6    7 1   
    13    7    8 2   
    14    7    9 1   
    15    9   10 1   
    16    9   12 1   
    17   10   11 1   
    18   10   35 1   
    19   10   36 1   
    20   11   14 1   
    21   11   37 1   
    22   11   38 1   
    23   12   13 1   
    24   12   39 1   
    25   12   40 1   
    26   13   14 1   
    27   13   41 1   
    28   13   42 1   
    29   14   15 1   
    30   14   43 1   
    31   15   16 1   
    32   15   44 1   
    33   15   45 1   
    34   16   17 1   
    35   16   46 1   
    36   16   47 1   
    37   17   18 1   
    38   17   48 1   
    39   17   49 1   
    40   18   19 1   
    41   18   50 1   
    42   18   51 1   
    43   19   20 1   
    44   19   52 1   
    45   19   61 1   
    46   20   21 2   
    47   20   22 1   
    48   22   23 1   
    49   22   53 1   
    50   22   54 1   
    51   23   24 1   
    52   23   55 1   
    53   23   56 1   
    54   24   25 ar  
    55   24   29 ar  
    56   25   26 ar  
    57   25   57 1   
    58   26   27 ar  
    59   26   58 1   
    60   27   28 ar  
    61   27   59 1   
    62   28   29 ar  
    63   29   60 1   
@<TRIPOS>SUBSTRUCTURE
     1 DGB         1 TEMP              0 ****  ****    0 ROOT
