@<TRIPOS>MOLECULE
DGB
   61    63     1     0     0
SMALL
bcc


@<TRIPOS>ATOM
      1 CAK         0.0150    0.0800   -0.7530 ca        1 DGB     -0.093000
      2 CAF         1.3820   -0.0210   -0.4950 ca        1 DGB     -0.136000
      3 CAE         1.8370   -0.1980    0.8120 ca        1 DGB     -0.105000
      4 CAG         0.9240   -0.2830    1.8640 ca        1 DGB     -0.136000
      5 CAL        -0.4440   -0.1910    1.6120 ca        1 DGB     -0.093000
      6 CBA        -0.8990    0.0020    0.3030 ca        1 DGB     -0.142600
      7 CAY        -2.3680    0.0390    0.0600 c         1 DGB      0.664700
      8 OAB        -3.1160   -0.8370    0.5350 o         1 DGB     -0.584100
      9 NBC        -2.8930    1.0330   -0.7820 n         1 DGB     -0.452800
     10 CAU        -2.2660    2.3320   -0.8850 c3        1 DGB      0.078000
     11 CAS        -2.9690    3.4330   -0.0860 c3        1 DGB     -0.103900
     12 CAT        -4.3200    1.0530   -1.0280 c3        1 DGB      0.078000
     13 CAR        -5.0820    2.1120   -0.2300 c3        1 DGB     -0.103900
     14 CBB        -4.4550    3.4870   -0.4100 c3        1 DGB     -0.063700
     15 CAQ        -5.1320    4.5290    0.4680 c3        1 DGB     -0.077400
     16 CAO        -6.5310    4.8530   -0.0120 c3        1 DGB     -0.078400
     17 CAN        -7.1650    5.9110    0.8730 c3        1 DGB     -0.109400
     18 CAP        -8.5850    6.1800    0.3930 c3        1 DGB      0.105800
     19 NAW        -9.2870    7.2080    1.2210 n4        1 DGB     -0.690800
     20 CAX       -10.7140    7.4280    0.7350 c         1 DGB      0.547100
     21 OAA       -11.5580    6.7730    1.3210 o         1 DGB     -0.393100
     22 CAC       -10.8720    8.4170   -0.3790 c3        1 DGB     -0.150400
     23 CAD       -12.3420    8.5770   -0.7480 c3        1 DGB     -0.019100
     24 CAZ       -12.4920    9.5910   -1.8190 ca        1 DGB     -0.243600
     25 CAJ       -12.8560    9.2300   -3.1230 ca        1 DGB     -0.076000
     26 CAH       -13.0070   10.2280   -4.0850 ca        1 DGB     -0.233300
     27 CAI       -12.7840   11.5670   -3.7080 ca        1 DGB      0.418200
     28 NAV       -12.4380   11.9350   -2.4580 nb        1 DGB     -0.646000
     29 CAM       -12.3030   10.9620   -1.5400 ca        1 DGB      0.401200
     30 HAK        -0.3430    0.2070   -1.7860 ha        1 DGB      0.145000
     31 HAF         2.1010    0.0310   -1.3270 ha        1 DGB      0.141500
     32 HAE         2.9160   -0.2780    1.0120 ha        1 DGB      0.141000
     33 HAG         1.2830   -0.4330    2.8930 ha        1 DGB      0.141500
     34 HAL        -1.1710   -0.2870    2.4330 ha        1 DGB      0.145000
     35 HAU1       -2.2760    2.6200   -1.9770 h1        1 DGB      0.065950
     36 HAU2       -1.1920    2.2720   -0.5520 h1        1 DGB      0.065950
     37 HAS1       -2.8300    3.2560    1.0130 hc        1 DGB      0.049700
     38 HAS2       -2.4870    4.4120   -0.3380 hc        1 DGB      0.049700
     39 HAT1       -4.4600    1.2580   -2.1290 h1        1 DGB      0.065950
     40 HAT2       -4.7540    0.0380   -0.7990 h1        1 DGB      0.065950
     41 HAR1       -5.0880    1.8370    0.8570 hc        1 DGB      0.049700
     42 HAR2       -6.1430    2.1220   -0.5870 hc        1 DGB      0.049700
     43 HBB        -4.5710    3.7910   -1.4890 hc        1 DGB      0.050700
     44 HAQ1       -5.1720    4.1560    1.5260 hc        1 DGB      0.049700
     45 HAQ2       -4.5140    5.4660    0.4670 hc        1 DGB      0.049700
     46 HAO1       -7.1600    3.9240    0.0020 hc        1 DGB      0.057200
     47 HAO2       -6.4920    5.2190   -1.0720 hc        1 DGB      0.057200
     48 HAN1       -7.1720    5.5500    1.9360 hc        1 DGB      0.068700
     49 HAN2       -6.5510    6.8490    0.8320 hc        1 DGB      0.068700
     50 HAP1       -9.1950    5.2310    0.4410 hx        1 DGB      0.107700
     51 HAP2       -8.5690    6.5480   -0.6730 hx        1 DGB      0.107700
     52 HAW        -8.7680    8.0910    1.1810 hn        1 DGB      0.457800
     53 HAC1      -10.4540    9.4130   -0.0630 hc        1 DGB      0.104700
     54 HAC2      -10.2890    8.0640   -1.2750 hc        1 DGB      0.104700
     55 HAD1      -12.9240    8.8920    0.1610 hc        1 DGB      0.078700
     56 HAD2      -12.7550    7.5870   -1.0800 hc        1 DGB      0.078700
     57 HAJ       -13.0320    8.1750   -3.3840 ha        1 DGB      0.143000
     58 HAH       -13.2990    9.9830   -5.1160 ha        1 DGB      0.162000
     59 HAI       -12.8930   12.3900   -4.4390 h4        1 DGB      0.043100
     60 HAM       -12.0420   11.3010   -0.5210 h4        1 DGB      0.016100
     61 HAW2       -9.3060    6.8860    2.1980 hn        1 DGB      0.457800
@<TRIPOS>BOND
     1    1    2 ar  
     2    1    6 ar  
     3    1   30 1   
     4    2    3 ar  
     5    2   31 1   
     6    3    4 ar  
     7    3   32 1   
     8    4    5 ar  
     9    4   33 1   
    10    5    6 ar  
    11    5   34 1   
    12    6    7 1   
    13    7    8 2   
    14    7    9 1   
    15    9   10 1   
    16    9   12 1   
    17   10   11 1   
    18   10   35 1   
    19   10   36 1   
    20   11   14 1   
    21   11   37 1   
    22   11   38 1   
    23   12   13 1   
    24   12   39 1   
    25   12   40 1   
    26   13   14 1   
    27   13   41 1   
    28   13   42 1   
    29   14   15 1   
    30   14   43 1   
    31   15   16 1   
    32   15   44 1   
    33   15   45 1   
    34   16   17 1   
    35   16   46 1   
    36   16   47 1   
    37   17   18 1   
    38   17   48 1   
    39   17   49 1   
    40   18   19 1   
    41   18   50 1   
    42   18   51 1   
    43   19   20 1   
    44   19   52 1   
    45   19   61 1   
    46   20   21 2   
    47   20   22 1   
    48   22   23 1   
    49   22   53 1   
    50   22   54 1   
    51   23   24 1   
    52   23   55 1   
    53   23   56 1   
    54   24   25 ar  
    55   24   29 ar  
    56   25   26 ar  
    57   25   57 1   
    58   26   27 ar  
    59   26   58 1   
    60   27   28 ar  
    61   27   59 1   
    62   28   29 ar  
    63   29   60 1   
@<TRIPOS>SUBSTRUCTURE
     1 DGB         1 TEMP              0 ****  ****    0 ROOT
