@<TRIPOS>MOLECULE
DGC
   19    18     1     0     0
SMALL
bcc


@<TRIPOS>ATOM
      1 C1         -0.6380    0.3030   -1.2370 c3        1 DGC      0.167000
      2 C2          0.6250    0.2810   -1.2470 c3        1 DGC     -0.046000
      3 O2          1.0720   -0.9510   -2.0160 oh        1 DGC     -0.335000
      4 C3          1.3350    0.2460    0.2350 c3        1 DGC      0.042000
      5 O3          1.2630    1.5270    0.8570 oh        1 DGC     -0.349000
      6 C4          0.7660   -0.8190    1.0920 c2        1 DGC     -0.335000
      7 C5         -0.8970   -1.1670    0.8120 c1        1 DGC      0.028000
      8 O5         -1.3340   -0.9140   -0.4530 o         1 DGC     -0.243000
      9 C6         -1.8840   -1.1640    1.9750 c2        1 DGC      0.379000
     10 O6A        -2.4700   -2.2300    2.3060 o         1 DGC     -0.540000
     11 O6B        -2.1810   -0.0820    2.5430 o         1 DGC     -0.540000
     12 O1         -1.0740    1.5660   -0.6090 oh        1 DGC     -0.387000
     13 H1         -0.9550    0.2930   -2.1660 h2        1 DGC      0.128000
     14 H2          0.9440    1.0760   -1.7220 h1        1 DGC      0.094000
     15 HB          1.6650   -0.7150   -2.6340 ho        1 DGC      0.202000
     16 H3          2.3030    0.1320    0.1550 h1        1 DGC      0.117000
     17 HC          2.0550    1.7300    1.2110 ho        1 DGC      0.200000
     18 H4          1.1650   -1.0110    1.9610 ha        1 DGC      0.149000
     19 HA         -1.7600    1.9010   -1.0630 ho        1 DGC      0.268000
@<TRIPOS>BOND
     1    1    2 1   
     2    1    8 1   
     3    1   12 1   
     4    1   13 1   
     5    2    3 1   
     6    2    4 1   
     7    2   14 1   
     8    3   15 1   
     9    4    5 1   
    10    4    6 1   
    11    4   16 1   
    12    5   17 1   
    13    6    7 1   
    14    6   18 1   
    15    7    9 1   
    16    9   10 1   
    17    9   11 1   
    18   12   19 1   
@<TRIPOS>SUBSTRUCTURE
     1 DGC         1 TEMP              0 ****  ****    0 ROOT
