@<TRIPOS>MOLECULE
DGC
   19    19     1     0     0
SMALL
bcc


@<TRIPOS>ATOM
      1 C1         -1.0240    1.1270    0.5710 c3        1 DGC      0.299900
      2 C2         -1.7820   -0.0400   -0.0900 c3        1 DGC      0.063100
      3 O2         -3.1310   -0.0340    0.3500 oh        1 DGC     -0.593800
      4 C3         -1.1490   -1.3840    0.3170 c3        1 DGC      0.210300
      5 O3         -1.6330   -2.4250   -0.5190 oh        1 DGC     -0.602800
      6 C4          0.3330   -1.2700    0.2500 c2        1 DGC     -0.399200
      7 C5          0.9970   -0.1000    0.2430 ce        1 DGC      0.085900
      8 O5          0.3750    1.1260    0.3400 os        1 DGC     -0.343900
      9 C6          2.5270    0.0510    0.0890 c         1 DGC      0.935800
     10 O6A         2.9430    0.3530   -1.0570 o         1 DGC     -0.797300
     11 O6B         3.2210   -0.1670    1.1110 o         1 DGC     -0.797300
     12 O1         -1.4360    2.3530    0.0070 oh        1 DGC     -0.635800
     13 H1         -1.2380    1.1800    1.6740 h2        1 DGC      0.075700
     14 H2         -1.7520    0.0750   -1.2080 h1        1 DGC      0.044700
     15 HB         -3.4610    0.8590    0.1840 ho        1 DGC      0.400000
     16 H3         -1.5070   -1.6750    1.3460 h1        1 DGC      0.075700
     17 HC         -1.1790   -2.3400   -1.3670 ho        1 DGC      0.396000
     18 H4          0.8860   -2.2160    0.2010 ha        1 DGC      0.151000
     19 HA         -0.7930    2.6000   -0.6730 ho        1 DGC      0.431000
@<TRIPOS>BOND
     1    1    2 1   
     2    1    8 1   
     3    1   12 1   
     4    1   13 1   
     5    2    3 1   
     6    2    4 1   
     7    2   14 1   
     8    3   15 1   
     9    4    5 1   
    10    4    6 1   
    11    4   16 1   
    12    5   17 1   
    13    6    7 2   
    14    6   18 1   
    15    7    8 1   
    16    7    9 1   
    17    9   10 1   
    18    9   11 1   
    19   12   19 1   
@<TRIPOS>SUBSTRUCTURE
     1 DGC         1 TEMP              0 ****  ****    0 ROOT
