@<TRIPOS>MOLECULE
DGG
  124   124     1     0     0
SMALL
bcc


@<TRIPOS>ATOM
      1 C16         0.2900    2.0020   -0.2770 c3        1 DGG     -0.092100
      2 C15         1.7830    1.8000   -0.2410 c3        1 DGG     -0.080400
      3 C14         2.2960    1.6970    1.1800 c3        1 DGG     -0.079400
      4 C13         3.7950    1.4930    1.2110 c3        1 DGG     -0.079400
      5 C12         4.3060    1.3900    2.6320 c3        1 DGG     -0.078400
      6 C11         5.8060    1.1860    2.6630 c3        1 DGG     -0.079400
      7 C10         6.3170    1.0830    4.0840 c3        1 DGG     -0.078400
      8 C9          7.8170    0.8780    4.1150 c3        1 DGG     -0.079400
      9 C8          8.3280    0.7730    5.5360 c3        1 DGG     -0.078400
     10 C7          9.8270    0.5670    5.5670 c3        1 DGG     -0.079400
     11 C6         10.3380    0.4600    6.9880 c3        1 DGG     -0.078400
     12 C5         11.8370    0.2530    7.0190 c3        1 DGG     -0.079400
     13 C4         12.3470    0.1450    8.4400 c3        1 DGG     -0.078400
     14 C3         13.8450   -0.0690    8.4660 c3        1 DGG     -0.079400
     15 C2         14.3530   -0.1590    9.8890 c3        1 DGG     -0.130400
     16 C1         15.8090   -0.5140    9.9220 c         1 DGG      0.632100
     17 O1         16.4320   -1.2480    9.1500 o         1 DGG     -0.549000
     18 O17        16.4600    0.0720   10.9630 os        1 DGG     -0.447900
     19 C17        17.8520   -0.2500   11.1520 c3        1 DGG      0.146400
     20 C19        18.1630    0.0700   12.6120 c3        1 DGG      0.119100
     21 O19        18.0020   -1.1730   13.3190 os        1 DGG     -0.449900
     22 C21        17.9640   -1.1170   14.6890 c         1 DGG      0.673100
     23 O21        17.6110   -0.0620   15.2240 o         1 DGG     -0.576000
     24 C22        18.3790   -2.4060   15.3170 c3        1 DGG     -0.154400
     25 C23        17.8030   -2.5700   16.7050 c3        1 DGG     -0.070400
     26 C24        18.3830   -3.7920   17.3840 c3        1 DGG     -0.080400
     27 C25        17.8180   -3.9640   18.7770 c3        1 DGG     -0.077400
     28 C26        18.3970   -5.1860   19.4570 c3        1 DGG     -0.080400
     29 C27        17.8450   -5.3490   20.8570 c3        1 DGG     -0.076400
     30 C28        18.4190   -6.5800   21.5320 c3        1 DGG     -0.053400
     31 C29        17.8890   -6.7510   22.9180 cx        1 DGG     -0.110700
     32 C30        18.6970   -6.4390   24.1580 cx        1 DGG     -0.117700
     33 C39        18.4040   -7.8660   23.7860 cx        1 DGG     -0.137400
     34 C31        20.1030   -5.9350   24.1170 c3        1 DGG     -0.049400
     35 C32        20.1560   -4.4260   23.9910 c3        1 DGG     -0.078400
     36 C33        21.5850   -3.9270   23.9940 c3        1 DGG     -0.078400
     37 C34        21.6400   -2.4210   23.8550 c3        1 DGG     -0.079400
     38 C35        23.0680   -1.9180   23.8610 c3        1 DGG     -0.079400
     39 C36        23.1270   -0.4190   23.7170 c3        1 DGG     -0.093100
     40 C18        19.6040    0.5870   12.7750 c3        1 DGG      0.176400
     41 P          21.6630   -1.0180   12.8430 p5        1 DGG      1.440800
     42 OP1        21.0430   -1.3740   14.1380 o         1 DGG     -0.827500
     43 OP2        20.5090   -0.1490   12.0230 os        1 DGG     -0.579200
     44 OP3        22.9740   -0.3870   12.6440 o         1 DGG     -0.827500
     45 OP4        21.5900   -2.3660   11.8930 os        1 DGG     -0.570200
     46 C40        20.4230   -3.1240   11.9760 c3        1 DGG      0.153400
     47 C41        20.7900   -4.5570   12.3900 c3        1 DGG      0.083100
     48 O42        21.8130   -5.0950   11.5610 oh        1 DGG     -0.641800
     49 C43        19.5780   -5.4790   12.2510 c3        1 DGG      0.131400
     50 O44        19.8800   -6.8080   12.6320 oh        1 DGG     -0.619800
     51 H161        0.0060    2.9410    0.2570 hc        1 DGG      0.031367
     52 H162       -0.0670    2.0750   -1.3330 hc        1 DGG      0.031367
     53 H163       -0.2360    1.1480    0.2140 hc        1 DGG      0.031367
     54 H151        2.0500    0.8660   -0.8030 hc        1 DGG      0.038200
     55 H152        2.2920    2.6540   -0.7610 hc        1 DGG      0.038200
     56 H141        1.7890    0.8420    1.7000 hc        1 DGG      0.038700
     57 H142        2.0300    2.6300    1.7430 hc        1 DGG      0.038700
     58 H131        4.3020    2.3480    0.6900 hc        1 DGG      0.039200
     59 H132        4.0600    0.5600    0.6470 hc        1 DGG      0.039200
     60 H121        3.8000    0.5350    3.1530 hc        1 DGG      0.038700
     61 H122        4.0420    2.3240    3.1950 hc        1 DGG      0.038700
     62 H111        6.3130    2.0410    2.1430 hc        1 DGG      0.039700
     63 H112        6.0710    0.2530    2.0990 hc        1 DGG      0.039700
     64 H101        6.0530    2.0160    4.6480 hc        1 DGG      0.038700
     65 H102        5.8100    0.2280    4.6050 hc        1 DGG      0.038700
     66 HC91        8.3240    1.7330    3.5950 hc        1 DGG      0.039700
     67 HC92        8.0810   -0.0550    3.5510 hc        1 DGG      0.039700
     68 HC81        8.0650    1.7060    6.1010 hc        1 DGG      0.038700
     69 HC82        7.8200   -0.0820    6.0560 hc        1 DGG      0.038700
     70 HC71       10.0900   -0.3660    5.0020 hc        1 DGG      0.040200
     71 HC72       10.3350    1.4220    5.0480 hc        1 DGG      0.040200
     72 HC61       10.0760    1.3930    7.5530 hc        1 DGG      0.038700
     73 HC62        9.8290   -0.3940    7.5080 hc        1 DGG      0.038700
     74 HC51       12.3460    1.1070    6.5000 hc        1 DGG      0.041700
     75 HC52       12.1000   -0.6810    6.4540 hc        1 DGG      0.041700
     76 HC41       12.0900    1.0800    9.0040 hc        1 DGG      0.039200
     77 HC42       11.8350   -0.7070    8.9600 hc        1 DGG      0.039200
     78 HC31       14.3590    0.7760    7.9370 hc        1 DGG      0.056200
     79 HC32       14.1100   -1.0120    7.9160 hc        1 DGG      0.056200
     80 HC21       14.1910    0.8110   10.4280 hc        1 DGG      0.074200
     81 HC22       13.8020   -0.9590   10.4510 hc        1 DGG      0.074200
     82 H171       18.4550    0.4010   10.4690 h1        1 DGG      0.080700
     83 H172       18.0440   -1.3290   10.9200 h1        1 DGG      0.080700
     84 H191       17.4410    0.8270   13.0250 h1        1 DGG      0.073700
     85 H221       19.5140   -2.3700   15.3420 hc        1 DGG      0.112200
     86 H222       18.0850   -3.2630   14.6560 hc        1 DGG      0.112200
     87 H231       18.0290   -1.6510   17.3100 hc        1 DGG      0.044200
     88 H232       16.6870   -2.6610   16.6470 hc        1 DGG      0.044200
     89 H241       18.1610   -4.7050   16.7710 hc        1 DGG      0.046200
     90 H242       19.5000   -3.6940   17.4380 hc        1 DGG      0.046200
     91 H251       16.7010   -4.0570   18.7230 hc        1 DGG      0.036200
     92 H252       18.0440   -3.0500   19.3890 hc        1 DGG      0.036200
     93 H261       18.1620   -6.1000   18.8510 hc        1 DGG      0.041700
     94 H262       19.5140   -5.0970   19.5010 hc        1 DGG      0.041700
     95 H271       18.0870   -4.4390   21.4660 hc        1 DGG      0.038200
     96 H272       16.7270   -5.4300   20.8140 hc        1 DGG      0.038200
     97 H281       19.5390   -6.5100   21.5400 hc        1 DGG      0.044200
     98 H282       18.1510   -7.4910   20.9300 hc        1 DGG      0.044200
     99 H291       16.8030   -6.5240   22.9760 hc        1 DGG      0.072700
    100 H301       18.1310   -6.0040   25.0100 hc        1 DGG      0.070700
    101 H391       17.6890   -8.4450   24.3970 hc        1 DGG      0.066200
    102 H392       19.2290   -8.4950   23.4060 hc        1 DGG      0.066200
    103 H311       20.6210   -6.2500   25.0630 hc        1 DGG      0.041200
    104 H312       20.6680   -6.4030   23.2670 hc        1 DGG      0.041200
    105 H321       19.5910   -3.9570   24.8380 hc        1 DGG      0.043200
    106 H322       19.6490   -4.1150   23.0390 hc        1 DGG      0.043200
    107 H331       22.1510   -4.4020   23.1500 hc        1 DGG      0.037700
    108 H332       22.0900   -4.2360   24.9470 hc        1 DGG      0.037700
    109 H341       21.1380   -2.1130   22.9000 hc        1 DGG      0.041200
    110 H342       21.0710   -1.9440   24.6970 hc        1 DGG      0.041200
    111 H351       23.6350   -2.3990   23.0200 hc        1 DGG      0.037200
    112 H352       23.5690   -2.2260   24.8160 hc        1 DGG      0.037200
    113 H361       22.6570   -0.0970   22.7560 hc        1 DGG      0.033033
    114 H362       24.1880   -0.0700   23.7240 hc        1 DGG      0.033033
    115 H363       22.5850    0.0790   24.5560 hc        1 DGG      0.033033
    116 H181       19.6200    1.6510   12.4040 h1        1 DGG      0.042200
    117 H182       19.8680    0.5540   13.8700 h1        1 DGG      0.042200
    118 H401       19.7070   -2.6810   12.7260 h1        1 DGG      0.045200
    119 H402       19.9410   -3.1500   10.9570 h1        1 DGG      0.045200
    120 H411       21.1630   -4.5680   13.4520 h1        1 DGG      0.055700
    121 H421       22.3960   -4.3580   11.3280 ho        1 DGG      0.439000
    122 H431       18.7620   -5.1480   12.9460 h1        1 DGG      0.041700
    123 H432       19.2060   -5.4710   11.1920 h1        1 DGG      0.041700
    124 H441       20.7200   -7.0350   12.2110 ho        1 DGG      0.414000
@<TRIPOS>BOND
     1    1    2 1   
     2    1   51 1   
     3    1   52 1   
     4    1   53 1   
     5    2    3 1   
     6    2   54 1   
     7    2   55 1   
     8    3    4 1   
     9    3   56 1   
    10    3   57 1   
    11    4    5 1   
    12    4   58 1   
    13    4   59 1   
    14    5    6 1   
    15    5   60 1   
    16    5   61 1   
    17    6    7 1   
    18    6   62 1   
    19    6   63 1   
    20    7    8 1   
    21    7   64 1   
    22    7   65 1   
    23    8    9 1   
    24    8   66 1   
    25    8   67 1   
    26    9   10 1   
    27    9   68 1   
    28    9   69 1   
    29   10   11 1   
    30   10   70 1   
    31   10   71 1   
    32   11   12 1   
    33   11   72 1   
    34   11   73 1   
    35   12   13 1   
    36   12   74 1   
    37   12   75 1   
    38   13   14 1   
    39   13   76 1   
    40   13   77 1   
    41   14   15 1   
    42   14   78 1   
    43   14   79 1   
    44   15   16 1   
    45   15   80 1   
    46   15   81 1   
    47   16   17 2   
    48   16   18 1   
    49   18   19 1   
    50   19   20 1   
    51   19   82 1   
    52   19   83 1   
    53   20   21 1   
    54   20   40 1   
    55   20   84 1   
    56   21   22 1   
    57   22   23 2   
    58   22   24 1   
    59   24   25 1   
    60   24   85 1   
    61   24   86 1   
    62   25   26 1   
    63   25   87 1   
    64   25   88 1   
    65   26   27 1   
    66   26   89 1   
    67   26   90 1   
    68   27   28 1   
    69   27   91 1   
    70   27   92 1   
    71   28   29 1   
    72   28   93 1   
    73   28   94 1   
    74   29   30 1   
    75   29   95 1   
    76   29   96 1   
    77   30   31 1   
    78   30   97 1   
    79   30   98 1   
    80   31   32 1   
    81   31   33 1   
    82   31   99 1   
    83   32   33 1   
    84   32   34 1   
    85   32  100 1   
    86   33  101 1   
    87   33  102 1   
    88   34   35 1   
    89   34  103 1   
    90   34  104 1   
    91   35   36 1   
    92   35  105 1   
    93   35  106 1   
    94   36   37 1   
    95   36  107 1   
    96   36  108 1   
    97   37   38 1   
    98   37  109 1   
    99   37  110 1   
   100   38   39 1   
   101   38  111 1   
   102   38  112 1   
   103   39  113 1   
   104   39  114 1   
   105   39  115 1   
   106   40   43 1   
   107   40  116 1   
   108   40  117 1   
   109   41   42 1   
   110   41   43 1   
   111   41   44 1   
   112   41   45 1   
   113   45   46 1   
   114   46   47 1   
   115   46  118 1   
   116   46  119 1   
   117   47   48 1   
   118   47   49 1   
   119   47  120 1   
   120   48  121 1   
   121   49   50 1   
   122   49  122 1   
   123   49  123 1   
   124   50  124 1   
@<TRIPOS>SUBSTRUCTURE
     1 DGG         1 TEMP              0 ****  ****    0 ROOT
