@<TRIPOS>MOLECULE
DGG
  124   124     1     0     0
SMALL
bcc


@<TRIPOS>ATOM
      1 C16         0.2920    2.1410   -0.3050 c3        1 DGG     -0.092100
      2 C15         1.7840    1.9380   -0.2660 c3        1 DGG     -0.080400
      3 C14         2.2890    1.7920    1.1540 c3        1 DGG     -0.079400
      4 C13         3.7890    1.5890    1.1880 c3        1 DGG     -0.079400
      5 C12         4.2920    1.4430    2.6080 c3        1 DGG     -0.078400
      6 C11         5.7910    1.2390    2.6420 c3        1 DGG     -0.079400
      7 C10         6.2950    1.0930    4.0610 c3        1 DGG     -0.078400
      8 C9          7.7940    0.8900    4.0950 c3        1 DGG     -0.079400
      9 C8          8.2970    0.7430    5.5150 c3        1 DGG     -0.078400
     10 C7          9.7970    0.5400    5.5490 c3        1 DGG     -0.079400
     11 C6         10.3000    0.3940    6.9680 c3        1 DGG     -0.078400
     12 C5         11.8000    0.1900    7.0010 c3        1 DGG     -0.079400
     13 C4         12.3030    0.0440    8.4210 c3        1 DGG     -0.078400
     14 C3         13.8020   -0.1640    8.4500 c3        1 DGG     -0.079400
     15 C2         14.3030   -0.2900    9.8720 c3        1 DGG     -0.130400
     16 C1         15.7610   -0.6390    9.9020 c         1 DGG      0.632100
     17 O1         16.3870   -1.3640    9.1250 o         1 DGG     -0.549000
     18 O17        16.4100   -0.0590   10.9480 os        1 DGG     -0.447900
     19 C17        17.8050   -0.3730   11.1300 c3        1 DGG      0.146400
     20 C19        18.1240   -0.0350   12.5840 c3        1 DGG      0.119100
     21 O19        17.9770   -1.2710   13.3060 os        1 DGG     -0.449900
     22 C21        17.9490   -1.1980   14.6770 c         1 DGG      0.673100
     23 O21        17.5910   -0.1400   15.2010 o         1 DGG     -0.576000
     24 C22        18.3790   -2.4770   15.3170 c3        1 DGG     -0.154400
     25 C23        17.8150   -2.6280   16.7100 c3        1 DGG     -0.070400
     26 C24        18.4140   -3.8350   17.4010 c3        1 DGG     -0.080400
     27 C25        17.8600   -3.9950   18.8000 c3        1 DGG     -0.077400
     28 C26        18.4600   -5.1990   19.4930 c3        1 DGG     -0.080400
     29 C27        17.9190   -5.3520   20.8990 c3        1 DGG     -0.076400
     30 C28        18.5170   -6.5630   21.5870 c3        1 DGG     -0.053400
     31 C29        17.9960   -6.7250   22.9780 cx        1 DGG     -0.110700
     32 C30        18.7970   -6.3690   24.2110 cx        1 DGG     -0.117700
     33 C39        18.5440   -7.8100   23.8630 cx        1 DGG     -0.137400
     34 C31        20.1880   -5.8270   24.1580 c3        1 DGG     -0.049400
     35 C32        20.1980   -4.3180   24.0250 c3        1 DGG     -0.078400
     36 C33        21.6130   -3.7790   24.0170 c3        1 DGG     -0.078400
     37 C34        21.6240   -2.2720   23.8720 c3        1 DGG     -0.079400
     38 C35        23.0380   -1.7300   23.8650 c3        1 DGG     -0.079400
     39 C36        23.0540   -0.2310   23.7150 c3        1 DGG     -0.093100
     40 C18        19.5630    0.4940   12.7300 c3        1 DGG      0.176400
     41 P          21.6340   -1.0940   12.8020 p5        1 DGG      1.440800
     42 OP1        21.0270   -1.4380   14.1070 o         1 DGG     -0.827500
     43 OP2        20.4670   -0.2440   11.9810 os        1 DGG     -0.579200
     44 OP3        22.9380   -0.4560   12.5850 o         1 DGG     -0.827500
     45 OP4        21.5640   -2.4550   11.8700 os        1 DGG     -0.570200
     46 C40        20.4030   -3.2200   11.9720 c3        1 DGG      0.153400
     47 C41        20.7840   -4.6440   12.4010 c3        1 DGG      0.083100
     48 O42        21.8050   -5.1860   11.5720 oh        1 DGG     -0.641800
     49 C43        19.5780   -5.5770   12.2840 c3        1 DGG      0.131400
     50 O44        19.8920   -6.8990   12.6790 oh        1 DGG     -0.619800
     51 H161       -0.0590    2.2460   -1.3600 hc        1 DGG      0.031367
     52 H162        0.0050    3.0630    0.2560 hc        1 DGG      0.031367
     53 H163       -0.2360    1.2720    0.1580 hc        1 DGG      0.031367
     54 H151        2.0560    1.0220   -0.8550 hc        1 DGG      0.038700
     55 H152        2.2960    2.8080   -0.7560 hc        1 DGG      0.038700
     56 H141        1.7800    0.9220    1.6450 hc        1 DGG      0.038700
     57 H142        2.0200    2.7080    1.7440 hc        1 DGG      0.038700
     58 H131        4.0570    0.6730    0.5980 hc        1 DGG      0.039200
     59 H132        4.2980    2.4590    0.6960 hc        1 DGG      0.039200
     60 H121        3.7830    0.5720    3.0990 hc        1 DGG      0.038700
     61 H122        4.0230    2.3580    3.1980 hc        1 DGG      0.038700
     62 H111        6.3000    2.1100    2.1500 hc        1 DGG      0.039700
     63 H112        6.0600    0.3240    2.0510 hc        1 DGG      0.039700
     64 H101        6.0260    2.0090    4.6520 hc        1 DGG      0.038700
     65 H102        5.7860    0.2220    4.5530 hc        1 DGG      0.038700
     66 HC91        8.0630   -0.0260    3.5050 hc        1 DGG      0.039700
     67 HC92        8.3030    1.7610    3.6040 hc        1 DGG      0.039700
     68 HC81        7.7890   -0.1280    6.0060 hc        1 DGG      0.038700
     69 HC82        8.0290    1.6590    6.1060 hc        1 DGG      0.038700
     70 HC71       10.0660   -0.3750    4.9580 hc        1 DGG      0.040200
     71 HC72       10.3060    1.4110    5.0570 hc        1 DGG      0.040200
     72 HC61        9.7920   -0.4770    7.4600 hc        1 DGG      0.038700
     73 HC62       10.0320    1.3090    7.5590 hc        1 DGG      0.038700
     74 HC51       12.0690   -0.7250    6.4120 hc        1 DGG      0.041700
     75 HC52       12.3090    1.0610    6.5100 hc        1 DGG      0.041700
     76 HC41       12.0390    0.9610    9.0110 hc        1 DGG      0.039200
     77 HC42       11.7930   -0.8250    8.9140 hc        1 DGG      0.039200
     78 HC31       14.0740   -1.0900    7.8750 hc        1 DGG      0.056200
     79 HC32       14.3150    0.6980    7.9470 hc        1 DGG      0.056200
     80 HC21       13.7530   -1.1090   10.4090 hc        1 DGG      0.074200
     81 HC22       14.1330    0.6630   10.4370 hc        1 DGG      0.074200
     82 H171       18.4010    0.2710   10.4350 h1        1 DGG      0.080200
     83 H172       17.9970   -1.4550   10.9100 h1        1 DGG      0.080200
     84 H191       17.4000    0.7220   12.9950 h1        1 DGG      0.073700
     85 H221       19.5130   -2.4310   15.3320 hc        1 DGG      0.112200
     86 H222       18.0870   -3.3430   14.6680 hc        1 DGG      0.112200
     87 H231       16.6990   -2.7340   16.6620 hc        1 DGG      0.044200
     88 H232       18.0340   -1.7000   17.3020 hc        1 DGG      0.044200
     89 H241       18.1990   -4.7580   16.8020 hc        1 DGG      0.046200
     90 H242       19.5300   -3.7230   17.4470 hc        1 DGG      0.046200
     91 H251       16.7440   -4.1050   18.7540 hc        1 DGG      0.036200
     92 H252       18.0760   -3.0700   19.3980 hc        1 DGG      0.036200
     93 H261       19.5770   -5.0930   19.5290 hc        1 DGG      0.041700
     94 H262       18.2360   -6.1250   18.9000 hc        1 DGG      0.041700
     95 H271       18.1490   -4.4290   21.4940 hc        1 DGG      0.038200
     96 H272       16.8020   -5.4530   20.8620 hc        1 DGG      0.038200
     97 H281       18.2630   -7.4870   20.9990 hc        1 DGG      0.044200
     98 H282       19.6360   -6.4730   21.5900 hc        1 DGG      0.044200
     99 H291       16.9040   -6.5270   23.0350 hc        1 DGG      0.072700
    100 H301       18.2200   -5.9370   25.0560 hc        1 DGG      0.070700
    101 H391       19.3860   -8.4210   23.4910 hc        1 DGG      0.066200
    102 H392       17.8480   -8.4000   24.4850 hc        1 DGG      0.066200
    103 H311       20.7610   -6.2830   23.3080 hc        1 DGG      0.041200
    104 H312       20.7200   -6.1220   25.1030 hc        1 DGG      0.041200
    105 H321       19.6250   -3.8600   24.8730 hc        1 DGG      0.043200
    106 H322       19.6770   -4.0250   23.0750 hc        1 DGG      0.043200
    107 H331       22.1330   -4.0700   24.9670 hc        1 DGG      0.037700
    108 H332       22.1860   -4.2410   23.1710 hc        1 DGG      0.037700
    109 H341       21.1080   -1.9820   22.9190 hc        1 DGG      0.041200
    110 H342       21.0480   -1.8080   24.7150 hc        1 DGG      0.041200
    111 H351       23.6130   -2.1990   23.0230 hc        1 DGG      0.037200
    112 H352       23.5540   -2.0200   24.8180 hc        1 DGG      0.037200
    113 H361       22.5040    0.2560   24.5560 hc        1 DGG      0.033033
    114 H362       24.1050    0.1480   23.7140 hc        1 DGG      0.033033
    115 H363       22.5690    0.0740   22.7560 hc        1 DGG      0.033033
    116 H181       19.5690    1.5550   12.3460 h1        1 DGG      0.042700
    117 H182       19.8350    0.4760   13.8240 h1        1 DGG      0.042700
    118 H401       19.9140   -3.2630   10.9570 h1        1 DGG      0.045200
    119 H402       19.6900   -2.7730   12.7210 h1        1 DGG      0.045200
    120 H411       21.1650   -4.6390   13.4600 h1        1 DGG      0.055700
    121 H421       22.3810   -4.4480   11.3250 ho        1 DGG      0.439000
    122 H431       19.1980   -5.5860   11.2270 h1        1 DGG      0.041700
    123 H432       18.7650   -5.2430   12.9800 h1        1 DGG      0.041700
    124 H441       20.7300   -7.1250   12.2550 ho        1 DGG      0.414000
@<TRIPOS>BOND
     1    1    2 1   
     2    1   51 1   
     3    1   52 1   
     4    1   53 1   
     5    2    3 1   
     6    2   54 1   
     7    2   55 1   
     8    3    4 1   
     9    3   56 1   
    10    3   57 1   
    11    4    5 1   
    12    4   58 1   
    13    4   59 1   
    14    5    6 1   
    15    5   60 1   
    16    5   61 1   
    17    6    7 1   
    18    6   62 1   
    19    6   63 1   
    20    7    8 1   
    21    7   64 1   
    22    7   65 1   
    23    8    9 1   
    24    8   66 1   
    25    8   67 1   
    26    9   10 1   
    27    9   68 1   
    28    9   69 1   
    29   10   11 1   
    30   10   70 1   
    31   10   71 1   
    32   11   12 1   
    33   11   72 1   
    34   11   73 1   
    35   12   13 1   
    36   12   74 1   
    37   12   75 1   
    38   13   14 1   
    39   13   76 1   
    40   13   77 1   
    41   14   15 1   
    42   14   78 1   
    43   14   79 1   
    44   15   16 1   
    45   15   80 1   
    46   15   81 1   
    47   16   17 2   
    48   16   18 1   
    49   18   19 1   
    50   19   20 1   
    51   19   82 1   
    52   19   83 1   
    53   20   21 1   
    54   20   40 1   
    55   20   84 1   
    56   21   22 1   
    57   22   23 2   
    58   22   24 1   
    59   24   25 1   
    60   24   85 1   
    61   24   86 1   
    62   25   26 1   
    63   25   87 1   
    64   25   88 1   
    65   26   27 1   
    66   26   89 1   
    67   26   90 1   
    68   27   28 1   
    69   27   91 1   
    70   27   92 1   
    71   28   29 1   
    72   28   93 1   
    73   28   94 1   
    74   29   30 1   
    75   29   95 1   
    76   29   96 1   
    77   30   31 1   
    78   30   97 1   
    79   30   98 1   
    80   31   32 1   
    81   31   33 1   
    82   31   99 1   
    83   32   33 1   
    84   32   34 1   
    85   32  100 1   
    86   33  101 1   
    87   33  102 1   
    88   34   35 1   
    89   34  103 1   
    90   34  104 1   
    91   35   36 1   
    92   35  105 1   
    93   35  106 1   
    94   36   37 1   
    95   36  107 1   
    96   36  108 1   
    97   37   38 1   
    98   37  109 1   
    99   37  110 1   
   100   38   39 1   
   101   38  111 1   
   102   38  112 1   
   103   39  113 1   
   104   39  114 1   
   105   39  115 1   
   106   40   43 1   
   107   40  116 1   
   108   40  117 1   
   109   41   42 1   
   110   41   43 1   
   111   41   44 1   
   112   41   45 1   
   113   45   46 1   
   114   46   47 1   
   115   46  118 1   
   116   46  119 1   
   117   47   48 1   
   118   47   49 1   
   119   47  120 1   
   120   48  121 1   
   121   49   50 1   
   122   49  122 1   
   123   49  123 1   
   124   50  124 1   
@<TRIPOS>SUBSTRUCTURE
     1 DGG         1 TEMP              0 ****  ****    0 ROOT
