@<TRIPOS>MOLECULE
DGG
  124   123     1     0     0
SMALL
bcc


@<TRIPOS>ATOM
      1 C16       -19.4450    3.0810   -3.1300 c3        1 DGG     -0.092100
      2 C15       -18.2280    2.2560   -3.5590 c3        1 DGG     -0.080400
      3 C14       -16.9930    2.7200   -2.7730 c3        1 DGG     -0.079400
      4 C13       -15.7500    1.9700   -3.2830 c3        1 DGG     -0.079400
      5 C12       -14.5880    2.1680   -2.2920 c3        1 DGG     -0.078400
      6 C11       -13.3050    1.5410   -2.8710 c3        1 DGG     -0.079400
      7 C10       -12.2200    1.4830   -1.7770 c3        1 DGG     -0.078400
      8 C9        -10.8940    0.9900   -2.3910 c3        1 DGG     -0.079400
      9 C8         -9.8680    0.7400   -1.2670 c3        1 DGG     -0.078400
     10 C7         -8.5000    0.3900   -1.8880 c3        1 DGG     -0.079400
     11 C6         -7.4410    0.2840   -0.7710 c3        1 DGG     -0.078400
     12 C5         -6.1780   -0.4050   -1.3240 c3        1 DGG     -0.079400
     13 C4         -5.0010   -0.1720   -0.3570 c3        1 DGG     -0.077400
     14 C3         -4.0040   -1.3410   -0.4690 c3        1 DGG     -0.078400
     15 C2         -2.7360   -1.0130    0.3370 c3        1 DGG     -0.134400
     16 C1         -1.9730   -2.3090    0.6410 c         1 DGG      0.653100
     17 O1         -2.5310   -3.3870    0.5200 o         1 DGG     -0.563000
     18 O17        -0.5970   -2.2570    1.0100 os        1 DGG     -0.447900
     19 C17        -0.2370   -3.1860    2.0270 c3        1 DGG      0.111400
     20 C19         1.2730   -3.3450    2.0560 c3        1 DGG      0.095100
     21 O19         1.8730   -2.0900    2.2760 os        1 DGG     -0.430900
     22 C21         3.0760   -1.8840    1.5320 c         1 DGG      0.644100
     23 O21         3.3920   -2.6680    0.6560 o         1 DGG     -0.571000
     24 C22         3.9810   -0.6790    1.8490 c3        1 DGG     -0.131400
     25 C23         4.7210   -0.2400    0.5680 c3        1 DGG     -0.078400
     26 C24         5.6820    0.9240    0.9020 c3        1 DGG     -0.078400
     27 C25         6.3270    1.4510   -0.4010 c3        1 DGG     -0.079400
     28 C26         7.3560    2.5560   -0.0590 c3        1 DGG     -0.079400
     29 C27         7.9430    3.1360   -1.3650 c3        1 DGG     -0.077400
     30 C28         9.2950    3.8250   -1.0620 c3        1 DGG     -0.052400
     31 C29         9.9350    4.3010   -2.3800 cx        1 DGG     -0.116700
     32 C30        11.3600    4.8240   -2.2720 cx        1 DGG     -0.122700
     33 C39        10.2070    5.7940   -2.4810 cx        1 DGG     -0.129400
     34 C31        11.9730    4.8100   -0.8590 c3        1 DGG     -0.051400
     35 C32        13.4950    5.0450   -0.9570 c3        1 DGG     -0.076400
     36 C33        14.1230    4.9320    0.4440 c3        1 DGG     -0.079400
     37 C34        15.6550    4.8980    0.3180 c3        1 DGG     -0.078400
     38 C35        16.2770    4.6320    1.6950 c3        1 DGG     -0.080400
     39 C36        17.8020    4.6960    1.5880 c3        1 DGG     -0.092100
     40 C18         1.6610   -4.2970    3.1750 c3        1 DGG      0.186400
     41 P           1.5720   -6.8080    3.8150 p4        1 DGG      1.788100
     42 OP1         1.4160   -6.4740    5.2820 os        1 DGG     -1.139000
     43 OP2         1.0830   -5.5730    2.9330 os        1 DGG     -0.571200
     44 OP3         3.0270   -7.0970    3.5150 o         1 DGG     -0.862300
     45 OP4         0.6920   -8.0930    3.4660 os        1 DGG     -0.581200
     46 C40         1.0480   -9.3390    4.0540 c3        1 DGG      0.181400
     47 C41        -0.1310  -10.2930    3.9720 c3        1 DGG      0.078100
     48 O42        -0.7950  -10.3240    5.2060 oh        1 DGG     -0.618800
     49 C43         0.3690  -11.6890    3.6290 c3        1 DGG      0.091400
     50 O44        -0.7370  -12.5560    3.4490 oh        1 DGG     -0.636800
     51 H161      -19.5130    3.0800   -2.1500 hc        1 DGG      0.031367
     52 H162      -19.3440    4.0050   -3.4510 hc        1 DGG      0.031367
     53 H163      -20.2600    2.6880   -3.5150 hc        1 DGG      0.031367
     54 H151      -18.0710    2.3810   -4.5210 hc        1 DGG      0.038700
     55 H152      -18.3960    1.3060   -3.3750 hc        1 DGG      0.038700
     56 H141      -17.1220    2.5290   -1.8180 hc        1 DGG      0.038700
     57 H142      -16.8680    3.6870   -2.9000 hc        1 DGG      0.038700
     58 H131      -15.9540    1.0110   -3.3600 hc        1 DGG      0.039700
     59 H132      -15.4920    2.3230   -4.1650 hc        1 DGG      0.039700
     60 H121      -14.8080    1.7340   -1.4380 hc        1 DGG      0.038700
     61 H122      -14.4450    3.1300   -2.1430 hc        1 DGG      0.038700
     62 H111      -13.4990    0.6310   -3.1880 hc        1 DGG      0.039700
     63 H112      -12.9830    2.0880   -3.6230 hc        1 DGG      0.039700
     64 H101      -12.0910    2.3810   -1.3960 hc        1 DGG      0.038700
     65 H102      -12.5030    0.8640   -1.0670 hc        1 DGG      0.038700
     66 HC91      -10.5450    1.6710   -3.0080 hc        1 DGG      0.040200
     67 HC92      -11.0520    0.1530   -2.8830 hc        1 DGG      0.040200
     68 HC81       -9.7800    1.5500   -0.7170 hc        1 DGG      0.038200
     69 HC82      -10.1730   -0.0060   -0.7050 hc        1 DGG      0.038200
     70 HC71       -8.2390    1.0940   -2.5220 hc        1 DGG      0.040700
     71 HC72       -8.5650   -0.4700   -2.3600 hc        1 DGG      0.040700
     72 HC61       -7.2090    1.1850   -0.4530 hc        1 DGG      0.037700
     73 HC62       -7.8030   -0.2440   -0.0250 hc        1 DGG      0.037700
     74 HC51       -6.3430   -1.3700   -1.4110 hc        1 DGG      0.042700
     75 HC52       -5.9580   -0.0290   -2.2050 hc        1 DGG      0.042700
     76 HC41       -5.3390   -0.1170    0.5640 hc        1 DGG      0.037700
     77 HC42       -4.5470    0.6690   -0.5900 hc        1 DGG      0.037700
     78 HC31       -3.7660   -1.4790   -1.4140 hc        1 DGG      0.056700
     79 HC32       -4.4170   -2.1580   -0.1120 hc        1 DGG      0.056700
     80 HC21       -2.9870   -0.5760    1.1800 hc        1 DGG      0.080200
     81 HC22       -2.1620   -0.4100   -0.1860 hc        1 DGG      0.080200
     82 H171       -0.6540   -4.0550    1.8400 h1        1 DGG      0.097700
     83 H172       -0.5480   -2.8540    2.8990 h1        1 DGG      0.097700
     84 H191        1.5800   -3.7080    1.1970 h1        1 DGG      0.089700
     85 H221        3.4300    0.0650    2.1810 hc        1 DGG      0.073200
     86 H222        4.6360   -0.9330    2.5360 hc        1 DGG      0.073200
     87 H231        4.0680    0.0570   -0.1020 hc        1 DGG      0.056200
     88 H232        5.2360   -0.9970    0.2110 hc        1 DGG      0.056200
     89 H241        6.3860    0.6040    1.5090 hc        1 DGG      0.038700
     90 H242        5.1810    1.6490    1.3350 hc        1 DGG      0.038700
     91 H251        6.7810    0.7120   -0.8640 hc        1 DGG      0.042200
     92 H252        5.6280    1.8240   -0.9850 hc        1 DGG      0.042200
     93 H261        8.0800    2.1720    0.4830 hc        1 DGG      0.038700
     94 H262        6.9120    3.2720    0.4480 hc        1 DGG      0.038700
     95 H271        8.0830    2.4100   -2.0120 hc        1 DGG      0.041700
     96 H272        7.3160    3.7950   -1.7410 hc        1 DGG      0.041700
     97 H281        9.8950    3.1870   -0.6190 hc        1 DGG      0.042200
     98 H282        9.1450    4.5980   -0.4730 hc        1 DGG      0.042200
     99 H291        9.7090    3.8510   -3.2240 hc        1 DGG      0.077700
    100 H301       11.9330    4.6670   -3.0560 hc        1 DGG      0.074700
    101 H391       10.1340    6.1820   -3.3820 hc        1 DGG      0.068200
    102 H392        9.9530    6.3270   -1.6980 hc        1 DGG      0.068200
    103 H311       11.5660    5.5220   -0.3180 hc        1 DGG      0.043200
    104 H312       11.8030    3.9400   -0.4370 hc        1 DGG      0.043200
    105 H321       13.6650    5.9430   -1.3210 hc        1 DGG      0.039700
    106 H322       13.8930    4.3710   -1.5500 hc        1 DGG      0.039700
    107 H331       13.8560    5.7080    0.9870 hc        1 DGG      0.039700
    108 H332       13.8120    4.1070    0.8770 hc        1 DGG      0.039700
    109 H341       15.9750    5.7620   -0.0250 hc        1 DGG      0.038700
    110 H342       15.9170    4.1820   -0.3030 hc        1 DGG      0.038700
    111 H351       16.0070    3.7420    2.0100 hc        1 DGG      0.038700
    112 H352       15.9650    5.3130    2.3320 hc        1 DGG      0.038700
    113 H361       18.0810    4.3720    0.7040 hc        1 DGG      0.031367
    114 H362       18.1000    5.6250    1.7060 hc        1 DGG      0.031367
    115 H363       18.2040    4.1310    2.2860 hc        1 DGG      0.031367
    116 H181        1.3330   -3.9450    4.0330 h1        1 DGG      0.050200
    117 H182        2.6400   -4.3810    3.2080 h1        1 DGG      0.050200
    118 H401        1.2900   -9.1980    4.9950 h1        1 DGG      0.050200
    119 H402        1.8130   -9.7220    3.5730 h1        1 DGG      0.050200
    120 H411       -0.7520   -9.9870    3.2740 h1        1 DGG      0.056700
    121 H421       -1.6640  -10.4750    5.0730 ho        1 DGG      0.400000
    122 H431        0.9320  -12.0240    4.3620 h1        1 DGG      0.065700
    123 H432        0.8960  -11.6540    2.8000 h1        1 DGG      0.065700
    124 H441       -0.4440  -13.3810    3.2800 ho        1 DGG      0.416000
@<TRIPOS>BOND
     1    1    2 1   
     2    1   51 1   
     3    1   52 1   
     4    1   53 1   
     5    2    3 1   
     6    2   54 1   
     7    2   55 1   
     8    3    4 1   
     9    3   56 1   
    10    3   57 1   
    11    4    5 1   
    12    4   58 1   
    13    4   59 1   
    14    5    6 1   
    15    5   60 1   
    16    5   61 1   
    17    6    7 1   
    18    6   62 1   
    19    6   63 1   
    20    7    8 1   
    21    7   64 1   
    22    7   65 1   
    23    8    9 1   
    24    8   66 1   
    25    8   67 1   
    26    9   10 1   
    27    9   68 1   
    28    9   69 1   
    29   10   11 1   
    30   10   70 1   
    31   10   71 1   
    32   11   12 1   
    33   11   72 1   
    34   11   73 1   
    35   12   13 1   
    36   12   74 1   
    37   12   75 1   
    38   13   14 1   
    39   13   76 1   
    40   13   77 1   
    41   14   15 1   
    42   14   78 1   
    43   14   79 1   
    44   15   16 1   
    45   15   80 1   
    46   15   81 1   
    47   16   17 2   
    48   16   18 1   
    49   18   19 1   
    50   19   20 1   
    51   19   82 1   
    52   19   83 1   
    53   20   21 1   
    54   20   40 1   
    55   20   84 1   
    56   21   22 1   
    57   22   23 2   
    58   22   24 1   
    59   24   25 1   
    60   24   85 1   
    61   24   86 1   
    62   25   26 1   
    63   25   87 1   
    64   25   88 1   
    65   26   27 1   
    66   26   89 1   
    67   26   90 1   
    68   27   28 1   
    69   27   91 1   
    70   27   92 1   
    71   28   29 1   
    72   28   93 1   
    73   28   94 1   
    74   29   30 1   
    75   29   95 1   
    76   29   96 1   
    77   30   31 1   
    78   30   97 1   
    79   30   98 1   
    80   31   32 1   
    81   31   33 1   
    82   31   99 1   
    83   32   33 1   
    84   32   34 1   
    85   32  100 1   
    86   33  101 1   
    87   33  102 1   
    88   34   35 1   
    89   34  103 1   
    90   34  104 1   
    91   35   36 1   
    92   35  105 1   
    93   35  106 1   
    94   36   37 1   
    95   36  107 1   
    96   36  108 1   
    97   37   38 1   
    98   37  109 1   
    99   37  110 1   
   100   38   39 1   
   101   38  111 1   
   102   38  112 1   
   103   39  113 1   
   104   39  114 1   
   105   39  115 1   
   106   40   43 1   
   107   40  116 1   
   108   40  117 1   
   109   41   43 1   
   110   41   44 2   
   111   41   45 1   
   112   45   46 1   
   113   46   47 1   
   114   46  118 1   
   115   46  119 1   
   116   47   48 1   
   117   47   49 1   
   118   47  120 1   
   119   48  121 1   
   120   49   50 1   
   121   49  122 1   
   122   49  123 1   
   123   50  124 1   
@<TRIPOS>SUBSTRUCTURE
     1 DGG         1 TEMP              0 ****  ****    0 ROOT
