@<TRIPOS>MOLECULE
DGG
  124   124     1     0     0
SMALL
bcc


@<TRIPOS>ATOM
      1 C16        27.0660   -7.8940  -15.2720 c3        1 DGG     -0.092100
      2 C15        26.3650   -7.7180  -13.9500 c3        1 DGG     -0.080400
      3 C14        24.9270   -7.2830  -14.1370 c3        1 DGG     -0.079400
      4 C13        24.2260   -7.1080  -12.8070 c3        1 DGG     -0.079400
      5 C12        22.7890   -6.6720  -12.9950 c3        1 DGG     -0.078400
      6 C11        22.0880   -6.4970  -11.6650 c3        1 DGG     -0.079400
      7 C10        20.6510   -6.0620  -11.8530 c3        1 DGG     -0.078400
      8 C9         19.9510   -5.8870  -10.5230 c3        1 DGG     -0.079400
      9 C8         18.5140   -5.4520  -10.7110 c3        1 DGG     -0.078400
     10 C7         17.8130   -5.2770   -9.3810 c3        1 DGG     -0.079400
     11 C6         16.3760   -4.8420   -9.5690 c3        1 DGG     -0.078400
     12 C5         15.6760   -4.6670   -8.2380 c3        1 DGG     -0.079400
     13 C4         14.2390   -4.2310   -8.4260 c3        1 DGG     -0.078400
     14 C3         13.5420   -4.0630   -7.0930 c3        1 DGG     -0.079400
     15 C2         12.1110   -3.6080   -7.2860 c3        1 DGG     -0.130400
     16 C1         11.3730   -3.5790   -5.9810 c         1 DGG      0.632100
     17 O1         11.4890   -4.3470   -5.0230 o         1 DGG     -0.549000
     18 O17        10.4740   -2.5600   -5.9190 os        1 DGG     -0.447900
     19 C17         9.6480   -2.4650   -4.7410 c3        1 DGG      0.146400
     20 C19         8.4460   -1.6130   -5.1400 c3        1 DGG      0.119100
     21 O19         7.4210   -2.5500   -5.5170 os        1 DGG     -0.449900
     22 C21         6.3210   -2.0510   -6.1680 c         1 DGG      0.673100
     23 O21         6.4410   -0.9940   -6.7950 o         1 DGG     -0.576000
     24 C22         5.1200   -2.9190   -5.9930 c3        1 DGG     -0.154400
     25 C23         4.1250   -2.7420   -7.1170 c3        1 DGG     -0.070400
     26 C24         2.8430   -3.4890   -6.8180 c3        1 DGG     -0.080400
     27 C25         1.8360   -3.3150   -7.9350 c3        1 DGG     -0.077400
     28 C26         0.5520   -4.0590   -7.6370 c3        1 DGG     -0.080400
     29 C27        -0.4610   -3.8730   -8.7460 c3        1 DGG     -0.076400
     30 C28        -1.7430   -4.6250   -8.4470 c3        1 DGG     -0.053400
     31 C29        -2.7560   -4.4470   -9.5300 cx        1 DGG     -0.110700
     32 C30        -3.9600   -3.5400   -9.4000 cx        1 DGG     -0.117700
     33 C39        -4.1330   -5.0340   -9.3750 cx        1 DGG     -0.137400
     34 C31        -4.2550   -2.7380   -8.1740 c3        1 DGG     -0.049400
     35 C32        -3.5580   -1.3940   -8.2000 c3        1 DGG     -0.078400
     36 C33        -3.9000   -0.5750   -6.9740 c3        1 DGG     -0.078400
     37 C34        -3.1940    0.7630   -6.9930 c3        1 DGG     -0.079400
     38 C35        -3.5360    1.5850   -5.7680 c3        1 DGG     -0.079400
     39 C36        -2.8300    2.9160   -5.7810 c3        1 DGG     -0.093100
     40 C18         7.9620   -0.7460   -3.9630 c3        1 DGG      0.176400
     41 P           6.4620   -1.7000   -2.0500 p5        1 DGG      1.440800
     42 OP1         5.4830   -1.7390   -3.1590 o         1 DGG     -0.827500
     43 OP2         7.9380   -1.4540   -2.7700 os        1 DGG     -0.579200
     44 OP3         6.3750   -0.8800   -0.8350 o         1 DGG     -0.827500
     45 OP4         6.7320   -3.2650   -1.5990 os        1 DGG     -0.570200
     46 C40         6.8080   -4.2050   -2.6260 c3        1 DGG      0.153400
     47 C41         5.7450   -5.2860   -2.3890 c3        1 DGG      0.083100
     48 O42         5.8180   -5.8130   -1.0690 oh        1 DGG     -0.641800
     49 C43         5.9550   -6.4610   -3.3450 c3        1 DGG      0.131400
     50 O44         4.9850   -7.4740   -3.1570 oh        1 DGG     -0.619800
     51 H161       26.5530   -8.6690  -15.8910 hc        1 DGG      0.031367
     52 H162       28.1230   -8.2150  -15.1110 hc        1 DGG      0.031367
     53 H163       27.0720   -6.9360  -15.8460 hc        1 DGG      0.031367
     54 H151       26.3910   -8.6840  -13.3790 hc        1 DGG      0.038700
     55 H152       26.9090   -6.9550  -13.3330 hc        1 DGG      0.038700
     56 H141       24.3810   -8.0450  -14.7530 hc        1 DGG      0.038700
     57 H142       24.8980   -6.3170  -14.7070 hc        1 DGG      0.038700
     58 H131       24.7730   -6.3450  -12.1920 hc        1 DGG      0.039200
     59 H132       24.2550   -8.0740  -12.2370 hc        1 DGG      0.039200
     60 H121       22.2420   -7.4350  -13.6110 hc        1 DGG      0.038700
     61 H122       22.7600   -5.7060  -13.5650 hc        1 DGG      0.038700
     62 H111       22.6350   -5.7350  -11.0500 hc        1 DGG      0.039700
     63 H112       22.1170   -7.4630  -11.0950 hc        1 DGG      0.039700
     64 H101       20.6220   -5.0960  -12.4230 hc        1 DGG      0.038700
     65 H102       20.1050   -6.8250  -12.4690 hc        1 DGG      0.038700
     66 HC91       19.9790   -6.8530   -9.9530 hc        1 DGG      0.039700
     67 HC92       20.4970   -5.1250   -9.9080 hc        1 DGG      0.039700
     68 HC81       17.9670   -6.2150  -11.3260 hc        1 DGG      0.038700
     69 HC82       18.4850   -4.4860  -11.2810 hc        1 DGG      0.038700
     70 HC71       17.8420   -6.2430   -8.8110 hc        1 DGG      0.040200
     71 HC72       18.3600   -4.5140   -8.7650 hc        1 DGG      0.040200
     72 HC61       15.8290   -5.6040  -10.1840 hc        1 DGG      0.038700
     73 HC62       16.3470   -3.8750  -10.1380 hc        1 DGG      0.038700
     74 HC51       15.7040   -5.6340   -7.6680 hc        1 DGG      0.041700
     75 HC52       16.2230   -3.9050   -7.6220 hc        1 DGG      0.041700
     76 HC41       13.6930   -4.9920   -9.0440 hc        1 DGG      0.039200
     77 HC42       14.2100   -3.2630   -8.9910 hc        1 DGG      0.039200
     78 HC31       14.0930   -3.3120   -6.4680 hc        1 DGG      0.056200
     79 HC32       13.5510   -5.0330   -6.5280 hc        1 DGG      0.056200
     80 HC21       11.5630   -4.3170   -7.9630 hc        1 DGG      0.074200
     81 HC22       12.0800   -2.5920   -7.7590 hc        1 DGG      0.074200
     82 H171        9.3320   -3.4840   -4.3980 h1        1 DGG      0.080200
     83 H172       10.2420   -1.9580   -3.9380 h1        1 DGG      0.080200
     84 H191        8.6870   -0.9550   -6.0190 h1        1 DGG      0.073700
     85 H221        4.6750   -2.6090   -4.9950 hc        1 DGG      0.112200
     86 H222        5.4360   -3.9910   -5.9000 hc        1 DGG      0.112200
     87 H231        3.9100   -1.6490   -7.2520 hc        1 DGG      0.044200
     88 H232        4.5660   -3.1130   -8.0790 hc        1 DGG      0.044200
     89 H241        2.4070   -3.1120   -5.8550 hc        1 DGG      0.046200
     90 H242        3.0650   -4.5790   -6.6770 hc        1 DGG      0.046200
     91 H251        1.6160   -2.2240   -8.0750 hc        1 DGG      0.036200
     92 H252        2.2730   -3.6900   -8.8990 hc        1 DGG      0.036200
     93 H261        0.7720   -5.1510   -7.5060 hc        1 DGG      0.041700
     94 H262        0.1220   -3.6910   -6.6680 hc        1 DGG      0.041700
     95 H271       -0.0290   -4.2360   -9.7150 hc        1 DGG      0.038200
     96 H272       -0.6860   -2.7810   -8.8720 hc        1 DGG      0.038200
     97 H281       -2.1530   -4.2830   -7.4600 hc        1 DGG      0.044200
     98 H282       -1.5150   -5.7210   -8.3460 hc        1 DGG      0.044200
     99 H291       -2.2950   -4.4990  -10.5400 hc        1 DGG      0.072700
    100 H301       -4.2660   -3.0040  -10.3230 hc        1 DGG      0.070700
    101 H391       -4.3950   -5.5200   -8.4180 hc        1 DGG      0.066200
    102 H392       -4.6040   -5.5350  -10.2370 hc        1 DGG      0.066200
    103 H311       -3.9540   -3.3000   -7.2500 hc        1 DGG      0.041200
    104 H312       -5.3660   -2.5810   -8.1110 hc        1 DGG      0.041200
    105 H321       -2.4470   -1.5520   -8.2520 hc        1 DGG      0.043200
    106 H322       -3.8560   -0.8320   -9.1240 hc        1 DGG      0.043200
    107 H331       -3.6050   -1.1410   -6.0500 hc        1 DGG      0.037700
    108 H332       -5.0090   -0.4160   -6.9240 hc        1 DGG      0.037700
    109 H341       -3.4840    1.3290   -7.9180 hc        1 DGG      0.041200
    110 H342       -2.0840    0.6030   -7.0380 hc        1 DGG      0.041200
    111 H351       -4.6460    1.7450   -5.7230 hc        1 DGG      0.037200
    112 H352       -3.2470    1.0150   -4.8450 hc        1 DGG      0.037200
    113 H361       -3.0970    3.5050   -4.8700 hc        1 DGG      0.033033
    114 H362       -3.1210    3.5080   -6.6820 hc        1 DGG      0.033033
    115 H363       -1.7230    2.7750   -5.7970 hc        1 DGG      0.033033
    116 H181        6.9380   -0.3490   -4.2160 h1        1 DGG      0.042700
    117 H182        8.6930    0.1050   -3.8530 h1        1 DGG      0.042700
    118 H401        6.6430   -3.7200   -3.6290 h1        1 DGG      0.045200
    119 H402        7.8290   -4.6840   -2.5960 h1        1 DGG      0.045200
    120 H411        4.7150   -4.8530   -2.5320 h1        1 DGG      0.055700
    121 H421        6.0840   -5.0800   -0.4940 ho        1 DGG      0.439000
    122 H431        6.9800   -6.8960   -3.2020 h1        1 DGG      0.041700
    123 H432        5.8280   -6.1200   -4.4060 h1        1 DGG      0.041700
    124 H441        4.9180   -7.6230   -2.2050 ho        1 DGG      0.414000
@<TRIPOS>BOND
     1    1    2 1   
     2    1   51 1   
     3    1   52 1   
     4    1   53 1   
     5    2    3 1   
     6    2   54 1   
     7    2   55 1   
     8    3    4 1   
     9    3   56 1   
    10    3   57 1   
    11    4    5 1   
    12    4   58 1   
    13    4   59 1   
    14    5    6 1   
    15    5   60 1   
    16    5   61 1   
    17    6    7 1   
    18    6   62 1   
    19    6   63 1   
    20    7    8 1   
    21    7   64 1   
    22    7   65 1   
    23    8    9 1   
    24    8   66 1   
    25    8   67 1   
    26    9   10 1   
    27    9   68 1   
    28    9   69 1   
    29   10   11 1   
    30   10   70 1   
    31   10   71 1   
    32   11   12 1   
    33   11   72 1   
    34   11   73 1   
    35   12   13 1   
    36   12   74 1   
    37   12   75 1   
    38   13   14 1   
    39   13   76 1   
    40   13   77 1   
    41   14   15 1   
    42   14   78 1   
    43   14   79 1   
    44   15   16 1   
    45   15   80 1   
    46   15   81 1   
    47   16   17 2   
    48   16   18 1   
    49   18   19 1   
    50   19   20 1   
    51   19   82 1   
    52   19   83 1   
    53   20   21 1   
    54   20   40 1   
    55   20   84 1   
    56   21   22 1   
    57   22   23 2   
    58   22   24 1   
    59   24   25 1   
    60   24   85 1   
    61   24   86 1   
    62   25   26 1   
    63   25   87 1   
    64   25   88 1   
    65   26   27 1   
    66   26   89 1   
    67   26   90 1   
    68   27   28 1   
    69   27   91 1   
    70   27   92 1   
    71   28   29 1   
    72   28   93 1   
    73   28   94 1   
    74   29   30 1   
    75   29   95 1   
    76   29   96 1   
    77   30   31 1   
    78   30   97 1   
    79   30   98 1   
    80   31   32 1   
    81   31   33 1   
    82   31   99 1   
    83   32   33 1   
    84   32   34 1   
    85   32  100 1   
    86   33  101 1   
    87   33  102 1   
    88   34   35 1   
    89   34  103 1   
    90   34  104 1   
    91   35   36 1   
    92   35  105 1   
    93   35  106 1   
    94   36   37 1   
    95   36  107 1   
    96   36  108 1   
    97   37   38 1   
    98   37  109 1   
    99   37  110 1   
   100   38   39 1   
   101   38  111 1   
   102   38  112 1   
   103   39  113 1   
   104   39  114 1   
   105   39  115 1   
   106   40   43 1   
   107   40  116 1   
   108   40  117 1   
   109   41   42 1   
   110   41   43 1   
   111   41   44 1   
   112   41   45 1   
   113   45   46 1   
   114   46   47 1   
   115   46  118 1   
   116   46  119 1   
   117   47   48 1   
   118   47   49 1   
   119   47  120 1   
   120   48  121 1   
   121   49   50 1   
   122   49  122 1   
   123   49  123 1   
   124   50  124 1   
@<TRIPOS>SUBSTRUCTURE
     1 DGG         1 TEMP              0 ****  ****    0 ROOT
