@<TRIPOS>MOLECULE
DGH
   20    18     1     0     0
SMALL
bcc


@<TRIPOS>ATOM
      1 N           0.3830    2.0600    1.4900 n3        1 DGH     -0.316000
      2 CA         -0.7120    1.3360    0.9740 c3        1 DGH     -0.105000
      3 C          -1.5090    2.2320   -0.0010 c2        1 DGH      0.312000
      4 O          -1.0250    3.3410   -0.3790 o         1 DGH     -0.568500
      5 C1         -0.2050    0.1500    0.2560 c2        1 DGH     -0.037000
      6 C2          0.6770    0.3070   -0.8130 c2        1 DGH     -0.089000
      7 C3          1.1490   -0.7870   -1.4760 c1        1 DGH     -0.164000
      8 C4          0.7550   -2.0520   -1.0940 c1        1 DGH      0.040000
      9 O4          1.2210   -3.1960   -1.8260 oh        1 DGH     -0.273000
     10 C5         -0.1220   -2.2140   -0.0340 c1        1 DGH     -0.225000
     11 C6         -0.6000   -1.1090    0.6390 c1        1 DGH     -0.097000
     12 OXT        -2.6770    1.8620   -0.4150 o         1 DGH     -0.568500
     13 HN1         0.0860    2.8070    1.9090 hn        1 DGH      0.127000
     14 HA2         0.8280    1.5500    2.0710 hn        1 DGH      0.127000
     15 HB         -1.3140    1.0430    1.7340 h1        1 DGH      0.092000
     16 HA          1.0170    1.2410   -1.0640 ha        1 DGH      0.178000
     17 HD          1.7400   -0.6790   -2.1910 ha        1 DGH      0.131000
     18 HE          1.9110   -3.5730   -1.3840 ho        1 DGH      0.200000
     19 HF         -0.3970   -3.0970    0.2340 ha        1 DGH      0.110000
     20 HC         -1.2060   -1.2190    1.3700 ha        1 DGH      0.126000
@<TRIPOS>BOND
     1    1    2 1   
     2    1   13 1   
     3    1   14 1   
     4    2    3 1   
     5    2    5 1   
     6    2   15 1   
     7    3    4 1   
     8    3   12 1   
     9    5    6 1   
    10    5   11 1   
    11    6    7 1   
    12    6   16 1   
    13    7   17 1   
    14    8    9 1   
    15    8   10 1   
    16    9   18 1   
    17   10   19 1   
    18   11   20 1   
@<TRIPOS>SUBSTRUCTURE
     1 DGH         1 TEMP              0 ****  ****    0 ROOT
