@<TRIPOS>MOLECULE
DGH
   20    20     1     0     0
SMALL
bcc


@<TRIPOS>ATOM
      1 N           2.8610   -0.0890   -2.1350 n3        1 DGH     -0.883800
      2 CA          1.8690   -1.0240   -1.6070 c3        1 DGH      0.049800
      3 C           2.1020   -2.4960   -2.1060 c         1 DGH      0.892600
      4 O           3.2960   -2.9130   -2.1310 o         1 DGH     -0.833800
      5 C1          1.8430   -1.0090   -0.1040 ca        1 DGH     -0.044300
      6 C2          0.7950   -0.3940    0.5860 ca        1 DGH     -0.093000
      7 C3          0.7730   -0.3820    1.9810 ca        1 DGH     -0.194500
      8 C4          1.8170   -0.9910    2.6860 ca        1 DGH      0.085100
      9 O4          1.8660   -1.0040    4.0690 oh        1 DGH     -0.519100
     10 C5          2.8740   -1.6190    2.0090 ca        1 DGH     -0.194500
     11 C6          2.8760   -1.6250    0.6190 ca        1 DGH     -0.093000
     12 OXT         1.0950   -3.1490   -2.4810 o         1 DGH     -0.833800
     13 HN1         2.9150   -0.2410   -3.1270 hn        1 DGH      0.331800
     14 HA2         3.7590   -0.3430   -1.7590 hn        1 DGH      0.331800
     15 HB          0.8630   -0.6910   -1.9950 h1        1 DGH      0.052700
     16 HA         -0.0220    0.0830    0.0260 ha        1 DGH      0.152000
     17 HD         -0.0540    0.0990    2.5200 ha        1 DGH      0.120500
     18 HE          1.0540   -0.5880    4.3880 ho        1 DGH      0.401000
     19 HF          3.6760   -2.1020    2.5820 ha        1 DGH      0.120500
     20 HC          3.6730   -2.1430    0.0530 ha        1 DGH      0.152000
@<TRIPOS>BOND
     1    1    2 1   
     2    1   13 1   
     3    1   14 1   
     4    2    3 1   
     5    2    5 1   
     6    2   15 1   
     7    3    4 1   
     8    3   12 1   
     9    5    6 ar  
    10    5   11 ar  
    11    6    7 ar  
    12    6   16 1   
    13    7    8 ar  
    14    7   17 1   
    15    8    9 1   
    16    8   10 ar  
    17    9   18 1   
    18   10   11 ar  
    19   10   19 1   
    20   11   20 1   
@<TRIPOS>SUBSTRUCTURE
     1 DGH         1 TEMP              0 ****  ****    0 ROOT
