@<TRIPOS>MOLECULE
DGJ
   24    24     1     0     0
SMALL
bcc


@<TRIPOS>ATOM
      1 C1          0.0700    0.0150    0.0270 c3        1 DGJ      0.140800
      2 C2          1.6070    0.0320    0.0990 c3        1 DGJ      0.102100
      3 O2          2.1490   -1.1480   -0.4770 oh        1 DGJ     -0.611800
      4 C3          2.0620    0.0390    1.5660 c3        1 DGJ      0.112100
      5 O3          3.4680    0.2040    1.6590 oh        1 DGJ     -0.612800
      6 C4          1.4320    1.2220    2.3200 c3        1 DGJ      0.154100
      7 O4          1.9370    2.4680    1.8780 oh        1 DGJ     -0.592800
      8 C5         -0.1030    1.2100    2.1340 c3        1 DGJ      0.177500
      9 N5         -0.5060    1.1340    0.7360 n3        1 DGJ     -0.812200
     10 C6         -0.6830    2.4660    2.8130 c3        1 DGJ      0.135400
     11 O6         -2.0920    2.2990    2.8660 oh        1 DGJ     -0.614800
     12 H1         -0.2830   -0.9870    0.4110 h1        1 DGJ      0.036700
     13 H1A        -0.2450    0.0970   -1.0510 h1        1 DGJ      0.036700
     14 H2          2.0200    0.9390   -0.4250 h1        1 DGJ      0.069700
     15 HO2         1.8680   -1.1640   -1.3990 ho        1 DGJ      0.410000
     16 H3          1.7650   -0.9300    2.0560 h1        1 DGJ      0.056700
     17 HO3         3.8630   -0.4560    1.0730 ho        1 DGJ      0.427000
     18 H4          1.6630    1.1090    3.4180 h1        1 DGJ      0.048700
     19 HO4         2.8960    2.3700    1.8020 ho        1 DGJ      0.421000
     20 H5         -0.4790    0.3070    2.7110 h1        1 DGJ      0.032700
     21 HN5        -1.5080    1.1210    0.6780 hn        1 DGJ      0.384800
     22 H6         -0.3990    3.3880    2.2420 h1        1 DGJ      0.046200
     23 H6A        -0.2810    2.5340    3.8590 h1        1 DGJ      0.046200
     24 HO6        -2.4730    3.1790    2.9590 ho        1 DGJ      0.405000
@<TRIPOS>BOND
     1    1    2 1   
     2    1    9 1   
     3    1   12 1   
     4    1   13 1   
     5    2    3 1   
     6    2    4 1   
     7    2   14 1   
     8    3   15 1   
     9    4    5 1   
    10    4    6 1   
    11    4   16 1   
    12    5   17 1   
    13    6    7 1   
    14    6    8 1   
    15    6   18 1   
    16    7   19 1   
    17    8    9 1   
    18    8   10 1   
    19    8   20 1   
    20    9   21 1   
    21   10   11 1   
    22   10   22 1   
    23   10   23 1   
    24   11   24 1   
@<TRIPOS>SUBSTRUCTURE
     1 DGJ         1 TEMP              0 ****  ****    0 ROOT
