@<TRIPOS>MOLECULE
DGJ
   24    24     1     0     0
SMALL
bcc


@<TRIPOS>ATOM
      1 C1         -0.3710   -1.7090    0.2160 c3        1 DGJ      0.126800
      2 C2         -1.5270   -0.6950    0.3070 c3        1 DGJ      0.067100
      3 O2         -2.7420   -1.2580   -0.1640 oh        1 DGJ     -0.604800
      4 C3         -1.2440    0.5160   -0.5970 c3        1 DGJ      0.113100
      5 O3         -2.1890    1.5480   -0.3620 oh        1 DGJ     -0.612800
      6 C4          0.1380    1.1150   -0.2810 c3        1 DGJ      0.117100
      7 O4          0.1810    1.6430    1.0340 oh        1 DGJ     -0.607800
      8 C5          1.2170    0.0090   -0.3770 c3        1 DGJ      0.123500
      9 N5          0.9420   -1.1540    0.4580 n3        1 DGJ     -0.793200
     10 C6          2.5920    0.6320   -0.0700 c3        1 DGJ      0.143400
     11 O6          3.6490   -0.1870   -0.5200 oh        1 DGJ     -0.599800
     12 H1         -0.5500   -2.5340    0.9610 h1        1 DGJ      0.061200
     13 H1A        -0.3790   -2.1640   -0.8140 h1        1 DGJ      0.061200
     14 H2         -1.6610   -0.3410    1.3680 h1        1 DGJ      0.056700
     15 HO2        -2.9050   -2.0520    0.3590 ho        1 DGJ      0.410000
     16 H3         -1.2880    0.1990   -1.6750 h1        1 DGJ      0.061700
     17 HO3        -3.0630    1.1490   -0.4630 ho        1 DGJ      0.427000
     18 H4          0.3580    1.9350   -1.0200 h1        1 DGJ      0.058700
     19 HO4        -0.5740    2.2420    1.1170 ho        1 DGJ      0.426000
     20 H5          1.2300   -0.3500   -1.4500 h1        1 DGJ      0.078700
     21 HN5         1.0320   -0.8920    1.4260 hn        1 DGJ      0.365800
     22 H6          2.7040    1.5870   -0.6500 h1        1 DGJ      0.056200
     23 H6A         2.6930    0.8490    1.0260 h1        1 DGJ      0.056200
     24 HO6         3.5720   -1.0380   -0.0720 ho        1 DGJ      0.411000
@<TRIPOS>BOND
     1    1    2 1   
     2    1    9 1   
     3    1   12 1   
     4    1   13 1   
     5    2    3 1   
     6    2    4 1   
     7    2   14 1   
     8    3   15 1   
     9    4    5 1   
    10    4    6 1   
    11    4   16 1   
    12    5   17 1   
    13    6    7 1   
    14    6    8 1   
    15    6   18 1   
    16    7   19 1   
    17    8    9 1   
    18    8   10 1   
    19    8   20 1   
    20    9   21 1   
    21   10   11 1   
    22   10   22 1   
    23   10   23 1   
    24   11   24 1   
@<TRIPOS>SUBSTRUCTURE
     1 DGJ         1 TEMP              0 ****  ****    0 ROOT
