@<TRIPOS>MOLECULE
DGJ
   24    24     1     0     0
SMALL
bcc


@<TRIPOS>ATOM
      1 C1          0.0830    0.0170    0.0200 c3        1 DGJ      0.140800
      2 C2          1.6190    0.0340    0.1060 c3        1 DGJ      0.102100
      3 O2          2.1660   -1.1460   -0.4660 oh        1 DGJ     -0.611800
      4 C3          2.0610    0.0380    1.5770 c3        1 DGJ      0.112100
      5 O3          3.4660    0.2030    1.6830 oh        1 DGJ     -0.612800
      6 C4          1.4240    1.2210    2.3270 c3        1 DGJ      0.154100
      7 O4          1.9320    2.4680    1.8910 oh        1 DGJ     -0.592800
      8 C5         -0.1100    1.2100    2.1270 c3        1 DGJ      0.177500
      9 N5         -0.5000    1.1350    0.7250 n7        1 DGJ     -0.812200
     10 C6         -0.6960    2.4650    2.8010 c3        1 DGJ      0.135400
     11 O6         -2.1050    2.2970    2.8410 oh        1 DGJ     -0.614800
     12 H1         -0.2740   -0.9860    0.4000 h1        1 DGJ      0.036700
     13 H1A        -0.2220    0.0990   -1.0610 h1        1 DGJ      0.036700
     14 H2          2.0370    0.9410   -0.4130 h1        1 DGJ      0.069700
     15 HO2         1.8940   -1.1610   -1.3910 ho        1 DGJ      0.410000
     16 H3          1.7590   -0.9300    2.0630 h1        1 DGJ      0.056700
     17 HO3         3.8660   -0.4550    1.1010 ho        1 DGJ      0.427000
     18 H4          1.6450    1.1070    3.4270 h1        1 DGJ      0.048700
     19 HO4         2.8920    2.3700    1.8230 ho        1 DGJ      0.421000
     20 H5         -0.4910    0.3060    2.6990 h1        1 DGJ      0.032700
     21 HN5        -1.5010    1.1220    0.6580 hn        1 DGJ      0.384800
     22 H6         -0.3040    2.5310    3.8510 h1        1 DGJ      0.046700
     23 H6A        -0.4060    3.3870    2.2350 h1        1 DGJ      0.046700
     24 HO6        -2.4870    3.1780    2.9290 ho        1 DGJ      0.405000
@<TRIPOS>BOND
     1    1    2 1   
     2    1    9 1   
     3    1   12 1   
     4    1   13 1   
     5    2    3 1   
     6    2    4 1   
     7    2   14 1   
     8    3   15 1   
     9    4    5 1   
    10    4    6 1   
    11    4   16 1   
    12    5   17 1   
    13    6    7 1   
    14    6    8 1   
    15    6   18 1   
    16    7   19 1   
    17    8    9 1   
    18    8   10 1   
    19    8   20 1   
    20    9   21 1   
    21   10   11 1   
    22   10   22 1   
    23   10   23 1   
    24   11   24 1   
@<TRIPOS>SUBSTRUCTURE
     1 DGJ         1 TEMP              0 ****  ****    0 ROOT
