@<TRIPOS>MOLECULE
DGJ
   24    24     1     0     0
SMALL
bcc


@<TRIPOS>ATOM
      1 C1          0.0780    0.0210    0.0190 c3        1 DGJ      0.140800
      2 C2          1.6150    0.0510    0.0920 c3        1 DGJ      0.102100
      3 O2          2.1670   -1.1200   -0.4930 oh        1 DGJ     -0.611800
      4 C3          2.0690    0.0490    1.5590 c3        1 DGJ      0.112100
      5 O3          3.4740    0.2250    1.6540 oh        1 DGJ     -0.612800
      6 C4          1.4290    1.2200    2.3230 c3        1 DGJ      0.154100
      7 O4          1.9230    2.4740    1.8920 oh        1 DGJ     -0.592800
      8 C5         -0.1060    1.1970    2.1370 c3        1 DGJ      0.177500
      9 N5         -0.5080    1.1290    0.7380 n3        1 DGJ     -0.812200
     10 C6         -0.6970    2.4420    2.8250 c3        1 DGJ      0.135400
     11 O6         -2.1040    2.2630    2.8770 oh        1 DGJ     -0.614800
     12 H1         -0.2670   -0.9880    0.3950 h1        1 DGJ      0.036700
     13 H1A        -0.2370    0.1090   -1.0580 h1        1 DGJ      0.036700
     14 H2          2.0200    0.9650   -0.4240 h1        1 DGJ      0.069700
     15 HO2         1.8870   -1.1310   -1.4160 ho        1 DGJ      0.410000
     16 H3          1.7810   -0.9260    2.0410 h1        1 DGJ      0.056700
     17 HO3         3.8750   -0.4260    1.0630 ho        1 DGJ      0.427000
     18 H4          1.6610    1.1000    3.4210 h1        1 DGJ      0.048700
     19 HO4         2.8830    2.3850    1.8150 ho        1 DGJ      0.421000
     20 H5         -0.4740    0.2860    2.7060 h1        1 DGJ      0.032700
     21 HN5        -1.5100    1.1080    0.6790 hn        1 DGJ      0.384800
     22 H6         -0.4190    3.3710    2.2640 h1        1 DGJ      0.046700
     23 H6A        -0.2970    2.5040    3.8730 h1        1 DGJ      0.046700
     24 HO6        -2.4920    3.1400    2.9690 ho        1 DGJ      0.405000
@<TRIPOS>BOND
     1    1    2 1   
     2    1    9 1   
     3    1   12 1   
     4    1   13 1   
     5    2    3 1   
     6    2    4 1   
     7    2   14 1   
     8    3   15 1   
     9    4    5 1   
    10    4    6 1   
    11    4   16 1   
    12    5   17 1   
    13    6    7 1   
    14    6    8 1   
    15    6   18 1   
    16    7   19 1   
    17    8    9 1   
    18    8   10 1   
    19    8   20 1   
    20    9   21 1   
    21   10   11 1   
    22   10   22 1   
    23   10   23 1   
    24   11   24 1   
@<TRIPOS>SUBSTRUCTURE
     1 DGJ         1 TEMP              0 ****  ****    0 ROOT
