@<TRIPOS>MOLECULE
DGJ
   24    24     1     0     0
SMALL
bcc


@<TRIPOS>ATOM
      1 C1         -0.7980   -0.8290   -1.4640 c3        1 DGJ      0.140800
      2 C2          0.7240   -0.8290   -1.4640 c3        1 DGJ      0.102100
      3 O2          1.1870   -1.9980   -2.1560 oh        1 DGJ     -0.611800
      4 C3          1.2880   -0.8290   -0.0900 c3        1 DGJ      0.112100
      5 O3          2.7260   -0.6450   -0.1730 oh        1 DGJ     -0.612800
      6 C4          0.7130    0.2530    0.7560 c3        1 DGJ      0.154100
      7 O4          1.1750    1.5190    0.2660 oh        1 DGJ     -0.592800
      8 C5         -0.8080    0.2490    0.7450 c3        1 DGJ      0.177500
      9 N5         -1.3630    0.2420   -0.6190 n3        1 DGJ     -0.812200
     10 C6         -1.3010    1.4660    1.4630 c3        1 DGJ      0.135400
     11 O6         -2.5990    1.2260    1.9610 oh        1 DGJ     -0.614800
     12 H1         -1.1140   -1.6910   -1.1330 h1        1 DGJ      0.036700
     13 H1A        -1.1140   -0.7070   -2.3800 h1        1 DGJ      0.036700
     14 H2          1.0400   -0.0350   -1.9360 h1        1 DGJ      0.069700
     15 HO2         1.4470   -1.7730   -2.9750 ho        1 DGJ      0.410000
     16 H3          1.1030   -1.6910    0.3290 h1        1 DGJ      0.056700
     17 HO3         3.1350   -1.3080    0.2530 ho        1 DGJ      0.427000
     18 H4          1.0230    0.1360    1.6740 h1        1 DGJ      0.048700
     19 HO4         1.8140    1.8280    0.8000 ho        1 DGJ      0.421000
     20 H5         -1.1240   -0.5450    1.2180 h1        1 DGJ      0.032700
     21 HN5        -2.2700    0.1510   -0.5780 hn        1 DGJ      0.384800
     22 H6         -1.3250    2.2210    0.8440 h1        1 DGJ      0.046700
     23 H6A        -0.7010    1.6720    2.2040 h1        1 DGJ      0.046700
     24 HO6        -2.8570    1.9150    2.4580 ho        1 DGJ      0.405000
@<TRIPOS>BOND
     1    1    2 1   
     2    1    9 1   
     3    1   12 1   
     4    1   13 1   
     5    2    3 1   
     6    2    4 1   
     7    2   14 1   
     8    3   15 1   
     9    4    5 1   
    10    4    6 1   
    11    4   16 1   
    12    5   17 1   
    13    6    7 1   
    14    6    8 1   
    15    6   18 1   
    16    7   19 1   
    17    8    9 1   
    18    8   10 1   
    19    8   20 1   
    20    9   21 1   
    21   10   11 1   
    22   10   22 1   
    23   10   23 1   
    24   11   24 1   
@<TRIPOS>SUBSTRUCTURE
     1 DGJ         1 TEMP              0 ****  ****    0 ROOT
