@<TRIPOS>MOLECULE
DGM
   22    22     1     0     0
SMALL
bcc


@<TRIPOS>ATOM
      1 C1         -0.3600   -1.7880    0.0960 c2        1 DGM      0.238000
      2 C2         -1.5440   -0.8980    0.3320 c3        1 DGM     -0.068000
      3 O2         -2.6560   -1.4480   -0.3320 oh        1 DGM     -0.281000
      4 C3         -1.2840    0.5100   -0.2510 c3        1 DGM     -0.010000
      5 O3         -2.2160    1.4170    0.2870 oh        1 DGM     -0.301000
      6 C4          0.0980    0.9950    0.2270 c3        1 DGM      0.001000
      7 O4          0.4120    2.2310   -0.3800 oh        1 DGM     -0.299000
      8 C5          1.2110    0.0440   -0.2180 c3        1 DGM     -0.031000
      9 C6          2.4730    0.2030    0.6410 c3        1 DGM     -0.024000
     10 O6          3.4960   -0.6320    0.1710 oh        1 DGM     -0.294000
     11 O5          0.8410   -1.3830   -0.1110 os        1 DGM     -0.043000
     12 H1         -0.4700   -2.9020    0.0730 h4        1 DGM      0.237000
     13 H2         -1.7020   -0.8140    1.4510 h1        1 DGM      0.176000
     14 HO2        -3.2430   -1.8540    0.3250 ho        1 DGM      0.249000
     15 H3         -1.3400    0.4790   -1.3740 h1        1 DGM      0.140000
     16 HO3        -3.0330    1.3410   -0.2280 ho        1 DGM      0.248000
     17 H4          0.0900    1.1030    1.3500 h1        1 DGM      0.124000
     18 HO4        -0.2640    2.8670   -0.0930 ho        1 DGM      0.257000
     19 H5          1.4430    0.1550   -1.3170 h1        1 DGM      0.183000
     20 H61         2.2750   -0.1270    1.6980 h1        1 DGM      0.134500
     21 H62         2.7440    1.2940    0.6190 h1        1 DGM      0.134500
     22 HO6         3.9920   -0.1570   -0.5090 ho        1 DGM      0.227000
@<TRIPOS>BOND
     1    1    2 1   
     2    1   11 1   
     3    1   12 1   
     4    2    3 1   
     5    2    4 1   
     6    2   13 1   
     7    3   14 1   
     8    4    5 1   
     9    4    6 1   
    10    4   15 1   
    11    5   16 1   
    12    6    7 1   
    13    6    8 1   
    14    6   17 1   
    15    7   18 1   
    16    8    9 1   
    17    8   11 1   
    18    8   19 1   
    19    9   10 1   
    20    9   20 1   
    21    9   21 1   
    22   10   22 1   
@<TRIPOS>SUBSTRUCTURE
     1 DGM         1 TEMP              0 ****  ****    0 ROOT
