@<TRIPOS>MOLECULE
DGM
   22    22     1     0     0
SMALL
bcc


@<TRIPOS>ATOM
      1 C1         -0.9110   -0.8110   -1.5950 c2        1 DGM      0.238000
      2 C2          0.6090   -0.8110   -1.5950 c3        1 DGM     -0.068000
      3 O2          1.0750   -1.9840   -2.2900 oh        1 DGM     -0.281000
      4 C3          1.1700   -0.8110   -0.2270 c3        1 DGM     -0.010000
      5 O3          2.6120   -0.6240   -0.3090 oh        1 DGM     -0.301000
      6 C4          0.5920    0.2690    0.6160 c3        1 DGM      0.001000
      7 O4          1.0440    0.0960    1.9650 oh        1 DGM     -0.299000
      8 C5         -0.9310    0.2600    0.6020 c3        1 DGM     -0.031000
      9 C6         -1.4270    1.4740    1.3170 c3        1 DGM     -0.024000
     10 O6         -2.8270    1.5740    1.1580 oh        1 DGM     -0.294000
     11 O5         -1.4790    0.2520   -0.7570 os        1 DGM     -0.043000
     12 H1         -1.5910   -1.2160   -2.1670 h4        1 DGM      0.237000
     13 H2          0.9260   -0.0170   -2.0670 h1        1 DGM      0.176000
     14 HO2         1.1230   -1.8140   -3.1600 ho        1 DGM      0.249000
     15 H3          0.9850   -1.6730    0.1910 h1        1 DGM      0.140000
     16 HO3         3.0220   -1.3620   -0.0350 ho        1 DGM      0.248000
     17 H4          0.9070    1.1320    0.2850 h1        1 DGM      0.124000
     18 HO4         1.6910    0.6780    2.1370 ho        1 DGM      0.257000
     19 H5         -1.2450   -0.5340    1.0730 h1        1 DGM      0.183000
     20 H61        -1.0000    2.2690    0.9440 h1        1 DGM      0.134500
     21 H62        -1.2120    1.4040    2.2660 h1        1 DGM      0.134500
     22 HO6        -3.1340    2.2470    1.6490 ho        1 DGM      0.227000
@<TRIPOS>BOND
     1    1    2 1   
     2    1   11 1   
     3    1   12 1   
     4    2    3 1   
     5    2    4 1   
     6    2   13 1   
     7    3   14 1   
     8    4    5 1   
     9    4    6 1   
    10    4   15 1   
    11    5   16 1   
    12    6    7 1   
    13    6    8 1   
    14    6   17 1   
    15    7   18 1   
    16    8    9 1   
    17    8   11 1   
    18    8   19 1   
    19    9   10 1   
    20    9   20 1   
    21    9   21 1   
    22   10   22 1   
@<TRIPOS>SUBSTRUCTURE
     1 DGM         1 TEMP              0 ****  ****    0 ROOT
