@<TRIPOS>MOLECULE
DGN
   19    18     1     0     0
SMALL
bcc


@<TRIPOS>ATOM
      1 N           1.3700   -0.9790   -1.4070 n3        1 DGN     -0.892800
      2 CA          0.7950    0.2950   -0.9950 c3        1 DGN      0.018500
      3 C          -0.2060    0.9180   -2.0280 c         1 DGN      0.887600
      4 O          -0.2920    0.3780   -3.1660 o         1 DGN     -0.841300
      5 OXT        -0.8570    1.9380   -1.6670 o         1 DGN     -0.841300
      6 CB          0.0930    0.2330    0.3630 c3        1 DGN     -0.073400
      7 CG          1.0510   -0.0720    1.4890 c3        1 DGN     -0.142400
      8 CD          0.4510   -0.0840    2.8780 c         1 DGN      0.656100
      9 OE1         1.1420   -0.3900    3.8790 o         1 DGN     -0.667100
     10 NE2        -0.8710    0.2350    3.0680 n         1 DGN     -0.679000
     11 H           1.6330   -0.8850   -2.3750 hn        1 DGN      0.332800
     12 H2          0.6480   -1.6780   -1.3790 hn        1 DGN      0.332800
     13 HA          1.6560    1.0220   -0.9130 h1        1 DGN      0.042700
     14 HB2        -0.3890    1.2390    0.5100 hc        1 DGN      0.050700
     15 HB3        -0.7220   -0.5370    0.3290 hc        1 DGN      0.050700
     16 HG2         1.5270   -1.0770    1.3300 hc        1 DGN      0.075700
     17 HG3         1.8780    0.6890    1.5000 hc        1 DGN      0.075700
     18 HE21       -1.2420    0.2570    3.9830 hn        1 DGN      0.307500
     19 HE22       -1.4380    0.5270    2.3140 hn        1 DGN      0.307500
@<TRIPOS>BOND
     1    1    2 1   
     2    1   11 1   
     3    1   12 1   
     4    2    3 1   
     5    2    6 1   
     6    2   13 1   
     7    3    4 1   
     8    3    5 1   
     9    6    7 1   
    10    6   14 1   
    11    6   15 1   
    12    7    8 1   
    13    7   16 1   
    14    7   17 1   
    15    8    9 2   
    16    8   10 1   
    17   10   18 1   
    18   10   19 1   
@<TRIPOS>SUBSTRUCTURE
     1 DGN         1 TEMP              0 ****  ****    0 ROOT
