@<TRIPOS>MOLECULE
DGP
   35    37     1     0     0
SMALL
bcc


@<TRIPOS>ATOM
      1 P          -4.6120    0.0840   -1.0830 p5        1 DGP      1.331900
      2 OP1        -3.9510    1.4050   -1.4250 o         1 DGP     -0.930167
      3 OP2        -6.0450    0.1320   -0.6570 o         1 DGP     -0.930167
      4 OP3        -4.1540   -1.0650   -1.9340 o         1 DGP     -0.930167
      5 O5'        -3.7500   -0.2310    0.4060 os        1 DGP     -0.553200
      6 C5'        -2.3990   -0.3460    0.2430 c3        1 DGP      0.229400
      7 C4'        -1.6870    0.9610    0.6700 c3        1 DGP      0.053100
      8 O4'        -0.4490    0.6470    1.3650 os        1 DGP     -0.433600
      9 C3'        -1.3440    1.8970   -0.5060 c3        1 DGP      0.158100
     10 O3'        -2.0500    3.1130   -0.4130 oh        1 DGP     -0.673800
     11 C2'         0.1570    2.1940   -0.3680 c3        1 DGP     -0.129400
     12 C1'         0.6680    1.2030    0.6980 c3        1 DGP      0.251800
     13 N9          1.4980    0.1210    0.1550 na        1 DGP     -0.181900
     14 C8          1.0690   -1.1050   -0.3910 cc        1 DGP      0.452400
     15 N7          2.0910   -1.9180   -0.7470 nd        1 DGP     -0.631000
     16 C5          3.2430   -1.2080   -0.4180 cd        1 DGP      0.196800
     17 C6          4.6400   -1.5510   -0.5690 c         1 DGP      0.645000
     18 O6          5.1460   -2.5870   -1.0360 o         1 DGP     -0.642500
     19 N1          5.5370   -0.5550   -0.1020 n         1 DGP     -0.498400
     20 C2          5.0950    0.6740    0.4290 cd        1 DGP      0.595800
     21 N2          6.1300    1.6150    0.7750 nh        1 DGP     -0.866800
     22 N3          3.8090    1.0160    0.5960 nc        1 DGP     -0.623100
     23 C4          2.8910    0.0740    0.1540 cc        1 DGP      0.050800
     24 H5'        -2.0010   -1.1680    0.9120 h1        1 DGP     -0.004300
     25 H5''       -2.1390   -0.5910   -0.8270 h1        1 DGP     -0.004300
     26 H4'        -2.3170    1.4970    1.4300 h1        1 DGP      0.082700
     27 H3'        -1.5790    1.4020   -1.4890 h1        1 DGP      0.105700
     28 HO3'       -2.9650    2.9020   -0.7160 ho        1 DGP      0.502000
     29 H2'         0.6780    2.0870   -1.3470 hc        1 DGP      0.054200
     30 H2''        0.3140    3.2360    0.0040 hc        1 DGP      0.054200
     31 H1'         1.2960    1.7130    1.4870 h2        1 DGP      0.066700
     32 H8         -0.0110   -1.3270   -0.4890 h5        1 DGP      0.118100
     33 HN1         6.5100   -0.7060   -0.2460 hn        1 DGP      0.322500
     34 HN21        6.6520    1.2850    1.5640 hn        1 DGP      0.382300
     35 HN22        5.7460    2.5210    0.9680 hn        1 DGP      0.382300
@<TRIPOS>BOND
     1    1    2 1   
     2    1    3 1   
     3    1    4 1   
     4    1    5 1   
     5    5    6 1   
     6    6    7 1   
     7    6   24 1   
     8    6   25 1   
     9    7    8 1   
    10    7    9 1   
    11    7   26 1   
    12    8   12 1   
    13    9   10 1   
    14    9   11 1   
    15    9   27 1   
    16   10   28 1   
    17   11   12 1   
    18   11   29 1   
    19   11   30 1   
    20   12   13 1   
    21   12   31 1   
    22   13   14 1   
    23   13   23 1   
    24   14   15 2   
    25   14   32 1   
    26   15   16 1   
    27   16   17 1   
    28   16   23 2   
    29   17   18 2   
    30   17   19 1   
    31   19   20 1   
    32   19   33 1   
    33   20   21 1   
    34   20   22 2   
    35   21   34 1   
    36   21   35 1   
    37   22   23 1   
@<TRIPOS>SUBSTRUCTURE
     1 DGP         1 TEMP              0 ****  ****    0 ROOT
