@<TRIPOS>MOLECULE
DGP
   35    33     1     0     0
SMALL
bcc


@<TRIPOS>ATOM
      1 P           0.8710   -3.5100    2.6790 p3        1 DGP      2.524000
      2 OP1         2.0720   -4.3780    2.3120 o         1 DGP     -1.252000
      3 OP2         1.3010   -2.4380    3.7330 os        1 DGP     -1.245000
      4 OP3        -0.2390   -4.3980    3.2740 o         1 DGP     -1.252000
      5 O5'         0.3480   -2.8000    1.4120 os        1 DGP     -0.715000
      6 C5'         1.2350   -1.9190    0.7110 c3        1 DGP      0.079000
      7 C4'         0.9060   -1.9080   -0.6380 c3        1 DGP     -0.058000
      8 O4'        -0.3100   -1.1090   -0.8520 os        1 DGP     -0.290000
      9 C3'         2.0600   -1.1810   -1.4940 c3        1 DGP      0.047000
     10 O3'         2.7930   -2.1950   -2.3460 oh        1 DGP     -0.401000
     11 C2'         1.4650   -0.3790   -2.2060 c3        1 DGP     -0.208000
     12 C1'         0.1100   -0.0020   -1.4240 c3        1 DGP      0.160000
     13 N9          0.3710    0.9630   -0.4560 n3        1 DGP     -0.137000
     14 C8          1.4010    1.7670   -0.0620 c1        1 DGP     -0.036000
     15 N7          0.8740    2.8510    0.5630 n2        1 DGP     -0.105000
     16 C5         -0.4860    2.7220    0.5570 c1        1 DGP     -0.221000
     17 C6         -1.6110    3.6440    1.0500 c1        1 DGP      0.392000
     18 O6         -1.3350    4.7730    1.4950 o         1 DGP     -0.367000
     19 N1         -2.9490    3.2780    0.8520 n3        1 DGP     -0.338000
     20 C2         -3.2600    2.0520    0.1920 c2        1 DGP      0.149000
     21 N2         -4.5610    1.7040   -0.0300 n3        1 DGP     -0.305000
     22 N3         -2.1810    1.1760   -0.2780 n1        1 DGP     -0.196000
     23 C4         -0.7930    1.5520   -0.0750 c1        1 DGP      0.001000
     24 H5'         2.1290   -2.2170    0.8200 h1        1 DGP      0.035000
     25 H5''        1.1470   -0.9960    1.0810 h1        1 DGP      0.035000
     26 H4'         0.7640   -2.8730   -0.9820 h1        1 DGP      0.122000
     27 H3'         2.6930   -0.7110   -0.8950 h1        1 DGP      0.145000
     28 HO3'        3.7180   -2.0670   -2.2580 ho        1 DGP      0.301000
     29 H2'         2.0260    0.4510   -2.3450 hc        1 DGP      0.093500
     30 H2''        1.2550   -0.7800   -3.0480 hc        1 DGP      0.093500
     31 H1'        -0.5680    0.3290   -2.0600 h2        1 DGP      0.106000
     32 H8          2.3760    1.5860   -0.2050 DU        1 DGP      0.255000
     33 HN1        -3.6450    3.8180    1.2050 hn        1 DGP      0.236000
     34 HN21       -5.2200    2.2260    0.2680 hn        1 DGP      0.177500
     35 HN22       -4.7550    0.9670   -0.5500 hn        1 DGP      0.177500
@<TRIPOS>BOND
     1    1    2 1   
     2    1    4 1   
     3    1    5 1   
     4    5    6 1   
     5    6    7 1   
     6    6   24 1   
     7    6   25 1   
     8    7    8 1   
     9    7    9 1   
    10    7   26 1   
    11    8   12 1   
    12    9   10 1   
    13    9   11 1   
    14    9   27 1   
    15   10   28 1   
    16   11   12 1   
    17   11   29 1   
    18   11   30 1   
    19   12   13 1   
    20   12   31 1   
    21   13   14 1   
    22   13   23 1   
    23   14   15 1   
    24   15   16 1   
    25   16   23 1   
    26   17   18 1   
    27   17   19 1   
    28   19   20 1   
    29   19   33 1   
    30   20   21 1   
    31   20   22 1   
    32   21   34 1   
    33   21   35 1   
@<TRIPOS>SUBSTRUCTURE
     1 DGP         1 TEMP              0 ****  ****    0 ROOT
