@<TRIPOS>MOLECULE
DGR
   25    25     1     0     0
SMALL
bcc


@<TRIPOS>ATOM
      1 OAA         0.4080    1.0820    0.1660 o         1 DGR     -0.817300
      2 CAN         1.3880    0.3020    0.0050 c         1 DGR      0.885800
      3 OAD         1.6610   -0.6780    0.7510 o         1 DGR     -0.817300
      4 CAE         2.2890    0.5790   -1.1890 ce        1 DGR     -0.085200
      5 CAF         3.4610   -0.0490   -1.3610 cf        1 DGR     -0.296200
      6 CAO         4.3190    0.2030   -2.5240 c         1 DGR      0.653300
      7 OAB         4.1070    1.0590   -3.4090 o         1 DGR     -0.632100
      8 NAL         5.5170   -0.5770   -2.5900 n         1 DGR     -0.445500
      9 NAM         6.2070   -0.7000   -3.7650 n         1 DGR     -0.371500
     10 CAP         7.6280   -0.5910   -3.7290 c         1 DGR      0.637700
     11 OAC         8.3170   -0.8560   -2.7300 o         1 DGR     -0.558100
     12 CAQ         8.2790   -0.2790   -5.0350 ca        1 DGR     -0.258900
     13 CAI         9.4430    0.5010   -5.0380 ca        1 DGR     -0.047000
     14 CAG        10.0570    0.7880   -6.2570 ca        1 DGR     -0.259300
     15 CAH         9.4850    0.2730   -7.4340 ca        1 DGR      0.404200
     16 NAK         8.3730   -0.4890   -7.4490 nb        1 DGR     -0.675000
     17 CAJ         7.7850   -0.7540   -6.2670 ca        1 DGR      0.426200
     18 HAE         1.9160    1.3310   -1.9040 ha        1 DGR      0.123000
     19 HAF         3.7950   -0.7870   -0.6120 ha        1 DGR      0.158000
     20 HAL         5.4850   -1.4580   -2.1070 hn        1 DGR      0.315500
     21 HAM         5.8090   -0.0960   -4.4780 hn        1 DGR      0.302500
     22 HAI         9.8590    0.8680   -4.0860 ha        1 DGR      0.159000
     23 HAJ         6.8800   -1.3880   -6.3170 h4        1 DGR      0.037100
     24 HAG        10.9670    1.4000   -6.3020 ha        1 DGR      0.142000
     25 HAH         9.9380    0.4770   -8.4200 h4        1 DGR      0.017100
@<TRIPOS>BOND
     1    1    2 1   
     2    2    3 1   
     3    2    4 1   
     4    4    5 2   
     5    4   18 1   
     6    5    6 1   
     7    5   19 1   
     8    6    7 2   
     9    6    8 1   
    10    8    9 1   
    11    8   20 1   
    12    9   10 1   
    13    9   21 1   
    14   10   11 2   
    15   10   12 1   
    16   12   13 ar  
    17   12   17 ar  
    18   13   14 ar  
    19   13   22 1   
    20   14   15 ar  
    21   14   24 1   
    22   15   16 ar  
    23   15   25 1   
    24   16   17 ar  
    25   17   23 1   
@<TRIPOS>SUBSTRUCTURE
     1 DGR         1 TEMP              0 ****  ****    0 ROOT
