@<TRIPOS>MOLECULE
DGR
   27    27     1     0     0
SMALL
bcc


@<TRIPOS>ATOM
      1 OAA         2.5310    1.1110   -1.1630 os        1 DGR     -0.451900
      2 CAN         1.6330    1.7280   -2.0100 c         1 DGR      0.706600
      3 OAD         1.4570    2.8750   -2.3230 o         1 DGR     -0.454500
      4 CAE         1.5510    0.2750   -1.8980 cx        1 DGR      0.111300
      5 CAF         2.0990   -0.6170   -2.9190 c2        1 DGR     -0.395300
      6 CAO         3.3830   -0.7960   -3.1140 c1        1 DGR      0.618600
      7 OAB         4.5560   -0.9600   -3.2900 o         1 DGR     -0.494500
      8 NAL         7.3490   -1.1730   -1.0890 n3        1 DGR     -0.640600
      9 NAM         7.2460   -0.8240   -2.4350 n4        1 DGR     -0.462600
     10 CAP         8.5240   -0.4570   -3.2200 c         1 DGR      0.557700
     11 OAC         9.5680   -0.5610   -2.5890 o         1 DGR     -0.433100
     12 CAQ         8.3340   -0.0300   -4.5940 ca        1 DGR     -0.340900
     13 CAI         9.4810    0.4060   -5.2980 ca        1 DGR      0.001000
     14 CAG         9.3420    0.8210   -6.6180 ca        1 DGR     -0.241300
     15 CAH         8.0600    0.7890   -7.2050 ca        1 DGR      0.482200
     16 NAK         6.9570    0.3720   -6.5480 nb        1 DGR     -0.645000
     17 CAJ         7.0920   -0.0270   -5.2750 ca        1 DGR      0.452200
     18 HAE         0.7810   -0.1920   -1.2440 h1        1 DGR      0.141700
     19 HAF         1.3650   -1.1680   -3.5350 ha        1 DGR      0.222000
     20 HAL         7.7240   -0.3930   -0.5570 hn        1 DGR      0.413300
     21 HAM         6.7850   -1.6200   -2.9190 hn        1 DGR      0.487300
     22 HAI        10.4660    0.4130   -4.8000 ha        1 DGR      0.179000
     23 HAJ         6.1460   -0.3590   -4.8050 h4        1 DGR      0.035100
     24 HAG        10.2120    1.1670   -7.1980 ha        1 DGR      0.186000
     25 HAH         7.9000    1.1110   -8.2550 h4        1 DGR      0.064100
     26 HAL2        7.9890   -1.9570   -0.9850 hn        1 DGR      0.413300
     27 HAM2        6.5850   -0.0260   -2.4980 hn        1 DGR      0.487300
@<TRIPOS>BOND
     1    1    2 1   
     2    1    4 1   
     3    2    3 2   
     4    2    4 1   
     5    4    5 1   
     6    4   18 1   
     7    5    6 2   
     8    5   19 1   
     9    6    7 2   
    10    8    9 1   
    11    8   20 1   
    12    8   26 1   
    13    9   10 1   
    14    9   21 1   
    15    9   27 1   
    16   10   11 2   
    17   10   12 1   
    18   12   13 ar  
    19   12   17 ar  
    20   13   14 ar  
    21   13   22 1   
    22   14   15 ar  
    23   14   24 1   
    24   15   16 ar  
    25   15   25 1   
    26   16   17 ar  
    27   17   23 1   
@<TRIPOS>SUBSTRUCTURE
     1 DGR         1 TEMP              0 ****  ****    0 ROOT
