@<TRIPOS>MOLECULE
DGR
   27    27     1     0     0
SMALL
bcc


@<TRIPOS>ATOM
      1 OAA         1.5400    0.1190    0.4420 o         1 DGR     -0.455500
      2 CAN         1.6490    0.4920   -0.6960 c         1 DGR      0.705600
      3 OAD         2.4900    1.3970   -1.3120 os        1 DGR     -0.451900
      4 CAE         1.4910    0.6720   -2.1360 cx        1 DGR      0.112300
      5 CAF         2.0250   -0.2850   -3.1040 c2        1 DGR     -0.394300
      6 CAO         3.3070   -0.4620   -3.3190 c1        1 DGR      0.618600
      7 OAB         4.4780   -0.6180   -3.5180 o         1 DGR     -0.494500
      8 NAL         7.1120   -0.7420   -1.1450 n8        1 DGR     -0.640600
      9 NAM         7.1150   -0.5240   -2.5220 ny        1 DGR     -0.463600
     10 CAP         8.4600   -0.3130   -3.2510 c         1 DGR      0.557700
     11 OAC         9.4530   -0.3940   -2.5410 o         1 DGR     -0.433100
     12 CAQ         8.3820   -0.0440   -4.6760 ca        1 DGR     -0.340900
     13 CAI         9.5990    0.2020   -5.3520 ca        1 DGR      0.001000
     14 CAG         9.5690    0.4620   -6.7180 ca        1 DGR     -0.241300
     15 CAH         8.3230    0.4700   -7.3770 ca        1 DGR      0.482200
     16 NAK         7.1520    0.2350   -6.7460 nb        1 DGR     -0.645000
     17 CAJ         7.1830   -0.0150   -5.4290 ca        1 DGR      0.452200
     18 HAE         0.6800    1.3220   -2.5320 h1        1 DGR      0.142700
     19 HAF         1.2830   -0.8660   -3.6830 ha        1 DGR      0.222000
     20 HAL         7.5040    0.0640   -0.6660 hn        1 DGR      0.413800
     21 HAM         6.5130    0.3020   -2.7050 hn        1 DGR      0.486800
     22 HAI        10.5540    0.1850   -4.7960 ha        1 DGR      0.180000
     23 HAJ         6.1850   -0.2010   -4.9840 h4        1 DGR      0.036100
     24 HAG        10.4980    0.6580   -7.2770 ha        1 DGR      0.185000
     25 HAH         8.2490    0.6730   -8.4650 h4        1 DGR      0.063100
     26 HAL2        7.6890   -1.5480   -0.9220 hn        1 DGR      0.413800
     27 HAM2        6.6330   -1.3350   -2.9580 hn        1 DGR      0.486800
@<TRIPOS>BOND
     1    1    2 2   
     2    2    3 1   
     3    2    4 1   
     4    3    4 1   
     5    4    5 1   
     6    4   18 1   
     7    5    6 2   
     8    5   19 1   
     9    6    7 2   
    10    8    9 1   
    11    8   20 1   
    12    8   26 1   
    13    9   10 1   
    14    9   21 1   
    15    9   27 1   
    16   10   11 2   
    17   10   12 1   
    18   12   13 ar  
    19   12   17 ar  
    20   13   14 ar  
    21   13   22 1   
    22   14   15 ar  
    23   14   24 1   
    24   15   16 ar  
    25   15   25 1   
    26   16   17 ar  
    27   17   23 1   
@<TRIPOS>SUBSTRUCTURE
     1 DGR         1 TEMP              0 ****  ****    0 ROOT
