@<TRIPOS>MOLECULE
DGS
   24    25     1     0     0
SMALL
bcc


@<TRIPOS>ATOM
      1 C1         -1.3280    0.0150   -0.8370 c3        1 DGS      0.302900
      2 C2          0.2460    0.1170   -0.8390 c3        1 DGS      0.164100
      3 C3          0.8570    0.2030    0.4900 c3        1 DGS      0.091100
      4 C4          0.1670   -0.4070    1.5050 c3        1 DGS      0.087100
      5 C5         -1.0920    0.1280    1.7040 c3        1 DGS      0.085100
      6 C6         -0.7280    1.5950    1.8180 c3        1 DGS      0.079400
      7 O1         -1.6730   -1.0960   -1.4480 oh        1 DGS     -0.640800
      8 O2          0.7710   -1.0400   -1.5030 os        1 DGS     -0.614500
      9 O3          0.7280    1.6610    0.9220 os        1 DGS     -0.436600
     10 O4          0.9920   -0.2490    2.8350 oh        1 DGS     -0.591800
     11 O5         -1.9990    0.0250    0.5970 os        1 DGS     -0.412600
     12 O7          2.7540    0.1220   -2.4240 o         1 DGS     -0.744867
     13 O8          2.0420   -2.0660   -3.3840 o         1 DGS     -0.744867
     14 O9          0.7290   -0.1920   -3.8450 o         1 DGS     -0.744867
     15 S           1.5830   -0.7770   -2.7460 s6        1 DGS      1.704300
     16 H1         -1.6840    0.7700   -1.3470 h2        1 DGS      0.070700
     17 H2          0.5020    0.9100   -1.3500 h1        1 DGS      0.070700
     18 H3          1.7930   -0.0790    0.4740 h1        1 DGS      0.108700
     19 H4          0.0770   -1.3600    1.2990 h1        1 DGS      0.138700
     20 H5         -1.4940   -0.2020    2.5320 h1        1 DGS      0.081700
     21 H61        -1.4150    2.1590    1.4100 h1        1 DGS      0.047200
     22 H62        -0.5750    1.8460    2.7510 h1        1 DGS      0.047200
     23 HO1        -2.5160   -1.0340   -1.7240 ho        1 DGS      0.457000
     24 HO4         1.2620   -1.0480    3.1120 ho        1 DGS      0.397000
@<TRIPOS>BOND
     1    1    2 1   
     2    1    7 1   
     3    1   11 1   
     4    1   16 1   
     5    2    3 1   
     6    2    8 1   
     7    2   17 1   
     8    3    4 1   
     9    3    9 1   
    10    3   18 1   
    11    4    5 1   
    12    4   10 1   
    13    4   19 1   
    14    5    6 1   
    15    5   11 1   
    16    5   20 1   
    17    6    9 1   
    18    6   21 1   
    19    6   22 1   
    20    7   23 1   
    21    8   15 1   
    22   10   24 1   
    23   12   15 1   
    24   13   15 1   
    25   14   15 1   
@<TRIPOS>SUBSTRUCTURE
     1 DGS         1 TEMP              0 ****  ****    0 ROOT
