@<TRIPOS>MOLECULE
DGS
   24    25     1     0     0
SMALL
bcc


@<TRIPOS>ATOM
      1 C1         -0.7220    1.8520    0.0320 c3        1 DGS      0.328900
      2 C2         -0.0440    0.5440    0.5280 c3        1 DGS      0.160100
      3 C3         -1.0740   -0.6020    0.6360 c3        1 DGS      0.062100
      4 C4         -1.7540   -0.6930   -0.7470 c3        1 DGS      0.086100
      5 C5         -2.6540    0.5630   -0.6290 c3        1 DGS      0.126100
      6 C6         -3.1230    0.4970    0.8400 c3        1 DGS      0.088400
      7 O1          0.1230    2.6480   -0.7430 oh        1 DGS     -0.597800
      8 O2          0.9560    0.2080   -0.3720 os        1 DGS     -0.614500
      9 O3         -2.1100   -0.2220    1.5640 os        1 DGS     -0.425600
     10 O4         -2.5650   -1.8370   -0.9190 oh        1 DGS     -0.608800
     11 O5         -1.8480    1.7070   -0.8540 os        1 DGS     -0.451600
     12 O7          1.5220   -2.0800    0.1930 o         1 DGS     -0.746867
     13 O8          3.0540   -0.7860   -1.0670 o         1 DGS     -0.746867
     14 O9          2.7140   -0.3410    1.2370 o         1 DGS     -0.746867
     15 S           2.2450   -0.8960    0.0530 s6        1 DGS      1.707300
     16 H1         -1.0550    2.4820    0.9040 h2        1 DGS      0.058700
     17 H2          0.3980    0.7490    1.5460 h1        1 DGS      0.062700
     18 H3         -0.6200   -1.5510    1.0110 h1        1 DGS      0.126700
     19 H4         -1.0080   -0.6110   -1.5790 h1        1 DGS      0.096700
     20 H5         -3.4830    0.6160   -1.3710 h1        1 DGS      0.087700
     21 H61        -3.2170    1.5090    1.3020 h1        1 DGS      0.045700
     22 H62        -4.0750   -0.0800    0.9380 h1        1 DGS      0.045700
     23 HO1         0.6170    2.0620   -1.3390 ho        1 DGS      0.440000
     24 HO4        -2.0010   -2.5940   -0.7120 ho        1 DGS      0.415000
@<TRIPOS>BOND
     1    1    2 1   
     2    1    7 1   
     3    1   11 1   
     4    1   16 1   
     5    2    3 1   
     6    2    8 1   
     7    2   17 1   
     8    3    4 1   
     9    3    9 1   
    10    3   18 1   
    11    4    5 1   
    12    4   10 1   
    13    4   19 1   
    14    5    6 1   
    15    5   11 1   
    16    5   20 1   
    17    6    9 1   
    18    6   21 1   
    19    6   22 1   
    20    7   23 1   
    21    8   15 1   
    22   10   24 1   
    23   12   15 1   
    24   13   15 1   
    25   14   15 1   
@<TRIPOS>SUBSTRUCTURE
     1 DGS         1 TEMP              0 ****  ****    0 ROOT
