@<TRIPOS>MOLECULE
DGT
   44    46     1     0     0
SMALL
bcc


@<TRIPOS>ATOM
      1 PG          0.0000    0.0000    0.0000 p5        1 DGT      0.891900
      2 O1G         1.6110    0.0000    0.0000 o         1 DGT     -0.458167
      3 O2G        -0.5370    0.0000    1.5180 o         1 DGT     -0.458167
      4 O3G        -0.4930    1.2070   -0.6980 o         1 DGT     -0.458167
      5 O3B        -0.5350   -1.3160   -0.7590 os        1 DGT     -0.486800
      6 PB         -0.6250   -1.7570   -2.3040 p5        1 DGT      1.108800
      7 O1B        -1.8290   -0.9630   -3.0200 o         1 DGT     -0.475500
      8 O2B         0.6490   -1.4350   -2.9840 o         1 DGT     -0.475500
      9 O3A        -0.8970   -3.3410   -2.3960 os        1 DGT     -0.494800
     10 PA         -0.6950   -4.4460   -3.5490 p5        1 DGT      0.981800
     11 O1A        -1.8460   -4.2760   -4.6620 o         1 DGT     -0.678500
     12 O2A         0.6320   -4.2640   -4.1790 o         1 DGT     -0.678500
     13 O5'        -0.7850   -5.9170   -2.9040 os        1 DGT     -0.498200
     14 C5'        -0.5430   -7.1120   -3.6510 c3        1 DGT      0.315400
     15 C4'        -0.7120   -8.3280   -2.7380 c3        1 DGT      0.152100
     16 O4'        -2.0960   -8.4910   -2.3600 os        1 DGT     -0.367600
     17 C3'        -0.3870   -9.6350   -3.5040 c3        1 DGT      0.145100
     18 O3'         1.0130   -9.9180   -3.4580 oh        1 DGT     -0.586800
     19 C2'        -1.1910  -10.6880   -2.7060 c3        1 DGT     -0.117400
     20 C1'        -2.2640   -9.8630   -1.9630 c3        1 DGT      0.184800
     21 N9         -3.6000  -10.3300   -2.3390 na        1 DGT      0.166100
     22 C8         -4.3930   -9.8070   -3.3190 cc        1 DGT      0.133400
     23 N7         -5.5130  -10.4670   -3.3790 nd        1 DGT     -0.532000
     24 C5         -5.5060  -11.4490   -2.4450 cd        1 DGT     -0.054200
     25 C6         -6.4290  -12.4500   -2.0620 c         1 DGT      0.604000
     26 O6         -7.5060  -12.5550   -2.6230 o         1 DGT     -0.819500
     27 N1         -6.0870  -13.2880   -1.0590 ns        1 DGT     -0.018400
     28 C2         -4.8790  -13.1630   -0.4380 cd        1 DGT     -0.398200
     29 N2         -4.5580  -14.0270    0.5770 nz        1 DGT      0.364400
     30 N3         -4.0140  -12.2370   -0.7850 nc        1 DGT     -0.721100
     31 C4         -4.2800  -11.3750   -1.7730 cc        1 DGT      0.007800
     32 H5'         0.4660   -7.0930   -4.0440 h1        1 DGT     -0.016800
     33 H5'A       -1.2490   -7.1740   -4.4700 h1        1 DGT     -0.016800
     34 H4'        -0.0880   -8.2400   -1.8580 h1        1 DGT      0.021700
     35 H3'        -0.7410   -9.5770   -4.5260 h1        1 DGT      0.014700
     36 HO3'        1.2690  -10.3700   -4.2450 ho        1 DGT      0.368000
     37 H2'        -1.6590  -11.3960   -3.3790 hc        1 DGT      0.026200
     38 H2'A       -0.5480  -11.1970   -1.9970 hc        1 DGT      0.026200
     39 H1'        -2.1220   -9.9550   -0.8930 h2        1 DGT      0.021700
     40 H8         -4.1300   -8.9680   -3.9520 h5        1 DGT      0.020100
     41 HN2        -5.2420  -13.9570    1.3050 hn        1 DGT      0.052467
     42 HN2A       -4.5420  -14.9640    0.2250 hn        1 DGT      0.052467
     43 H16        -6.7230  -14.0040   -0.7690 hn        1 DGT      0.100500
     44 H23        -3.6570  -13.7930    0.9430 hn        1 DGT      0.052467
@<TRIPOS>BOND
     1    1    2 1   
     2    1    3 1   
     3    1    4 1   
     4    1    5 1   
     5    5    6 1   
     6    6    7 1   
     7    6    8 1   
     8    6    9 1   
     9    9   10 1   
    10   10   11 1   
    11   10   12 1   
    12   10   13 1   
    13   13   14 1   
    14   14   15 1   
    15   14   32 1   
    16   14   33 1   
    17   15   16 1   
    18   15   17 1   
    19   15   34 1   
    20   16   20 1   
    21   17   18 1   
    22   17   19 1   
    23   17   35 1   
    24   18   36 1   
    25   19   20 1   
    26   19   37 1   
    27   19   38 1   
    28   20   21 1   
    29   20   39 1   
    30   21   22 1   
    31   21   31 1   
    32   22   23 2   
    33   22   40 1   
    34   23   24 1   
    35   24   25 1   
    36   24   31 2   
    37   25   26 2   
    38   25   27 1   
    39   27   28 1   
    40   27   43 1   
    41   28   29 1   
    42   28   30 2   
    43   29   41 1   
    44   29   42 1   
    45   29   44 1   
    46   30   31 1   
@<TRIPOS>SUBSTRUCTURE
     1 DGT         1 TEMP              0 ****  ****    0 ROOT
