@<TRIPOS>MOLECULE
DGU
   22    20     1     0     0
SMALL
bcc


@<TRIPOS>ATOM
      1 OAA        -0.9390    1.8640   -3.2910 o         1 DGU     -0.315000
      2 OAB         0.3000    2.4450   -1.0280 oh        1 DGU     -0.323000
      3 OAC        -0.0450   -2.4430    1.0110 oh        1 DGU     -0.354000
      4 OAD         0.7820   -1.4360    3.4540 o         1 DGU     -0.561000
      5 CAE        -1.4760    1.4580   -2.2780 c1        1 DGU      0.170000
      6 CAF        -0.7280    1.4850   -0.9640 c2        1 DGU     -0.067000
      7 CAG        -0.1290    0.1230   -0.6960 c3        1 DGU     -0.001000
      8 CAH         0.0370   -0.0700    0.7940 c3        1 DGU     -0.002000
      9 CAI         0.8220   -1.3360    1.0530 c3        1 DGU     -0.082000
     10 CAJ         1.4720   -1.2550    2.4160 c2        1 DGU      0.312000
     11 OAK         1.1270    0.0310   -1.3250 oh        1 DGU     -0.321000
     12 OAL        -1.2300   -0.1720    1.3990 oh        1 DGU     -0.380000
     13 OAM         2.7020   -1.0090    2.5140 o         1 DGU     -0.561000
     14 HOAB       -0.0350    3.2500   -0.8550 ho        1 DGU      0.211000
     15 HOAC        0.4310   -3.1910    0.9460 ho        1 DGU      0.218000
     16 HAE        -2.3900    1.1130   -2.3130 ha        1 DGU      0.118000
     17 HAF        -1.3450    1.7170   -0.2420 h4        1 DGU      0.149000
     18 HAG        -0.7230   -0.5690   -1.0500 h1        1 DGU      0.137000
     19 HAH         0.5170    0.6940    1.1700 h1        1 DGU      0.082000
     20 HAI         1.5130   -1.4360    0.3690 h1        1 DGU      0.115000
     21 HOAK        1.0660   -0.5050   -2.0320 ho        1 DGU      0.204000
     22 HOAL       -1.7280   -0.7560    0.9480 ho        1 DGU      0.254000
@<TRIPOS>BOND
     1    1    5 1   
     2    2    6 1   
     3    2   14 1   
     4    3    9 1   
     5    3   15 1   
     6    4   10 1   
     7    5   16 1   
     8    6    7 1   
     9    6   17 1   
    10    7    8 1   
    11    7   11 1   
    12    7   18 1   
    13    8    9 1   
    14    8   12 1   
    15    8   19 1   
    16    9   10 1   
    17    9   20 1   
    18   10   13 1   
    19   11   21 1   
    20   12   22 1   
@<TRIPOS>SUBSTRUCTURE
     1 DGU         1 TEMP              0 ****  ****    0 ROOT
