@<TRIPOS>MOLECULE
DGU
   22    21     1     0     0
SMALL
bcc


@<TRIPOS>ATOM
      1 OAA        -3.9810   -0.9310    0.9340 o         1 DGU     -0.554100
      2 OAB        -3.0790    1.1210   -0.6740 oh        1 DGU     -0.595800
      3 OAC         1.2420   -1.9910   -0.0350 oh        1 DGU     -0.626800
      4 CAE        -2.8300   -0.5240    1.1070 c         1 DGU      0.551900
      5 CAF        -2.1750    0.5110    0.2270 c3        1 DGU     -0.005900
      6 CAG        -0.9950   -0.1350   -0.5340 c3        1 DGU      0.110100
      7 CAH         0.3490    0.2470    0.1080 c3        1 DGU      0.109100
      8 CAI         1.4840   -0.6490   -0.4160 c3        1 DGU     -0.020900
      9 CAJ         2.8230   -0.1380    0.1820 c         1 DGU      0.892600
     10 OAK        -1.0590    0.2540   -1.8920 oh        1 DGU     -0.593800
     11 OAL         0.1830    0.1260    1.5140 oh        1 DGU     -0.652800
     12 OAM         3.0520   -0.5160    1.3710 o         1 DGU     -0.826300
     13 HAE        -2.1750   -0.8990    1.9250 h4        1 DGU      0.025200
     14 HAF        -1.8080    1.3580    0.8760 h1        1 DGU      0.109700
     15 HAG        -1.0870   -1.2570   -0.5580 h1        1 DGU      0.097700
     16 HAH         0.5920    1.3210   -0.1310 h1        1 DGU      0.042700
     17 HAI         1.4900   -0.6360   -1.5360 h1        1 DGU      0.075700
     18 HOAK       -0.9260    1.2100   -1.9230 ho        1 DGU      0.405000
     19 HOAL        1.0570   -0.0900    1.8870 ho        1 DGU      0.455000
     20 HOAB       -3.3680    0.4350   -1.2910 ho        1 DGU      0.412000
     21 OAD         3.5580    0.6080   -0.5090 o         1 DGU     -0.826300
     22 HOAC        1.6820   -2.1160    0.8220 ho        1 DGU      0.419000
@<TRIPOS>BOND
     1    1    4 2   
     2    2    5 1   
     3    2   20 1   
     4    3    8 1   
     5    3   22 1   
     6    4    5 1   
     7    4   13 1   
     8    5    6 1   
     9    5   14 1   
    10    6    7 1   
    11    6   10 1   
    12    6   15 1   
    13    7    8 1   
    14    7   11 1   
    15    7   16 1   
    16    8    9 1   
    17    8   17 1   
    18    9   12 1   
    19    9   21 1   
    20   10   18 1   
    21   11   19 1   
@<TRIPOS>SUBSTRUCTURE
     1 DGU         1 TEMP              0 ****  ****    0 ROOT
