@<TRIPOS>MOLECULE
DGU
   22    21     1     0     0
SMALL
bcc


@<TRIPOS>ATOM
      1 OAA        -0.4860    0.2000    0.9040 o         1 DGU     -0.568100
      2 OAB         1.0810   -2.0430    0.9570 oh        1 DGU     -0.607800
      3 OAC         5.9840    1.6370    2.7760 oh        1 DGU     -0.612800
      4 CAE         0.7360    0.3770    0.9430 c         1 DGU      0.532900
      5 CAF         1.6930   -0.7740    1.0830 c3        1 DGU     -0.006600
      6 CAG         3.7900    1.8960    1.7110 cx        1 DGU      0.043100
      7 CAH         3.5550    1.6040    3.1850 cx        1 DGU      0.043100
      8 CAI         4.7940    2.3690    2.7470 cx        1 DGU     -0.060200
      9 CAJ         4.9430    3.8490    3.1110 c         1 DGU      0.931600
     10 OAK         2.9520    2.7760    1.0380 oh        1 DGU     -0.604800
     11 OAL         3.6400    0.2790    3.6170 oh        1 DGU     -0.604800
     12 OAM         6.0870    4.2120    3.4990 o         1 DGU     -0.820800
     13 HAE         2.2110   -0.6960    2.0830 h1        1 DGU      0.087200
     14 HAF         1.2050    1.3870    0.9010 h4        1 DGU      0.060200
     15 HAG         2.4670   -0.7310    0.2690 h1        1 DGU      0.087200
     16 HAH         4.0580    1.0660    1.0280 h1        1 DGU      0.096200
     17 HAI         2.7600    2.1280    3.7480 h1        1 DGU      0.096200
     18 HOAK        2.9710    3.6300    1.5100 ho        1 DGU      0.436500
     19 HOAL        4.5620    0.0070    3.5050 ho        1 DGU      0.436500
     20 HOAB        0.1840   -1.9660    1.3110 ho        1 DGU      0.410000
     21 OAD         3.9310    4.5960    2.9950 o         1 DGU     -0.820800
     22 HOAC        6.6670    2.2460    3.1120 ho        1 DGU      0.446000
@<TRIPOS>BOND
     1    1    4 2   
     2    2    5 1   
     3    2   20 1   
     4    3    8 1   
     5    3   22 1   
     6    4    5 1   
     7    4   14 1   
     8    5   13 1   
     9    5   15 1   
    10    6    7 1   
    11    6    8 1   
    12    6   10 1   
    13    6   16 1   
    14    7    8 1   
    15    7   11 1   
    16    7   17 1   
    17    8    9 1   
    18    9   12 1   
    19    9   21 1   
    20   10   18 1   
    21   11   19 1   
@<TRIPOS>SUBSTRUCTURE
     1 DGU         1 TEMP              0 ****  ****    0 ROOT
