@<TRIPOS>MOLECULE
DGU
   22    19     1     0     0
SMALL
bcc


@<TRIPOS>ATOM
      1 OAA         2.2090   -1.4500    2.6090 o         1 DGU     -0.363000
      2 OAB         1.0830   -0.3560    0.3590 oh        1 DGU     -0.349000
      3 OAC         5.7460    3.7750    1.3300 oh        1 DGU     -0.185000
      4 CAE         2.9670   -1.1970    1.6650 c2        1 DGU      0.188000
      5 CAF         2.4860   -0.5290    0.4070 c3        1 DGU     -0.096000
      6 CAG         2.0120    3.1710    3.6280 c2        1 DGU     -0.115500
      7 CAH         2.0550    1.9250    3.1160 c2        1 DGU     -0.115500
      8 CAI         5.2120    2.9750    2.2200 c1        1 DGU     -0.134000
      9 CAJ         5.6440    1.5290    2.1360 c2        1 DGU      0.313000
     10 OAK         3.0540    4.0490    3.5870 oh        1 DGU     -0.326000
     11 OAL         0.8990    1.1590    3.1390 oh        1 DGU     -0.326000
     12 OAM         6.7260    1.1800    2.6760 o         1 DGU     -0.566000
     13 HAE         2.7350   -1.1620   -0.4850 h1        1 DGU      0.123000
     14 HAF         4.0600   -1.4020    1.7040 h4        1 DGU      0.145000
     15 HAG         3.0130    0.4660    0.3250 h1        1 DGU      0.123000
     16 HAH         1.1260    3.6240    4.0950 h4        1 DGU      0.156500
     17 HAI         2.9430    1.4640    2.6450 h4        1 DGU      0.156500
     18 HOAK        3.8650    3.5920    3.2040 ho        1 DGU      0.252000
     19 HOAL        1.1740    0.2730    3.4220 ho        1 DGU      0.252000
     20 HOAB        0.8260    0.0870    1.1810 ho        1 DGU      0.222000
     21 OAD         4.8180    0.7360    1.5880 o         1 DGU     -0.566000
     22 HOAC        5.3770    4.6680    1.4750 ho        1 DGU      0.209000
@<TRIPOS>BOND
     1    1    4 1   
     2    2    5 1   
     3    2   20 1   
     4    3    8 1   
     5    3   22 1   
     6    4    5 1   
     7    4   14 1   
     8    5   13 1   
     9    5   15 1   
    10    6    7 1   
    11    6   10 1   
    12    6   16 1   
    13    7   11 1   
    14    7   17 1   
    15    8    9 1   
    16    9   12 1   
    17    9   21 1   
    18   10   18 1   
    19   11   19 1   
@<TRIPOS>SUBSTRUCTURE
     1 DGU         1 TEMP              0 ****  ****    0 ROOT
