@<TRIPOS>MOLECULE
DGV
   66    69     1     0     0
SMALL
bcc


@<TRIPOS>ATOM
      1 CLAY       -0.0740   -0.4300    0.3290 cl        1 DGV     -0.090400
      2 CBA         1.5970   -0.6690    0.0780 ca        1 DGV      0.026400
      3 CBB         2.3370   -1.0280    1.2120 ca        1 DGV     -0.120000
      4 CBF         3.7070   -1.2450    1.1110 ca        1 DGV     -0.109000
      5 CBE         4.3400   -1.1030   -0.1200 ca        1 DGV     -0.120000
      6 CBD         3.5960   -0.7440   -1.2480 ca        1 DGV      0.026400
      7 CLBC        4.4570   -0.5940   -2.7130 cl        1 DGV     -0.090400
      8 CAZ         2.2050   -0.5180   -1.1810 ca        1 DGV     -0.059300
      9 CAX         1.4620   -0.1380   -2.4230 c3        1 DGV     -0.025400
     10 CAU         0.8310    1.2440   -2.3330 c3        1 DGV     -0.075900
     11 CAT         0.1460    1.5970   -3.6530 c3        1 DGV      0.176300
     12 CAW         0.4150   -1.1670   -2.8230 c3        1 DGV     -0.075900
     13 CAV        -0.2630   -0.7580   -4.1300 c3        1 DGV      0.176300
     14 NAS        -0.8140    0.5920   -4.0910 n3        1 DGV     -0.746600
     15 CAR        -1.4930    0.9620   -5.3180 c3        1 DGV      0.189800
     16 CAQ        -2.7390    1.8160   -5.0280 c3        1 DGV     -0.117400
     17 CAP        -3.4550    2.0850   -6.3430 c3        1 DGV      0.099800
     18 NAO        -4.6970    2.8910   -6.1560 n4        1 DGV     -0.686800
     19 C          -5.4460    3.1860   -7.4470 c         1 DGV      0.500100
     20 O          -4.9380    2.7820   -8.4760 o         1 DGV     -0.400100
     21 CD         -8.7050    3.1560   -8.3870 c3        1 DGV      0.163800
     22 CG         -8.1510    4.2920   -9.2600 c3        1 DGV     -0.093400
     23 CB         -6.9710    4.8810   -8.4960 c3        1 DGV     -0.084400
     24 CA         -6.7710    3.9640   -7.2620 c3        1 DGV      0.147500
     25 N          -7.9460    3.1280   -7.1350 n3        1 DGV     -0.730600
     26 CAG        -7.7750    1.8400   -6.4940 c3        1 DGV      0.234100
     27 CAF        -9.0150    1.0000   -6.4700 ca        1 DGV     -0.125300
     28 CAE       -10.0510    1.3100   -5.5820 ca        1 DGV     -0.110500
     29 CAD       -11.1880    0.5050   -5.5320 ca        1 DGV     -0.123000
     30 CAA       -11.2940   -0.6090   -6.3650 ca        1 DGV     -0.102000
     31 CAB       -10.2620   -0.9170   -7.2530 ca        1 DGV     -0.123000
     32 CAC        -9.1250   -0.1130   -7.3100 ca        1 DGV     -0.110500
     33 H1          1.8330   -1.1400    2.1850 ha        1 DGV      0.157000
     34 H2          4.2890   -1.5280    2.0020 ha        1 DGV      0.152000
     35 H3          5.4250   -1.2740   -0.2060 ha        1 DGV      0.157000
     36 H4          2.2050   -0.0930   -3.2780 hc        1 DGV      0.068700
     37 H5          0.0860    1.2860   -1.4980 hc        1 DGV      0.064450
     38 H6          1.6210    2.0130   -2.1300 hc        1 DGV      0.064450
     39 H7         -0.4150    2.5650   -3.5180 h1        1 DGV      0.031450
     40 H8          0.9420    1.7710   -4.4370 h1        1 DGV      0.031450
     41 H9          0.9000   -2.1650   -2.9780 hc        1 DGV      0.064450
     42 H10        -0.3560   -1.2810   -2.0180 hc        1 DGV      0.064450
     43 H11         0.4800   -0.8700   -4.9730 h1        1 DGV      0.031450
     44 H12        -1.1150   -1.4690   -4.3250 h1        1 DGV      0.031450
     45 H14        -0.8250    1.5430   -6.0190 h1        1 DGV      0.042200
     46 H15        -1.8260    0.0320   -5.8620 h1        1 DGV      0.042200
     47 H16        -3.4100    1.2680   -4.3150 hc        1 DGV      0.072200
     48 H17        -2.4320    2.7790   -4.5420 hc        1 DGV      0.072200
     49 H18        -2.7830    2.6490   -7.0530 hx        1 DGV      0.110200
     50 H19        -3.7490    1.1150   -6.8400 hx        1 DGV      0.110200
     51 H20        -5.3360    2.3880   -5.5270 hn        1 DGV      0.455800
     52 H23        -7.8280    3.8970  -10.2550 hc        1 DGV      0.076200
     53 H24        -8.9360    5.0680   -9.4380 hc        1 DGV      0.076200
     54 H25        -6.0530    4.9230   -9.1310 hc        1 DGV      0.078700
     55 H26        -7.2000    5.9180   -8.1420 hc        1 DGV      0.078700
     56 H27        -6.6790    4.5800   -6.3200 h1        1 DGV      0.084700
     57 H29        -6.9450    1.2450   -6.9870 h1        1 DGV      0.021200
     58 H30        -7.4670    2.0470   -5.4260 h1        1 DGV      0.021200
     59 H31        -9.9690    2.1910   -4.9280 ha        1 DGV      0.134500
     60 H32       -12.0020    0.7490   -4.8320 ha        1 DGV      0.147500
     61 H33       -12.1910   -1.2460   -6.3220 ha        1 DGV      0.150000
     62 H34       -10.3460   -1.7950   -7.9120 ha        1 DGV      0.147500
     63 H35        -8.3160   -0.3590   -8.0140 ha        1 DGV      0.134500
     64 H21        -9.7790    3.3450   -8.1110 h1        1 DGV      0.073200
     65 HAO2       -4.4550    3.7820   -5.7100 hn        1 DGV      0.455800
     66 H22        -8.6520    2.1720   -8.9300 h1        1 DGV      0.073200
@<TRIPOS>BOND
     1    1    2 1   
     2    2    3 ar  
     3    2    8 ar  
     4    3    4 ar  
     5    3   33 1   
     6    4    5 ar  
     7    4   34 1   
     8    5    6 ar  
     9    5   35 1   
    10    6    7 1   
    11    6    8 ar  
    12    8    9 1   
    13    9   10 1   
    14    9   12 1   
    15    9   36 1   
    16   10   11 1   
    17   10   37 1   
    18   10   38 1   
    19   11   14 1   
    20   11   39 1   
    21   11   40 1   
    22   12   13 1   
    23   12   41 1   
    24   12   42 1   
    25   13   14 1   
    26   13   43 1   
    27   13   44 1   
    28   14   15 1   
    29   15   16 1   
    30   15   45 1   
    31   15   46 1   
    32   16   17 1   
    33   16   47 1   
    34   16   48 1   
    35   17   18 1   
    36   17   49 1   
    37   17   50 1   
    38   18   19 1   
    39   18   51 1   
    40   18   65 1   
    41   19   20 2   
    42   19   24 1   
    43   21   22 1   
    44   21   25 1   
    45   21   64 1   
    46   21   66 1   
    47   22   23 1   
    48   22   52 1   
    49   22   53 1   
    50   23   24 1   
    51   23   54 1   
    52   23   55 1   
    53   24   25 1   
    54   24   56 1   
    55   25   26 1   
    56   26   27 1   
    57   26   57 1   
    58   26   58 1   
    59   27   28 ar  
    60   27   32 ar  
    61   28   29 ar  
    62   28   59 1   
    63   29   30 ar  
    64   29   60 1   
    65   30   31 ar  
    66   30   61 1   
    67   31   32 ar  
    68   31   62 1   
    69   32   63 1   
@<TRIPOS>SUBSTRUCTURE
     1 DGV         1 TEMP              0 ****  ****    0 ROOT
