@<TRIPOS>MOLECULE
DGV
   66    69     1     0     0
SMALL
bcc


@<TRIPOS>ATOM
      1 ClAY       -0.0790   -0.4180    0.3360 cl        1 DGV     -0.090400
      2 CBA         1.5920   -0.6610    0.0870 ca        1 DGV      0.026400
      3 CBB         2.3300   -1.0190    1.2220 ca        1 DGV     -0.120000
      4 CBF         3.7000   -1.2390    1.1220 ca        1 DGV     -0.109000
      5 CBE         4.3330   -1.1020   -0.1100 ca        1 DGV     -0.120000
      6 CBD         3.5900   -0.7450   -1.2390 ca        1 DGV      0.026400
      7 ClBC        4.4520   -0.6020   -2.7040 cl        1 DGV     -0.090400
      8 CAZ         2.2000   -0.5150   -1.1730 ca        1 DGV     -0.059300
      9 CAX         1.4580   -0.1380   -2.4170 c3        1 DGV     -0.025400
     10 CAU         0.8300    1.2460   -2.3310 c3        1 DGV     -0.075900
     11 CAT         0.1460    1.5970   -3.6520 c3        1 DGV      0.176300
     12 CAW         0.4090   -1.1660   -2.8130 c3        1 DGV     -0.075900
     13 CAV        -0.2680   -0.7590   -4.1220 c3        1 DGV      0.176300
     14 NAS        -0.8160    0.5920   -4.0870 n3        1 DGV     -0.746600
     15 CAR        -1.4940    0.9590   -5.3160 c3        1 DGV      0.189800
     16 CAQ        -2.7380    1.8160   -5.0290 c3        1 DGV     -0.117400
     17 CAP        -3.4530    2.0830   -6.3450 c3        1 DGV      0.099800
     18 NAO        -4.6940    2.8910   -6.1600 ny        1 DGV     -0.686800
     19 C          -5.4420    3.1840   -7.4530 c         1 DGV      0.500100
     20 O          -4.9330    2.7790   -8.4810 o         1 DGV     -0.400100
     21 CD         -8.7000    3.1510   -8.3960 c3        1 DGV      0.163800
     22 CG         -8.1460    4.2850   -9.2700 c3        1 DGV     -0.093400
     23 CB         -6.9660    4.8770   -8.5060 c3        1 DGV     -0.084400
     24 CA         -6.7670    3.9620   -7.2700 c3        1 DGV      0.147500
     25 N          -7.9420    3.1260   -7.1430 n3        1 DGV     -0.730600
     26 CAG        -7.7710    1.8400   -6.4980 c3        1 DGV      0.234100
     27 CAF        -9.0120    1.0000   -6.4740 ca        1 DGV     -0.125300
     28 CAE       -10.0480    1.3120   -5.5890 ca        1 DGV     -0.110500
     29 CAD       -11.1850    0.5060   -5.5370 ca        1 DGV     -0.123000
     30 CAA       -11.2900   -0.6110   -6.3670 ca        1 DGV     -0.102000
     31 CAB       -10.2570   -0.9210   -7.2530 ca        1 DGV     -0.123000
     32 CAC        -9.1190   -0.1170   -7.3100 ca        1 DGV     -0.110500
     33 H1          1.8260   -1.1260    2.1950 ha        1 DGV      0.157000
     34 H2          4.2810   -1.5200    2.0140 ha        1 DGV      0.152000
     35 H3          5.4180   -1.2760   -0.1940 ha        1 DGV      0.157000
     36 H4          2.2020   -0.0970   -3.2710 hc        1 DGV      0.068700
     37 H5          0.0850    1.2920   -1.4960 hc        1 DGV      0.064450
     38 H6          1.6210    2.0130   -2.1300 hc        1 DGV      0.064450
     39 H7          0.9430    1.7660   -4.4360 h1        1 DGV      0.031450
     40 H8         -0.4130    2.5660   -3.5210 h1        1 DGV      0.031450
     41 H9          0.8920   -2.1660   -2.9650 hc        1 DGV      0.064450
     42 H10        -0.3620   -1.2750   -2.0080 hc        1 DGV      0.064450
     43 H11         0.4760   -0.8760   -4.9640 h1        1 DGV      0.031450
     44 H12        -1.1220   -1.4690   -4.3150 h1        1 DGV      0.031450
     45 H14        -0.8240    1.5370   -6.0180 h1        1 DGV      0.042200
     46 H15        -1.8280    0.0290   -5.8570 h1        1 DGV      0.042200
     47 H16        -3.4110    1.2710   -4.3150 hc        1 DGV      0.072200
     48 H17        -2.4300    2.7800   -4.5450 hc        1 DGV      0.072200
     49 H18        -2.7800    2.6440   -7.0560 hx        1 DGV      0.110200
     50 H19        -3.7480    1.1130   -6.8390 hx        1 DGV      0.110200
     51 H20        -5.3340    2.3910   -5.5300 hn        1 DGV      0.455800
     52 H23        -7.8220    3.8890  -10.2640 hc        1 DGV      0.076200
     53 H24        -8.9310    5.0610   -9.4500 hc        1 DGV      0.076200
     54 H25        -6.0480    4.9170   -9.1410 hc        1 DGV      0.078700
     55 H26        -7.1960    5.9140   -8.1540 hc        1 DGV      0.078700
     56 H27        -6.6760    4.5800   -6.3300 h1        1 DGV      0.084700
     57 H29        -7.4650    2.0490   -5.4300 h1        1 DGV      0.021200
     58 H30        -6.9410    1.2430   -6.9900 h1        1 DGV      0.021200
     59 H31        -9.9680    2.1950   -4.9370 ha        1 DGV      0.134500
     60 H32       -12.0000    0.7520   -4.8400 ha        1 DGV      0.147500
     61 H33       -12.1870   -1.2470   -6.3240 ha        1 DGV      0.150000
     62 H34       -10.3390   -1.8010   -7.9090 ha        1 DGV      0.147500
     63 H35        -8.3100   -0.3650   -8.0130 ha        1 DGV      0.134500
     64 H21        -9.7750    3.3400   -8.1200 h1        1 DGV      0.073200
     65 HAO2       -4.4510    3.7840   -5.7160 hn        1 DGV      0.455800
     66 H22        -8.6470    2.1660   -8.9360 h1        1 DGV      0.073200
@<TRIPOS>BOND
     1    1    2 1   
     2    2    3 ar  
     3    2    8 ar  
     4    3    4 ar  
     5    3   33 1   
     6    4    5 ar  
     7    4   34 1   
     8    5    6 ar  
     9    5   35 1   
    10    6    7 1   
    11    6    8 ar  
    12    8    9 1   
    13    9   10 1   
    14    9   12 1   
    15    9   36 1   
    16   10   11 1   
    17   10   37 1   
    18   10   38 1   
    19   11   14 1   
    20   11   39 1   
    21   11   40 1   
    22   12   13 1   
    23   12   41 1   
    24   12   42 1   
    25   13   14 1   
    26   13   43 1   
    27   13   44 1   
    28   14   15 1   
    29   15   16 1   
    30   15   45 1   
    31   15   46 1   
    32   16   17 1   
    33   16   47 1   
    34   16   48 1   
    35   17   18 1   
    36   17   49 1   
    37   17   50 1   
    38   18   19 1   
    39   18   51 1   
    40   18   65 1   
    41   19   20 2   
    42   19   24 1   
    43   21   22 1   
    44   21   25 1   
    45   21   64 1   
    46   21   66 1   
    47   22   23 1   
    48   22   52 1   
    49   22   53 1   
    50   23   24 1   
    51   23   54 1   
    52   23   55 1   
    53   24   25 1   
    54   24   56 1   
    55   25   26 1   
    56   26   27 1   
    57   26   57 1   
    58   26   58 1   
    59   27   28 ar  
    60   27   32 ar  
    61   28   29 ar  
    62   28   59 1   
    63   29   30 ar  
    64   29   60 1   
    65   30   31 ar  
    66   30   61 1   
    67   31   32 ar  
    68   31   62 1   
    69   32   63 1   
@<TRIPOS>SUBSTRUCTURE
     1 DGV         1 TEMP              0 ****  ****    0 ROOT
