@<TRIPOS>MOLECULE
DGW
   57    60     1     0     0
SMALL
bcc


@<TRIPOS>ATOM
      1 CLAC        0.7190   -0.1190    0.7170 cl        1 DGW     -0.087400
      2 CAT         2.3400   -0.0200    0.1980 ca        1 DGW      0.024900
      3 CAH         3.3030   -0.0010    1.2150 ca        1 DGW     -0.125000
      4 CAE         4.6540    0.0770    0.8970 ca        1 DGW     -0.118000
      5 CAI         5.0460    0.1370   -0.4370 ca        1 DGW     -0.125000
      6 CAU         4.0800    0.1180   -1.4470 ca        1 DGW      0.024900
      7 CLAD        4.6590    0.1960   -3.0510 cl        1 DGW     -0.087400
      8 CAX         2.7010    0.0390   -1.1600 ca        1 DGW     -0.045300
      9 CBA         1.7140    0.0220   -2.2860 c3        1 DGW     -0.029400
     10 CAM         0.9060   -1.2670   -2.3470 c3        1 DGW     -0.074400
     11 CAO        -0.0300   -1.2440   -3.5550 c3        1 DGW      0.172300
     12 CAN         0.7790    1.2230   -2.2730 c3        1 DGW     -0.074400
     13 CAP        -0.1560    1.1790   -3.4810 c3        1 DGW      0.172300
     14 NBB        -0.8950   -0.0720   -3.5950 n3        1 DGW     -0.734600
     15 CAR        -1.7840   -0.0740   -4.7500 c3        1 DGW      0.172800
     16 CAZ        -2.9860   -1.0290   -4.6180 c3        1 DGW     -0.059700
     17 CAQ        -3.6660   -1.1080   -5.9770 c3        1 DGW     -0.074400
     18 CAY        -4.7480   -2.1890   -6.0090 c3        1 DGW      0.190400
     19 OAB        -4.8080   -2.6360   -7.3600 oh        1 DGW     -0.600800
     20 CAV        -6.0690   -1.6700   -5.5140 ca        1 DGW     -0.115300
     21 CAJ        -7.1380   -1.4990   -6.3960 ca        1 DGW     -0.127000
     22 CAF        -8.3660   -1.0350   -5.9280 ca        1 DGW     -0.130000
     23 CAG        -8.5250   -0.7350   -4.5790 ca        1 DGW     -0.128000
     24 CAS        -7.4580   -0.8850   -3.6830 ca        1 DGW     -0.074300
     25 CAA        -7.6720   -0.5380   -2.2570 c3        1 DGW     -0.052800
     26 CAW        -6.2180   -1.3530   -4.1510 ca        1 DGW     -0.062300
     27 CAK        -5.0560   -1.5160   -3.2300 c3        1 DGW     -0.041100
     28 CAL        -3.9280   -0.5440   -3.5290 c3        1 DGW     -0.071400
     29 H1          2.9890   -0.0490    2.2690 ha        1 DGW      0.151000
     30 H2          5.4100    0.0920    1.6960 ha        1 DGW      0.143000
     31 H3          6.1140    0.2000   -0.6960 ha        1 DGW      0.151000
     32 H4          2.2900    0.0800   -3.2600 hc        1 DGW      0.066700
     33 H5          0.3080   -1.4040   -1.4110 hc        1 DGW      0.055950
     34 H6          1.5950   -2.1440   -2.4490 hc        1 DGW      0.055950
     35 H7          0.5960   -1.3260   -4.4940 h1        1 DGW      0.030700
     36 H8         -0.6910   -2.1540   -3.5080 h1        1 DGW      0.030700
     37 H9          0.1730    1.2420   -1.3310 hc        1 DGW      0.055950
     38 H10         1.3740    2.1700   -2.3200 hc        1 DGW      0.055950
     39 H11         0.4520    1.3850   -4.4120 h1        1 DGW      0.030700
     40 H12        -0.9090    2.0100   -3.3760 h1        1 DGW      0.030700
     41 H14        -1.2220   -0.3420   -5.6940 h1        1 DGW      0.034200
     42 H15        -2.1940    0.9680   -4.8880 h1        1 DGW      0.034200
     43 H16        -2.6170   -2.0570   -4.3440 hc        1 DGW      0.050700
     44 H17        -4.1170   -0.1180   -6.2410 hc        1 DGW      0.059700
     45 H18        -2.9070   -1.3550   -6.7670 hc        1 DGW      0.059700
     46 H19        -4.4360   -3.0640   -5.3640 h1        1 DGW      0.040700
     47 H20        -5.4710   -3.3360   -7.3930 ho        1 DGW      0.402000
     48 H21        -7.0060   -1.7160   -7.4670 ha        1 DGW      0.140000
     49 H22        -9.2060   -0.9030   -6.6260 ha        1 DGW      0.131000
     50 H23        -9.4960   -0.3710   -4.2120 ha        1 DGW      0.130000
     51 H24        -7.5380   -1.4410   -1.6100 hc        1 DGW      0.044033
     52 H25        -6.9420    0.2440   -1.9300 hc        1 DGW      0.044033
     53 H26        -8.7040   -0.1410   -2.0890 hc        1 DGW      0.044033
     54 H27        -4.6760   -2.5720   -3.2970 hc        1 DGW      0.048700
     55 H28        -5.3780   -1.3640   -2.1650 hc        1 DGW      0.048700
     56 H29        -4.3550    0.4520   -3.8200 hc        1 DGW      0.054700
     57 H30        -3.3380   -0.3920   -2.5860 hc        1 DGW      0.054700
@<TRIPOS>BOND
     1    1    2 1   
     2    2    3 ar  
     3    2    8 ar  
     4    3    4 ar  
     5    3   29 1   
     6    4    5 ar  
     7    4   30 1   
     8    5    6 ar  
     9    5   31 1   
    10    6    7 1   
    11    6    8 ar  
    12    8    9 1   
    13    9   10 1   
    14    9   12 1   
    15    9   32 1   
    16   10   11 1   
    17   10   33 1   
    18   10   34 1   
    19   11   14 1   
    20   11   35 1   
    21   11   36 1   
    22   12   13 1   
    23   12   37 1   
    24   12   38 1   
    25   13   14 1   
    26   13   39 1   
    27   13   40 1   
    28   14   15 1   
    29   15   16 1   
    30   15   41 1   
    31   15   42 1   
    32   16   17 1   
    33   16   28 1   
    34   16   43 1   
    35   17   18 1   
    36   17   44 1   
    37   17   45 1   
    38   18   19 1   
    39   18   20 1   
    40   18   46 1   
    41   19   47 1   
    42   20   21 ar  
    43   20   26 ar  
    44   21   22 ar  
    45   21   48 1   
    46   22   23 ar  
    47   22   49 1   
    48   23   24 ar  
    49   23   50 1   
    50   24   25 1   
    51   24   26 ar  
    52   25   51 1   
    53   25   52 1   
    54   25   53 1   
    55   26   27 1   
    56   27   28 1   
    57   27   54 1   
    58   27   55 1   
    59   28   56 1   
    60   28   57 1   
@<TRIPOS>SUBSTRUCTURE
     1 DGW         1 TEMP              0 ****  ****    0 ROOT
