@<TRIPOS>MOLECULE
DGW
   57    60     1     0     0
SMALL
bcc


@<TRIPOS>ATOM
      1 ClAC        0.7190   -0.1160    0.7150 cl        1 DGW     -0.087400
      2 CAT         2.3400   -0.0220    0.1960 ca        1 DGW      0.024900
      3 CAH         3.3040   -0.0030    1.2130 ca        1 DGW     -0.125000
      4 CAE         4.6550    0.0720    0.8950 ca        1 DGW     -0.118000
      5 CAI         5.0470    0.1280   -0.4390 ca        1 DGW     -0.125000
      6 CAU         4.0810    0.1080   -1.4490 ca        1 DGW      0.024900
      7 ClAD        4.6600    0.1810   -3.0530 cl        1 DGW     -0.087400
      8 CAX         2.7020    0.0330   -1.1620 ca        1 DGW     -0.045300
      9 CBA         1.7150    0.0160   -2.2880 c3        1 DGW     -0.029400
     10 CAM         0.9040   -1.2720   -2.3460 c3        1 DGW     -0.074400
     11 CAO        -0.0320   -1.2490   -3.5540 c3        1 DGW      0.172300
     12 CAN         0.7830    1.2190   -2.2770 c3        1 DGW     -0.074400
     13 CAP        -0.1520    1.1740   -3.4860 c3        1 DGW      0.172300
     14 NBB        -0.8940   -0.0760   -3.5970 n3        1 DGW     -0.734600
     15 CAR        -1.7840   -0.0770   -4.7510 c3        1 DGW      0.172800
     16 CAZ        -2.9870   -1.0300   -4.6180 c3        1 DGW     -0.059700
     17 CAQ        -3.6680   -1.1100   -5.9760 c3        1 DGW     -0.074400
     18 CAY        -4.7530   -2.1880   -6.0060 c3        1 DGW      0.190400
     19 OAB        -4.8140   -2.6380   -7.3560 oh        1 DGW     -0.600800
     20 CAV        -6.0720   -1.6660   -5.5110 ca        1 DGW     -0.115300
     21 CAJ        -7.1410   -1.4940   -6.3930 ca        1 DGW     -0.127000
     22 CAF        -8.3670   -1.0270   -5.9260 ca        1 DGW     -0.130000
     23 CAG        -8.5250   -0.7240   -4.5770 ca        1 DGW     -0.128000
     24 CAS        -7.4590   -0.8750   -3.6810 ca        1 DGW     -0.074300
     25 CAA        -7.6710   -0.5250   -2.2560 c3        1 DGW     -0.052800
     26 CAW        -6.2200   -1.3470   -4.1490 ca        1 DGW     -0.062300
     27 CAK        -5.0580   -1.5110   -3.2280 c3        1 DGW     -0.041100
     28 CAL        -3.9280   -0.5410   -3.5290 c3        1 DGW     -0.071400
     29 H1          2.9890   -0.0480    2.2680 ha        1 DGW      0.151000
     30 H2          5.4110    0.0870    1.6940 ha        1 DGW      0.143000
     31 H3          6.1160    0.1870   -0.6970 ha        1 DGW      0.151000
     32 H4          2.2910    0.0700   -3.2620 hc        1 DGW      0.066700
     33 H5          0.3050   -1.4050   -1.4090 hc        1 DGW      0.055950
     34 H6          1.5910   -2.1510   -2.4460 hc        1 DGW      0.055950
     35 H7          0.5940   -1.3350   -4.4920 h1        1 DGW      0.030700
     36 H8         -0.6950   -2.1580   -3.5050 h1        1 DGW      0.030700
     37 H9          0.1770    1.2420   -1.3360 hc        1 DGW      0.055950
     38 H10         1.3810    2.1650   -2.3270 hc        1 DGW      0.055950
     39 H11         0.4570    1.3760   -4.4170 h1        1 DGW      0.030700
     40 H12        -0.9030    2.0070   -3.3820 h1        1 DGW      0.030700
     41 H14        -2.1910    0.9650   -4.8920 h1        1 DGW      0.034200
     42 H15        -1.2220   -0.3490   -5.6950 h1        1 DGW      0.034200
     43 H16        -2.6200   -2.0580   -4.3420 hc        1 DGW      0.050700
     44 H17        -4.1170   -0.1190   -6.2420 hc        1 DGW      0.059700
     45 H18        -2.9100   -1.3600   -6.7660 hc        1 DGW      0.059700
     46 H19        -4.4420   -3.0630   -5.3600 h1        1 DGW      0.040700
     47 H20        -5.4790   -3.3360   -7.3880 ho        1 DGW      0.402000
     48 H21        -7.0100   -1.7120   -7.4640 ha        1 DGW      0.140000
     49 H22        -9.2070   -0.8940   -6.6230 ha        1 DGW      0.131000
     50 H23        -9.4950   -0.3570   -4.2100 ha        1 DGW      0.130000
     51 H24        -6.9390    0.2550   -1.9300 hc        1 DGW      0.044033
     52 H25        -7.5390   -1.4280   -1.6070 hc        1 DGW      0.044033
     53 H26        -8.7020   -0.1260   -2.0870 hc        1 DGW      0.044033
     54 H27        -4.6800   -2.5680   -3.2940 hc        1 DGW      0.048700
     55 H28        -5.3790   -1.3560   -2.1630 hc        1 DGW      0.048700
     56 H29        -4.3520    0.4550   -3.8220 hc        1 DGW      0.054700
     57 H30        -3.3370   -0.3890   -2.5860 hc        1 DGW      0.054700
@<TRIPOS>BOND
     1    1    2 1   
     2    2    3 ar  
     3    2    8 ar  
     4    3    4 ar  
     5    3   29 1   
     6    4    5 ar  
     7    4   30 1   
     8    5    6 ar  
     9    5   31 1   
    10    6    7 1   
    11    6    8 ar  
    12    8    9 1   
    13    9   10 1   
    14    9   12 1   
    15    9   32 1   
    16   10   11 1   
    17   10   33 1   
    18   10   34 1   
    19   11   14 1   
    20   11   35 1   
    21   11   36 1   
    22   12   13 1   
    23   12   37 1   
    24   12   38 1   
    25   13   14 1   
    26   13   39 1   
    27   13   40 1   
    28   14   15 1   
    29   15   16 1   
    30   15   41 1   
    31   15   42 1   
    32   16   17 1   
    33   16   28 1   
    34   16   43 1   
    35   17   18 1   
    36   17   44 1   
    37   17   45 1   
    38   18   19 1   
    39   18   20 1   
    40   18   46 1   
    41   19   47 1   
    42   20   21 ar  
    43   20   26 ar  
    44   21   22 ar  
    45   21   48 1   
    46   22   23 ar  
    47   22   49 1   
    48   23   24 ar  
    49   23   50 1   
    50   24   25 1   
    51   24   26 ar  
    52   25   51 1   
    53   25   52 1   
    54   25   53 1   
    55   26   27 1   
    56   27   28 1   
    57   27   54 1   
    58   27   55 1   
    59   28   56 1   
    60   28   57 1   
@<TRIPOS>SUBSTRUCTURE
     1 DGW         1 TEMP              0 ****  ****    0 ROOT
