@<TRIPOS>MOLECULE
DGY
   12    11     1     0     0
SMALL
bcc


@<TRIPOS>ATOM
      1 C1          0.1600   -0.0880   -1.1330 c         1 DGY      0.891600
      2 O1          1.3220   -0.4260   -1.4830 o         1 DGY     -0.834300
      3 O2         -0.7020    0.4430   -1.8930 o         1 DGY     -0.834300
      4 C2         -0.2690   -0.3270    0.3400 c3        1 DGY      0.015100
      5 O3         -1.6150    0.0500    0.5680 oh        1 DGY     -0.638800
      6 C3          0.6500    0.4670    1.2680 c3        1 DGY      0.117400
      7 O4          0.7080   -0.1990    2.5250 oh        1 DGY     -0.611800
      8 H2         -0.1980   -1.4210    0.5870 h1        1 DGY      0.054700
      9 H3         -1.9150    0.5180   -0.2300 ho        1 DGY      0.420000
     10 H3C1        0.2500    1.5050    1.4190 h1        1 DGY      0.026700
     11 H3C2        1.6770    0.5140    0.8150 h1        1 DGY      0.026700
     12 H4          1.3900    0.2520    3.0330 ho        1 DGY      0.367000
@<TRIPOS>BOND
     1    1    2 1   
     2    1    3 1   
     3    1    4 1   
     4    4    5 1   
     5    4    6 1   
     6    4    8 1   
     7    5    9 1   
     8    6    7 1   
     9    6   10 1   
    10    6   11 1   
    11    7   12 1   
@<TRIPOS>SUBSTRUCTURE
     1 DGY         1 TEMP              0 ****  ****    0 ROOT
