@<TRIPOS>MOLECULE
DGY
   12    11     1     0     0
SMALL
bcc


@<TRIPOS>ATOM
      1 C1          0.1120   -0.2030   -0.1120 c         1 DGY      0.891600
      2 O1         -0.4170   -0.1970   -1.2550 o         1 DGY     -0.834300
      3 O2         -0.5180   -0.3170    0.9800 o         1 DGY     -0.834300
      4 C2          1.6550   -0.0580   -0.0090 c3        1 DGY      0.015100
      5 O3          2.1060   -0.1390    1.3320 oh        1 DGY     -0.638800
      6 C3          2.0760    1.2830   -0.6100 c3        1 DGY      0.117400
      7 O4          3.4080    1.1610   -1.0990 oh        1 DGY     -0.611800
      8 H2          2.1560   -0.8940   -0.5660 h1        1 DGY      0.054700
      9 H3          1.3160   -0.1180    1.8970 ho        1 DGY      0.420000
     10 H3C1        1.3830    1.5390   -1.4570 h1        1 DGY      0.026700
     11 H3C2        2.0420    2.0890    0.1690 h1        1 DGY      0.026700
     12 H4          3.5890    1.9740   -1.5810 ho        1 DGY      0.367000
@<TRIPOS>BOND
     1    1    2 1   
     2    1    3 1   
     3    1    4 1   
     4    4    5 1   
     5    4    6 1   
     6    4    8 1   
     7    5    9 1   
     8    6    7 1   
     9    6   10 1   
    10    6   11 1   
    11    7   12 1   
@<TRIPOS>SUBSTRUCTURE
     1 DGY         1 TEMP              0 ****  ****    0 ROOT
