@<TRIPOS>MOLECULE
DGY
   12    11     1     0     0
SMALL
bcc


@<TRIPOS>ATOM
      1 C1          0.1000   -0.1770   -0.1160 c         1 DGY      0.891600
      2 O1         -0.4440   -0.1200   -1.2500 o         1 DGY     -0.834300
      3 O2         -0.5180   -0.3180    0.9800 o         1 DGY     -0.834300
      4 C2          1.6460   -0.0650   -0.0300 c3        1 DGY      0.015100
      5 O3          2.1140   -0.2020    1.3010 oh        1 DGY     -0.638800
      6 C3          2.0850    1.2870   -0.5900 c3        1 DGY      0.117400
      7 O4          3.4080    1.1570   -1.1020 oh        1 DGY     -0.611800
      8 H2          2.1230   -0.8910   -0.6230 h1        1 DGY      0.054700
      9 H3          1.3310   -0.1860    1.8770 ho        1 DGY      0.420000
     10 H3C1        1.3860    1.5860   -1.4170 h1        1 DGY      0.026700
     11 H3C2        2.0780    2.0660    0.2180 h1        1 DGY      0.026700
     12 H4          3.5980    1.9820   -1.5580 ho        1 DGY      0.367000
@<TRIPOS>BOND
     1    1    2 1   
     2    1    3 1   
     3    1    4 1   
     4    4    5 1   
     5    4    6 1   
     6    4    8 1   
     7    5    9 1   
     8    6    7 1   
     9    6   10 1   
    10    6   11 1   
    11    7   12 1   
@<TRIPOS>SUBSTRUCTURE
     1 DGY         1 TEMP              0 ****  ****    0 ROOT
