@<TRIPOS>MOLECULE
DGY
   12    10     1     0     0
SMALL
bcc


@<TRIPOS>ATOM
      1 C1         -1.4140   -0.5860    0.0440 c1        1 DGY      0.311000
      2 O1         -2.0260   -1.0250   -0.9650 os        1 DGY     -0.544000
      3 O2         -2.0590   -0.1010    1.0100 o         1 DGY     -0.596000
      4 C2          0.0960   -0.6400    0.0950 c3        1 DGY     -0.086000
      5 O3          0.5200   -0.6640    1.4370 oh        1 DGY     -0.356000
      6 C3          0.6680    0.5790   -0.5930 c3        1 DGY     -0.024000
      7 O4          0.3300    1.7350    0.1410 oh        1 DGY     -0.373000
      8 H2          0.4090   -1.4470   -0.3600 h1        1 DGY      0.097000
      9 H3          0.8990   -1.4480    1.6150 ho        1 DGY      0.215000
     10 H3C1        1.6430    0.4980   -0.6430 h1        1 DGY      0.059500
     11 H3C2        0.2990    0.6460   -1.4980 h1        1 DGY      0.059500
     12 H4          0.6340    2.4550   -0.2830 ho        1 DGY      0.237000
@<TRIPOS>BOND
     1    1    3 1   
     2    1    4 1   
     3    4    5 1   
     4    4    6 1   
     5    4    8 1   
     6    5    9 1   
     7    6    7 1   
     8    6   10 1   
     9    6   11 1   
    10    7   12 1   
@<TRIPOS>SUBSTRUCTURE
     1 DGY         1 TEMP              0 ****  ****    0 ROOT
