@<TRIPOS>MOLECULE
DH1
   46    47     1     0     0
SMALL
bcc


@<TRIPOS>ATOM
      1 C16         2.8350    3.6960    1.0460 c3        1 DH1      0.115700
      2 O1          2.8010    2.6490    0.0850 os        1 DH1     -0.334900
      3 C2'         1.5870    1.9910   -0.0540 ca        1 DH1      0.081100
      4 C3'         0.4090    2.3970    0.5770 ca        1 DH1     -0.160000
      5 C4'        -0.7810    1.7060    0.3510 ca        1 DH1     -0.177000
      6 C5'        -0.7880    0.6140   -0.5230 ca        1 DH1      0.122100
      7 O5'        -1.8960   -0.1390   -0.8340 os        1 DH1     -0.333900
      8 C52        -3.1220    0.2470   -0.1890 c3        1 DH1      0.126400
      9 C1         -4.1850   -0.7210   -0.6740 c3        1 DH1     -0.084400
     10 C3         -5.5030   -0.4210    0.0090 c3        1 DH1     -0.066400
     11 C7         -6.6030   -1.3400   -0.4610 c3        1 DH1     -0.196400
     12 C8         -7.9690   -0.9000    0.1000 c         1 DH1      0.908600
     13 O9         -8.7750   -1.8070    0.4520 o         1 DH1     -0.850300
     14 O10        -8.2230    0.3380    0.1660 o         1 DH1     -0.850300
     15 C6'         0.4000    0.2070   -1.1630 ca        1 DH1     -0.158000
     16 C1'         1.5970    0.8730   -0.9190 ca        1 DH1     -0.074300
     17 C51         2.8560    0.4350   -1.5910 c3        1 DH1      0.040200
     18 C5          3.8080   -0.2510   -0.6820 ca        1 DH1     -0.397900
     19 C6          4.9410    0.4270   -0.2030 ca        1 DH1      0.491200
     20 N1          5.8830   -0.1200    0.5790 nb        1 DH1     -0.783000
     21 C2          5.6850   -1.4550    0.9150 ca        1 DH1      0.876900
     22 N2          6.7080   -2.1060    1.6290 nh        1 DH1     -0.918500
     23 N3          4.5840   -2.2090    0.5620 nb        1 DH1     -0.817000
     24 C4          3.6550   -1.6120   -0.2520 ca        1 DH1      0.704200
     25 N4          2.5810   -2.3740   -0.7030 nh        1 DH1     -0.931500
     26 H161        3.9050    4.0240    1.0380 h1        1 DH1      0.040033
     27 H162        2.1660    4.5360    0.7350 h1        1 DH1      0.040033
     28 H163        2.5460    3.3210    2.0570 h1        1 DH1      0.040033
     29 H3'         0.4000    3.2620    1.2550 ha        1 DH1      0.135000
     30 H4'        -1.7000    2.0330    0.8580 ha        1 DH1      0.149000
     31 H521       -2.9900    0.1790    0.9230 h1        1 DH1      0.038200
     32 H522       -3.3740    1.3020   -0.4750 h1        1 DH1      0.038200
     33 H11        -4.2940   -0.6290   -1.7850 hc        1 DH1      0.044700
     34 H12        -3.8630   -1.7720   -0.4560 hc        1 DH1      0.044700
     35 H31        -5.3820   -0.5230    1.1200 hc        1 DH1      0.047200
     36 H32        -5.8140    0.6400   -0.1930 hc        1 DH1      0.047200
     37 H71        -6.6700   -1.3200   -1.5780 hc        1 DH1      0.022700
     38 H72        -6.3950   -2.3930   -0.1470 hc        1 DH1      0.022700
     39 H6'         0.3520   -0.6300   -1.8760 ha        1 DH1      0.146000
     40 H511        2.6090   -0.2370   -2.4580 hc        1 DH1      0.058700
     41 H512        3.3570    1.3500   -2.0170 hc        1 DH1      0.058700
     42 H6          5.0890    1.4960   -0.4540 h4        1 DH1      0.030100
     43 HN21        7.3090   -1.5060    2.1480 hn        1 DH1      0.412300
     44 HN22        6.4360   -2.9380    2.1030 hn        1 DH1      0.412300
     45 HN41        2.4260   -3.2480   -0.2510 hn        1 DH1      0.419300
     46 HN42        1.7570   -1.8520   -0.9040 hn        1 DH1      0.419300
@<TRIPOS>BOND
     1    1    2 1   
     2    1   26 1   
     3    1   27 1   
     4    1   28 1   
     5    2    3 1   
     6    3    4 ar  
     7    3   16 ar  
     8    4    5 ar  
     9    4   29 1   
    10    5    6 ar  
    11    5   30 1   
    12    6    7 1   
    13    6   15 ar  
    14    7    8 1   
    15    8    9 1   
    16    8   31 1   
    17    8   32 1   
    18    9   10 1   
    19    9   33 1   
    20    9   34 1   
    21   10   11 1   
    22   10   35 1   
    23   10   36 1   
    24   11   12 1   
    25   11   37 1   
    26   11   38 1   
    27   12   13 1   
    28   12   14 1   
    29   15   16 ar  
    30   15   39 1   
    31   16   17 1   
    32   17   18 1   
    33   17   40 1   
    34   17   41 1   
    35   18   19 ar  
    36   18   24 ar  
    37   19   20 ar  
    38   19   42 1   
    39   20   21 ar  
    40   21   22 1   
    41   21   23 ar  
    42   22   43 1   
    43   22   44 1   
    44   23   24 ar  
    45   24   25 1   
    46   25   45 1   
    47   25   46 1   
@<TRIPOS>SUBSTRUCTURE
     1 DH1         1 TEMP              0 ****  ****    0 ROOT
