@<TRIPOS>MOLECULE
DH1
   46    47     1     0     0
SMALL
bcc


@<TRIPOS>ATOM
      1 C16         0.3090    0.4780   -0.5910 c3        1 DH1      0.115700
      2 O1          1.6030    0.1390   -0.1090 os        1 DH1     -0.334900
      3 C2'         1.7530    0.1410    1.2700 ca        1 DH1      0.081100
      4 C3'         0.6790    0.1600    2.1640 ca        1 DH1     -0.158000
      5 C4'         0.9080    0.1010    3.5370 ca        1 DH1     -0.177000
      6 C5'         2.2210    0.0070    4.0130 ca        1 DH1      0.122100
      7 O5'         2.5750   -0.0670    5.3400 os        1 DH1     -0.333900
      8 C52         1.4890   -0.0620    6.2840 c3        1 DH1      0.127400
      9 C1          2.1200   -0.1630    7.6600 c3        1 DH1     -0.084400
     10 C3          1.0420   -0.1150    8.7240 c3        1 DH1     -0.066400
     11 C7          1.6180   -0.2390   10.1120 c3        1 DH1     -0.196400
     12 C8          0.5010   -0.3840   11.1640 c         1 DH1      0.908600
     13 O9          0.6610    0.2030   12.2710 o         1 DH1     -0.850300
     14 O10        -0.5080   -1.0920   10.8780 o         1 DH1     -0.850300
     15 C6'         3.3040   -0.0160    3.1120 ca        1 DH1     -0.160000
     16 C1'         3.0840    0.0750    1.7400 ca        1 DH1     -0.074300
     17 C51         4.2340    0.0530    0.7900 c3        1 DH1      0.040200
     18 C5          4.4990    1.3610    0.1400 ca        1 DH1     -0.397900
     19 C6          4.1770    1.5560   -1.2130 ca        1 DH1      0.491200
     20 N1          4.4170    2.6810   -1.9000 nb        1 DH1     -0.784000
     21 C2          5.0020    3.7150   -1.1760 ca        1 DH1      0.878900
     22 N2          5.1730    4.9500   -1.8270 nh        1 DH1     -0.921500
     23 N3          5.3650    3.6500    0.1550 nb        1 DH1     -0.817000
     24 C4          5.1110    2.4730    0.8110 ca        1 DH1      0.704200
     25 N4          5.5300    2.3490    2.1340 nh        1 DH1     -0.931500
     26 H161        0.4540    0.5610   -1.6980 h1        1 DH1      0.040367
     27 H162       -0.0360    1.4520   -0.1660 h1        1 DH1      0.040367
     28 H163       -0.4210   -0.3330   -0.3520 h1        1 DH1      0.040367
     29 H3'        -0.3560    0.2190    1.7980 ha        1 DH1      0.135000
     30 H4'         0.0540    0.1220    4.2290 ha        1 DH1      0.149000
     31 H521        0.9100    0.8930    6.1730 h1        1 DH1      0.038200
     32 H522        0.8180   -0.9370    6.0810 h1        1 DH1      0.038200
     33 H11         2.6970   -1.1200    7.7370 hc        1 DH1      0.044700
     34 H12         2.8460    0.6780    7.8030 hc        1 DH1      0.044700
     35 H31         0.4760    0.8500    8.6410 hc        1 DH1      0.047200
     36 H32         0.3030   -0.9460    8.5680 hc        1 DH1      0.047200
     37 H71         2.2450    0.6520   10.3590 hc        1 DH1      0.022200
     38 H72         2.2680   -1.1480   10.1790 hc        1 DH1      0.022200
     39 H6'         4.3220   -0.1280    3.5160 ha        1 DH1      0.147000
     40 H511        4.0090   -0.7110   -0.0070 hc        1 DH1      0.057700
     41 H512        5.1610   -0.2940    1.3250 hc        1 DH1      0.057700
     42 H6          3.6800    0.7460   -1.7840 h4        1 DH1      0.028100
     43 HN21        5.8320    5.5680   -1.4110 hn        1 DH1      0.413800
     44 HN22        5.2000    4.9080   -2.8200 hn        1 DH1      0.413800
     45 HN41        5.7820    3.1880    2.6070 hn        1 DH1      0.419800
     46 HN42        4.9980    1.7050    2.6780 hn        1 DH1      0.419800
@<TRIPOS>BOND
     1    1    2 1   
     2    1   26 1   
     3    1   27 1   
     4    1   28 1   
     5    2    3 1   
     6    3    4 ar  
     7    3   16 ar  
     8    4    5 ar  
     9    4   29 1   
    10    5    6 ar  
    11    5   30 1   
    12    6    7 1   
    13    6   15 ar  
    14    7    8 1   
    15    8    9 1   
    16    8   31 1   
    17    8   32 1   
    18    9   10 1   
    19    9   33 1   
    20    9   34 1   
    21   10   11 1   
    22   10   35 1   
    23   10   36 1   
    24   11   12 1   
    25   11   37 1   
    26   11   38 1   
    27   12   13 1   
    28   12   14 1   
    29   15   16 ar  
    30   15   39 1   
    31   16   17 1   
    32   17   18 1   
    33   17   40 1   
    34   17   41 1   
    35   18   19 ar  
    36   18   24 ar  
    37   19   20 ar  
    38   19   42 1   
    39   20   21 ar  
    40   21   22 1   
    41   21   23 ar  
    42   22   43 1   
    43   22   44 1   
    44   23   24 ar  
    45   24   25 1   
    46   25   45 1   
    47   25   46 1   
@<TRIPOS>SUBSTRUCTURE
     1 DH1         1 TEMP              0 ****  ****    0 ROOT
