@<TRIPOS>MOLECULE
DH1
   46    47     1     0     0
SMALL
bcc


@<TRIPOS>ATOM
      1 C16         0.3350    0.4410   -0.6010 c3        1 DH1      0.115700
      2 O1          1.6290    0.1160   -0.1110 os        1 DH1     -0.334900
      3 C2'         1.7720    0.1270    1.2700 ca        1 DH1      0.081100
      4 C3'         0.6930    0.1400    2.1570 ca        1 DH1     -0.158000
      5 C4'         0.9150    0.0900    3.5320 ca        1 DH1     -0.177000
      6 C5'         2.2260    0.0090    4.0150 ca        1 DH1      0.122100
      7 O5'         2.5730   -0.0540    5.3450 os        1 DH1     -0.333900
      8 C52         1.4820   -0.0580    6.2820 c3        1 DH1      0.127400
      9 C1          2.1060   -0.1490    7.6620 c3        1 DH1     -0.084400
     10 C3          1.0220   -0.1100    8.7200 c3        1 DH1     -0.066400
     11 C7          1.5900   -0.2260   10.1120 c3        1 DH1     -0.196400
     12 C8          0.4690   -0.3820   11.1570 c         1 DH1      0.908600
     13 O9          0.6160    0.2090   12.2650 o         1 DH1     -0.850300
     14 O10        -0.5300   -1.1020   10.8670 o         1 DH1     -0.850300
     15 C6'         3.3140   -0.0070    3.1210 ca        1 DH1     -0.160000
     16 C1'         3.1010    0.0750    1.7470 ca        1 DH1     -0.074300
     17 C51         4.2570    0.0600    0.8030 c3        1 DH1      0.040200
     18 C5          4.5130    1.3660    0.1480 ca        1 DH1     -0.397900
     19 C6          4.1970    1.5510   -1.2080 ca        1 DH1      0.491200
     20 N1          4.4310    2.6750   -1.8990 nb        1 DH1     -0.784000
     21 C2          5.0010    3.7180   -1.1770 ca        1 DH1      0.878900
     22 N2          5.1640    4.9520   -1.8330 nh        1 DH1     -0.921500
     23 N3          5.3570    3.6630    0.1560 nb        1 DH1     -0.817000
     24 C4          5.1100    2.4870    0.8180 ca        1 DH1      0.704200
     25 N4          5.5220    2.3740    2.1430 nh        1 DH1     -0.931500
     26 H161       -0.0220    1.4130   -0.1830 h1        1 DH1      0.040367
     27 H162       -0.3890   -0.3760   -0.3620 h1        1 DH1      0.040367
     28 H163        0.4850    0.5200   -1.7080 h1        1 DH1      0.040367
     29 H3'        -0.3410    0.1870    1.7860 ha        1 DH1      0.135000
     30 H4'         0.0570    0.1050    4.2190 ha        1 DH1      0.149000
     31 H521        0.8210   -0.9410    6.0780 h1        1 DH1      0.038200
     32 H522        0.8940    0.8900    6.1660 h1        1 DH1      0.038200
     33 H11         2.8220    0.7000    7.8080 hc        1 DH1      0.044700
     34 H12         2.6940   -1.1000    7.7440 hc        1 DH1      0.044700
     35 H31         0.2930   -0.9500    8.5610 hc        1 DH1      0.047200
     36 H32         0.4460    0.8480    8.6320 hc        1 DH1      0.047200
     37 H71         2.2060    0.6730   10.3610 hc        1 DH1      0.022200
     38 H72         2.2510   -1.1270   10.1840 hc        1 DH1      0.022200
     39 H6'         4.3310   -0.1080    3.5310 ha        1 DH1      0.147000
     40 H511        4.0430   -0.7110    0.0090 hc        1 DH1      0.057700
     41 H512        5.1840   -0.2770    1.3460 hc        1 DH1      0.057700
     42 H6          3.7110    0.7340   -1.7770 h4        1 DH1      0.028100
     43 HN21        5.8150    5.5780   -1.4170 hn        1 DH1      0.413800
     44 HN22        5.1980    4.9040   -2.8260 hn        1 DH1      0.413800
     45 HN41        5.7640    3.2180    2.6130 hn        1 DH1      0.419800
     46 HN42        4.9940    1.7280    2.6870 hn        1 DH1      0.419800
@<TRIPOS>BOND
     1    1    2 1   
     2    1   26 1   
     3    1   27 1   
     4    1   28 1   
     5    2    3 1   
     6    3    4 ar  
     7    3   16 ar  
     8    4    5 ar  
     9    4   29 1   
    10    5    6 ar  
    11    5   30 1   
    12    6    7 1   
    13    6   15 ar  
    14    7    8 1   
    15    8    9 1   
    16    8   31 1   
    17    8   32 1   
    18    9   10 1   
    19    9   33 1   
    20    9   34 1   
    21   10   11 1   
    22   10   35 1   
    23   10   36 1   
    24   11   12 1   
    25   11   37 1   
    26   11   38 1   
    27   12   13 1   
    28   12   14 1   
    29   15   16 ar  
    30   15   39 1   
    31   16   17 1   
    32   17   18 1   
    33   17   40 1   
    34   17   41 1   
    35   18   19 ar  
    36   18   24 ar  
    37   19   20 ar  
    38   19   42 1   
    39   20   21 ar  
    40   21   22 1   
    41   21   23 ar  
    42   22   43 1   
    43   22   44 1   
    44   23   24 ar  
    45   24   25 1   
    46   25   45 1   
    47   25   46 1   
@<TRIPOS>SUBSTRUCTURE
     1 DH1         1 TEMP              0 ****  ****    0 ROOT
