@<TRIPOS>MOLECULE
DH1
   46    43     1     0     0
SMALL
bcc


@<TRIPOS>ATOM
      1 C16        -3.8070    0.1660   -3.5630 c3        1 DH1     -0.073000
      2 O1         -2.8320    1.1710   -3.3400 os        1 DH1     -0.218000
      3 C2'        -2.2930    1.1740   -2.0280 c2        1 DH1      0.032000
      4 C3'        -3.1510    1.2300   -0.9120 c2        1 DH1     -0.164000
      5 C4'        -2.6140    1.3380    0.3780 c1        1 DH1     -0.175000
      6 C5'        -1.2100    1.3920    0.5600 c1        1 DH1      0.074000
      7 O5'        -0.6610    1.4240    1.8810 os        1 DH1     -0.214000
      8 C52        -0.9640    0.2590    2.6660 c3        1 DH1     -0.024000
      9 C1         -0.0650    0.2250    3.8900 c3        1 DH1     -0.163000
     10 C3         -0.2570   -1.0130    4.5910 c3        1 DH1     -0.145000
     11 C7          0.8460   -1.1630    5.6770 c3        1 DH1     -0.224000
     12 C8          0.8080   -2.6590    6.2780 c2        1 DH1      0.328000
     13 O9          1.6090   -3.5050    5.8770 o         1 DH1     -0.585000
     14 O10        -0.0210   -2.9570    7.0880 o         1 DH1     -0.585000
     15 C6'        -0.3560    1.3370   -0.5530 c1        1 DH1     -0.138000
     16 C1'        -0.8930    1.2280   -1.8470 c1        1 DH1     -0.072000
     17 C51         0.0680    1.2870   -3.1160 c3        1 DH1     -0.053000
     18 C5          1.2330    0.4320   -2.8870 c2        1 DH1     -0.253000
     19 C6          1.2430   -0.4390   -1.8270 c2        1 DH1      0.025000
     20 N1          2.3450   -1.2510   -1.6100 n1        1 DH1     -0.241000
     21 C2          3.4390   -1.1830   -2.4650 c1        1 DH1      0.153000
     22 N2          4.6160   -1.9430   -2.1750 n3        1 DH1     -0.315000
     23 N3          3.4280   -0.2900   -3.5500 n1        1 DH1     -0.288000
     24 C4          2.3550    0.5030   -3.7640 c1        1 DH1      0.164000
     25 N4          2.2770    1.2730   -4.9520 n3        1 DH1     -0.330000
     26 H161       -3.9860    0.1090   -4.4470 h1        1 DH1      0.078667
     27 H162       -4.6570    0.4010   -3.0590 h1        1 DH1      0.078667
     28 H163       -3.4730   -0.6800   -3.2510 h1        1 DH1      0.078667
     29 H3'        -4.1400    1.1900   -1.0390 ha        1 DH1      0.134000
     30 H4'        -3.2210    1.4220    1.1660 ha        1 DH1      0.149000
     31 H521       -1.8580    0.2880    2.9380 h1        1 DH1      0.076500
     32 H522       -0.8050   -0.6060    2.0880 h1        1 DH1      0.076500
     33 H11         0.8610    0.2980    3.6140 hc        1 DH1      0.084500
     34 H12        -0.2990    1.0060    4.5100 hc        1 DH1      0.084500
     35 H31        -0.2000   -1.7760    3.9460 hc        1 DH1      0.086000
     36 H32        -1.1830   -1.0140    5.0380 hc        1 DH1      0.086000
     37 H71         0.6950   -0.5600    6.3490 hc        1 DH1      0.062000
     38 H72         1.6830   -1.0000    5.2970 hc        1 DH1      0.062000
     39 H6'         0.5720    1.3730   -0.4330 ha        1 DH1      0.154000
     40 H511        0.3740    2.2430   -3.2590 hc        1 DH1      0.094500
     41 H512       -0.4470    0.9560   -3.9580 hc        1 DH1      0.094500
     42 H6          0.4250   -0.4890   -1.1860 h4        1 DH1      0.178000
     43 HN21        4.6780   -2.4620   -1.3140 hn        1 DH1      0.207500
     44 HN22        5.3500   -1.8600   -2.7070 hn        1 DH1      0.207500
     45 HN41        2.9980    1.4140   -5.4270 hn        1 DH1      0.204500
     46 HN42        1.4920    1.7130   -5.1660 hn        1 DH1      0.204500
@<TRIPOS>BOND
     1    1    2 1   
     2    1   26 1   
     3    1   27 1   
     4    1   28 1   
     5    2    3 1   
     6    3    4 1   
     7    3   16 1   
     8    4    5 1   
     9    4   29 1   
    10    5   30 1   
    11    6    7 1   
    12    6   15 1   
    13    7    8 1   
    14    8    9 1   
    15    8   31 1   
    16    8   32 1   
    17    9   10 1   
    18    9   33 1   
    19    9   34 1   
    20   10   11 1   
    21   10   35 1   
    22   10   36 1   
    23   11   12 1   
    24   11   37 1   
    25   11   38 1   
    26   12   13 1   
    27   12   14 1   
    28   15   39 1   
    29   16   17 1   
    30   17   18 1   
    31   17   40 1   
    32   17   41 1   
    33   18   19 1   
    34   18   24 1   
    35   19   20 1   
    36   19   42 1   
    37   21   22 1   
    38   21   23 1   
    39   22   43 1   
    40   22   44 1   
    41   24   25 1   
    42   25   45 1   
    43   25   46 1   
@<TRIPOS>SUBSTRUCTURE
     1 DH1         1 TEMP              0 ****  ****    0 ROOT
