@<TRIPOS>MOLECULE
DH1
   46    47     1     0     0
SMALL
bcc


@<TRIPOS>ATOM
      1 C16         0.3440    0.4360   -0.6060 c3        1 DH1      0.115700
      2 O1          1.6370    0.1130   -0.1120 os        1 DH1     -0.334900
      3 C2'         1.7770    0.1240    1.2680 ca        1 DH1      0.081100
      4 C3'         0.6960    0.1380    2.1530 ca        1 DH1     -0.158000
      5 C4'         0.9150    0.0880    3.5290 ca        1 DH1     -0.177000
      6 C5'         2.2250    0.0090    4.0150 ca        1 DH1      0.122100
      7 O5'         2.5700   -0.0530    5.3450 os        1 DH1     -0.333900
      8 C52         1.4760   -0.0570    6.2800 c3        1 DH1      0.127400
      9 C1          2.0970   -0.1460    7.6620 c3        1 DH1     -0.084400
     10 C3          1.0110   -0.1060    8.7170 c3        1 DH1     -0.066400
     11 C7          1.5760   -0.2200   10.1110 c3        1 DH1     -0.196400
     12 C8          0.4530   -0.3740   11.1540 c         1 DH1      0.908600
     13 O9          0.5980    0.2180   12.2610 o         1 DH1     -0.850300
     14 O10        -0.5450   -1.0950   10.8620 o         1 DH1     -0.850300
     15 C6'         3.3160   -0.0070    3.1230 ca        1 DH1     -0.160000
     16 C1'         3.1050    0.0730    1.7490 ca        1 DH1     -0.074300
     17 C51         4.2630    0.0580    0.8080 c3        1 DH1      0.040200
     18 C5          4.5190    1.3640    0.1520 ca        1 DH1     -0.397900
     19 C6          4.2060    1.5480   -1.2050 ca        1 DH1      0.491200
     20 N1          4.4410    2.6720   -1.8960 nb        1 DH1     -0.784000
     21 C2          5.0100    3.7160   -1.1730 ca        1 DH1      0.878900
     22 N2          5.1730    4.9490   -1.8300 nv        1 DH1     -0.921500
     23 N3          5.3620    3.6620    0.1600 nb        1 DH1     -0.817000
     24 C4          5.1140    2.4860    0.8220 ca        1 DH1      0.704200
     25 N4          5.5250    2.3740    2.1480 nv        1 DH1     -0.931500
     26 H161       -0.0150    1.4080   -0.1890 h1        1 DH1      0.040367
     27 H162       -0.3800   -0.3810   -0.3670 h1        1 DH1      0.040367
     28 H163        0.4960    0.5140   -1.7120 h1        1 DH1      0.040367
     29 H3'        -0.3370    0.1840    1.7800 ha        1 DH1      0.135000
     30 H4'         0.0560    0.1040    4.2150 ha        1 DH1      0.149000
     31 H521        0.8170   -0.9400    6.0760 h1        1 DH1      0.038200
     32 H522        0.8890    0.8910    6.1620 h1        1 DH1      0.038200
     33 H11         2.8130    0.7030    7.8080 hc        1 DH1      0.044700
     34 H12         2.6850   -1.0960    7.7470 hc        1 DH1      0.044700
     35 H31         0.2830   -0.9470    8.5580 hc        1 DH1      0.047200
     36 H32         0.4340    0.8520    8.6260 hc        1 DH1      0.047200
     37 H71         2.1920    0.6800   10.3590 hc        1 DH1      0.022200
     38 H72         2.2370   -1.1200   10.1860 hc        1 DH1      0.022200
     39 H6'         4.3310   -0.1080    3.5350 ha        1 DH1      0.147000
     40 H511        4.0510   -0.7130    0.0130 hc        1 DH1      0.057700
     41 H512        5.1890   -0.2780    1.3520 hc        1 DH1      0.057700
     42 H6          3.7220    0.7300   -1.7740 h4        1 DH1      0.028100
     43 HN21        5.8230    5.5750   -1.4130 hn        1 DH1      0.413800
     44 HN22        5.2090    4.9010   -2.8230 hn        1 DH1      0.413800
     45 HN41        5.7650    3.2180    2.6180 hn        1 DH1      0.419800
     46 HN42        4.9950    1.7270    2.6920 hn        1 DH1      0.419800
@<TRIPOS>BOND
     1    1    2 1   
     2    1   26 1   
     3    1   27 1   
     4    1   28 1   
     5    2    3 1   
     6    3    4 ar  
     7    3   16 ar  
     8    4    5 ar  
     9    4   29 1   
    10    5    6 ar  
    11    5   30 1   
    12    6    7 1   
    13    6   15 ar  
    14    7    8 1   
    15    8    9 1   
    16    8   31 1   
    17    8   32 1   
    18    9   10 1   
    19    9   33 1   
    20    9   34 1   
    21   10   11 1   
    22   10   35 1   
    23   10   36 1   
    24   11   12 1   
    25   11   37 1   
    26   11   38 1   
    27   12   13 1   
    28   12   14 1   
    29   15   16 ar  
    30   15   39 1   
    31   16   17 1   
    32   17   18 1   
    33   17   40 1   
    34   17   41 1   
    35   18   19 ar  
    36   18   24 ar  
    37   19   20 ar  
    38   19   42 1   
    39   20   21 ar  
    40   21   22 1   
    41   21   23 ar  
    42   22   43 1   
    43   22   44 1   
    44   23   24 ar  
    45   24   25 1   
    46   25   45 1   
    47   25   46 1   
@<TRIPOS>SUBSTRUCTURE
     1 DH1         1 TEMP              0 ****  ****    0 ROOT
