@<TRIPOS>MOLECULE
DH2
   34    36     1     0     0
SMALL
bcc


@<TRIPOS>ATOM
      1 C1          0.0240   -0.1940   -0.0800 ca        1 DH2     -0.302000
      2 C2          1.4210   -0.0980   -0.0790 ca        1 DH2      0.250100
      3 C3          2.1530    0.0570    1.1220 ca        1 DH2     -0.306600
      4 C4          1.4240    0.1290    2.3260 ca        1 DH2      0.242100
      5 C5          0.0260    0.0370    2.3560 ca        1 DH2     -0.298000
      6 C6         -0.6570   -0.1300    1.1440 ca        1 DH2      0.228100
      7 C9          3.6080    0.1290    1.1420 c         1 DH2      0.566700
      8 C10         4.2410    0.0600    2.5270 c3        1 DH2      0.023100
      9 C11         3.3640    0.7760    3.5680 c3        1 DH2      0.204400
     10 C14         3.8870    0.6050    4.9640 ca        1 DH2     -0.093300
     11 C15         5.0320    1.3240    5.3320 ca        1 DH2     -0.099000
     12 C16         5.5500    1.2140    6.6190 ca        1 DH2     -0.174000
     13 C17         4.9190    0.3810    7.5480 ca        1 DH2      0.048100
     14 C18         3.7680   -0.3470    7.1820 ca        1 DH2      0.102100
     15 C19         3.2540   -0.2330    5.8840 ca        1 DH2     -0.105000
     16 O12         2.0210    0.2470    3.5590 os        1 DH2     -0.317900
     17 O13         4.3360    0.2170    0.1480 o         1 DH2     -0.517100
     18 O23         3.1050   -1.1820    8.0500 oh        1 DH2     -0.495100
     19 O24         5.3600    0.2160    8.8450 oh        1 DH2     -0.516100
     20 O27         5.5090    0.6940    2.5420 oh        1 DH2     -0.593800
     21 O29        -2.0220   -0.2310    1.0850 oh        1 DH2     -0.486100
     22 O30         2.1420   -0.1630   -1.2380 oh        1 DH2     -0.456100
     23 H1         -0.5400   -0.3180   -1.0140 ha        1 DH2      0.160000
     24 HB         -0.5070    0.0930    3.3140 ha        1 DH2      0.161000
     25 HD          4.3670   -1.0240    2.8080 h1        1 DH2      0.081700
     26 H11         3.3050    1.8730    3.3130 h1        1 DH2      0.077700
     27 H15         5.5360    1.9600    4.5860 ha        1 DH2      0.156000
     28 H16         6.4510    1.7750    6.9040 ha        1 DH2      0.138000
     29 H19         2.3530   -0.8030    5.6110 ha        1 DH2      0.166000
     30 H23         3.5770   -1.1670    8.8970 ho        1 DH2      0.436000
     31 H24         6.1630    0.7450    8.9540 ho        1 DH2      0.430000
     32 H27         5.9160    0.5450    1.6750 ho        1 DH2      0.432000
     33 HC         -2.3710   -0.1760    1.9880 ho        1 DH2      0.431000
     34 HA          1.5220   -0.2710   -1.9770 ho        1 DH2      0.427000
@<TRIPOS>BOND
     1    1    2 ar  
     2    1    6 ar  
     3    1   23 1   
     4    2    3 ar  
     5    2   22 1   
     6    3    4 ar  
     7    3    7 1   
     8    4    5 ar  
     9    4   16 1   
    10    5    6 ar  
    11    5   24 1   
    12    6   21 1   
    13    7    8 1   
    14    7   17 2   
    15    8    9 1   
    16    8   20 1   
    17    8   25 1   
    18    9   10 1   
    19    9   16 1   
    20    9   26 1   
    21   10   11 ar  
    22   10   15 ar  
    23   11   12 ar  
    24   11   27 1   
    25   12   13 ar  
    26   12   28 1   
    27   13   14 ar  
    28   13   19 1   
    29   14   15 ar  
    30   14   18 1   
    31   15   29 1   
    32   18   30 1   
    33   19   31 1   
    34   20   32 1   
    35   21   33 1   
    36   22   34 1   
@<TRIPOS>SUBSTRUCTURE
     1 DH2         1 TEMP              0 ****  ****    0 ROOT
