@<TRIPOS>MOLECULE
DH2
   34    36     1     0     0
SMALL
bcc


@<TRIPOS>ATOM
      1 C1         -0.0350   -0.2320    0.0110 ca        1 DH2     -0.358000
      2 C2          1.3570   -0.0630   -0.0140 ca        1 DH2      0.256100
      3 C3          2.1030    0.0830    1.1770 ca        1 DH2     -0.305600
      4 C4          1.3950    0.0680    2.3980 ca        1 DH2      0.235100
      5 C5          0.0060   -0.0970    2.4550 ca        1 DH2     -0.238000
      6 C6         -0.6920   -0.2510    1.2480 ca        1 DH2      0.226100
      7 C9          3.5520    0.2310    1.1730 c         1 DH2      0.566700
      8 C10         4.2180    0.1530    2.5410 c3        1 DH2      0.023100
      9 C11         3.3230    0.7770    3.6250 c3        1 DH2      0.204400
     10 C14         3.8860    0.5890    5.0030 ca        1 DH2     -0.093300
     11 C15         4.9920    1.3630    5.3740 ca        1 DH2     -0.100000
     12 C16         5.5450    1.2380    6.6450 ca        1 DH2     -0.175000
     13 C17         4.9870    0.3350    7.5550 ca        1 DH2      0.047100
     14 C18         3.8740   -0.4490    7.1850 ca        1 DH2      0.102100
     15 C19         3.3250   -0.3200    5.9030 ca        1 DH2     -0.104000
     16 O12         2.0150    0.1670    3.6220 os        1 DH2     -0.314900
     17 O13         4.2530    0.3900    0.1670 o         1 DH2     -0.519100
     18 O23         3.2840   -1.3550    8.0340 oh        1 DH2     -0.494100
     19 O24         5.4670    0.1500    8.8350 oh        1 DH2     -0.516100
     20 O27         5.4450    0.8630    2.5530 oh        1 DH2     -0.592800
     21 O29        -2.0490   -0.4140    1.3520 oh        1 DH2     -0.482100
     22 O30         2.0550   -0.0440   -1.1880 oh        1 DH2     -0.455100
     23 H1         -0.5980   -0.3470   -0.9240 ha        1 DH2      0.143000
     24 HB         -0.5220   -0.1090    3.4180 ha        1 DH2      0.177000
     25 HD          4.4150   -0.9310    2.7790 h1        1 DH2      0.081700
     26 H11         3.1920    1.8770    3.4110 h1        1 DH2      0.077700
     27 H15         5.4400    2.0560    4.6430 ha        1 DH2      0.155000
     28 H16         6.4160    1.8440    6.9330 ha        1 DH2      0.138000
     29 H19         2.4530   -0.9330    5.6280 ha        1 DH2      0.168000
     30 H23         3.7680   -1.3340    8.8750 ho        1 DH2      0.436000
     31 H24         6.2320    0.7310    8.9510 ho        1 DH2      0.430000
     32 H27         5.8460    0.7590    1.6770 ho        1 DH2      0.432000
     33 HC         -2.4140   -0.5030    0.4580 ho        1 DH2      0.427000
     34 HA          1.4260   -0.1550   -1.9190 ho        1 DH2      0.424000
@<TRIPOS>BOND
     1    1    2 ar  
     2    1    6 ar  
     3    1   23 1   
     4    2    3 ar  
     5    2   22 1   
     6    3    4 ar  
     7    3    7 1   
     8    4    5 ar  
     9    4   16 1   
    10    5    6 ar  
    11    5   24 1   
    12    6   21 1   
    13    7    8 1   
    14    7   17 2   
    15    8    9 1   
    16    8   20 1   
    17    8   25 1   
    18    9   10 1   
    19    9   16 1   
    20    9   26 1   
    21   10   11 ar  
    22   10   15 ar  
    23   11   12 ar  
    24   11   27 1   
    25   12   13 ar  
    26   12   28 1   
    27   13   14 ar  
    28   13   19 1   
    29   14   15 ar  
    30   14   18 1   
    31   15   29 1   
    32   18   30 1   
    33   19   31 1   
    34   20   32 1   
    35   21   33 1   
    36   22   34 1   
@<TRIPOS>SUBSTRUCTURE
     1 DH2         1 TEMP              0 ****  ****    0 ROOT
