@<TRIPOS>MOLECULE
DH2
   34    36     1     0     0
SMALL
bcc


@<TRIPOS>ATOM
      1 C1         -0.8400    0.0230   -4.4060 ca        1 DH2     -0.308000
      2 C2          0.3890   -0.0840   -3.7300 ca        1 DH2      0.276100
      3 C3          0.4550   -0.0200   -2.3170 ca        1 DH2     -0.361600
      4 C4         -0.7570    0.1850   -1.6140 ca        1 DH2      0.236100
      5 C5         -1.9880    0.2980   -2.2610 ca        1 DH2     -0.241000
      6 C6         -2.0100    0.2050   -3.6640 ca        1 DH2      0.226100
      7 C9          1.6930   -0.1720   -1.5740 c         1 DH2      0.573700
      8 C10         1.5810   -0.2020   -0.0570 c3        1 DH2      0.031100
      9 C11         0.3910    0.6420    0.4310 c3        1 DH2      0.208400
     10 C14         0.1510    0.4850    1.9020 ca        1 DH2     -0.101300
     11 C15         1.0520    1.0850    2.7900 ca        1 DH2     -0.097000
     12 C16         0.8670    0.9870    4.1650 ca        1 DH2     -0.139000
     13 C17        -0.2350    0.2810    4.6690 ca        1 DH2      0.122100
     14 C18        -1.1410   -0.3250    3.7720 ca        1 DH2      0.031100
     15 C19        -0.9480   -0.2260    2.3920 ca        1 DH2     -0.140000
     16 O12        -0.8190    0.2330   -0.2400 os        1 DH2     -0.321900
     17 O13         2.8150   -0.3010   -2.0930 o         1 DH2     -0.579100
     18 O23        -2.1980   -1.0070    4.3430 oh        1 DH2     -0.518100
     19 O24        -0.3760    0.2130    6.0320 oh        1 DH2     -0.492100
     20 O27         2.7470    0.3370    0.5420 oh        1 DH2     -0.586800
     21 O29        -3.2400    0.3130   -4.2550 oh        1 DH2     -0.483100
     22 O30         1.4660   -0.2580   -4.5450 oh        1 DH2     -0.493100
     23 H1         -0.8570   -0.0380   -5.5020 ha        1 DH2      0.162000
     24 HB         -2.9150    0.4540   -1.6940 ha        1 DH2      0.174000
     25 HD          1.4520   -1.2750    0.2640 h1        1 DH2      0.081700
     26 H11         0.5790    1.7270    0.1860 h1        1 DH2      0.079700
     27 H15         1.9270    1.6230    2.3910 ha        1 DH2      0.156000
     28 H16         1.5730    1.4530    4.8680 ha        1 DH2      0.157000
     29 H19        -1.6620   -0.6970    1.7000 ha        1 DH2      0.151000
     30 H23        -2.7590   -1.3350    3.6260 ho        1 DH2      0.430000
     31 H24        -1.1790   -0.2950    6.2260 ho        1 DH2      0.438000
     32 H27         3.5060   -0.0060    0.0460 ho        1 DH2      0.432000
     33 HC         -3.1240    0.2460   -5.2160 ho        1 DH2      0.431000
     34 HA          2.2850   -0.3100   -4.0230 ho        1 DH2      0.464000
@<TRIPOS>BOND
     1    1    2 ar  
     2    1    6 ar  
     3    1   23 1   
     4    2    3 ar  
     5    2   22 1   
     6    3    4 ar  
     7    3    7 1   
     8    4    5 ar  
     9    4   16 1   
    10    5    6 ar  
    11    5   24 1   
    12    6   21 1   
    13    7    8 1   
    14    7   17 2   
    15    8    9 1   
    16    8   20 1   
    17    8   25 1   
    18    9   10 1   
    19    9   16 1   
    20    9   26 1   
    21   10   11 ar  
    22   10   15 ar  
    23   11   12 ar  
    24   11   27 1   
    25   12   13 ar  
    26   12   28 1   
    27   13   14 ar  
    28   13   19 1   
    29   14   15 ar  
    30   14   18 1   
    31   15   29 1   
    32   18   30 1   
    33   19   31 1   
    34   20   32 1   
    35   21   33 1   
    36   22   34 1   
@<TRIPOS>SUBSTRUCTURE
     1 DH2         1 TEMP              0 ****  ****    0 ROOT
