@<TRIPOS>MOLECULE
DH3
   48    49     1     0     0
SMALL
bcc


@<TRIPOS>ATOM
      1 N4          0.3560   -0.9760    0.1420 nv        1 DH3     -0.957500
      2 C4          1.4850   -0.1790    0.0310 ca        1 DH3      0.712200
      3 N3          2.0180    0.3420    1.1830 nb        1 DH3     -0.821000
      4 C2          3.1880    1.0650    1.0540 ca        1 DH3      0.876900
      5 N2          3.6880    1.6870    2.2150 nv        1 DH3     -0.916500
      6 N1          3.8690    1.2820   -0.1370 nb        1 DH3     -0.776000
      7 C6          3.3000    0.7700   -1.2380 ca        1 DH3      0.491200
      8 C5          2.1030    0.0390   -1.2500 ca        1 DH3     -0.410900
      9 C51         1.5030   -0.5130   -2.4880 c3        1 DH3      0.035200
     10 C1'         2.2410   -0.1970   -3.7450 ca        1 DH3     -0.086300
     11 C6'         2.8540   -1.2230   -4.4670 ca        1 DH3     -0.104000
     12 C52         3.5110   -0.9660   -5.6840 ca        1 DH3      0.056000
     13 C53         4.0860   -2.0410   -6.3820 cg        1 DH3     -0.199000
     14 C54         4.5400   -2.9950   -6.9500 c1        1 DH3     -0.033100
     15 C1          5.0830   -4.1360   -7.6260 c3        1 DH3     -0.019300
     16 C3          4.2380   -5.3910   -7.4580 c3        1 DH3     -0.060400
     17 C7          4.3040   -5.9650   -6.0650 c3        1 DH3     -0.200400
     18 C8          3.6680   -7.3680   -6.0180 c         1 DH3      0.909600
     19 O10         3.9330   -8.1780   -6.9530 o         1 DH3     -0.849800
     20 O9          2.9270   -7.6430   -5.0320 o         1 DH3     -0.849800
     21 C4'         3.5590    0.3580   -6.1650 ca        1 DH3      0.080100
     22 O5          4.1040    0.6810   -7.3990 os        1 DH3     -0.341900
     23 C5'         5.5250    0.5470   -7.4580 c3        1 DH3      0.117700
     24 C3'         2.9350    1.3900   -5.4340 ca        1 DH3      0.079100
     25 O4          3.0380    2.7200   -5.8200 os        1 DH3     -0.342900
     26 C4B         2.3170    3.0310   -7.0120 c3        1 DH3      0.116700
     27 C2'         2.2690    1.1120   -4.2370 ca        1 DH3     -0.140000
     28 HN41       -0.1640   -1.1390   -0.6850 hn        1 DH3      0.427300
     29 HN42       -0.1350   -0.9960    1.0020 hn        1 DH3      0.427300
     30 HN21        3.3960    1.2780    3.0740 hn        1 DH3      0.411300
     31 HN22        4.6540    1.9280    2.1770 hn        1 DH3      0.411300
     32 H6          3.8480    0.9600   -2.1840 h4        1 DH3      0.039100
     33 H511        0.4540   -0.1130   -2.5960 hc        1 DH3      0.051700
     34 H512        1.4220   -1.6330   -2.3850 hc        1 DH3      0.051700
     35 H6'         2.8230   -2.2600   -4.0920 ha        1 DH3      0.161000
     36 H11         6.1210   -4.3330   -7.2340 hc        1 DH3      0.049700
     37 H12         5.1770   -3.8940   -8.7220 hc        1 DH3      0.049700
     38 H31         4.6060   -6.1700   -8.1800 hc        1 DH3      0.055200
     39 H32         3.1730   -5.1650   -7.7230 hc        1 DH3      0.055200
     40 H71         3.7830   -5.2950   -5.3380 hc        1 DH3      0.022700
     41 H72         5.3700   -6.0660   -5.7390 hc        1 DH3      0.022700
     42 H5'1        5.7680    0.7920   -8.5220 h1        1 DH3      0.042700
     43 H5'2        5.8340   -0.4980   -7.2090 h1        1 DH3      0.042700
     44 H5'3        6.0070    1.2750   -6.7620 h1        1 DH3      0.042700
     45 H4'1        2.5490    4.1110   -7.1870 h1        1 DH3      0.041033
     46 H4'2        1.2220    2.8840   -6.8480 h1        1 DH3      0.041033
     47 H4'3        2.6720    2.4020   -7.8640 h1        1 DH3      0.041033
     48 H2'         1.7870    1.9310   -3.6830 ha        1 DH3      0.145000
@<TRIPOS>BOND
     1    1    2 1   
     2    1   28 1   
     3    1   29 1   
     4    2    3 ar  
     5    2    8 ar  
     6    3    4 ar  
     7    4    5 1   
     8    4    6 ar  
     9    5   30 1   
    10    5   31 1   
    11    6    7 ar  
    12    7    8 ar  
    13    7   32 1   
    14    8    9 1   
    15    9   10 1   
    16    9   33 1   
    17    9   34 1   
    18   10   11 ar  
    19   10   27 ar  
    20   11   12 ar  
    21   11   35 1   
    22   12   13 1   
    23   12   21 ar  
    24   13   14 3   
    25   14   15 1   
    26   15   16 1   
    27   15   36 1   
    28   15   37 1   
    29   16   17 1   
    30   16   38 1   
    31   16   39 1   
    32   17   18 1   
    33   17   40 1   
    34   17   41 1   
    35   18   19 1   
    36   18   20 1   
    37   21   22 1   
    38   21   24 ar  
    39   22   23 1   
    40   23   42 1   
    41   23   43 1   
    42   23   44 1   
    43   24   25 1   
    44   24   27 ar  
    45   25   26 1   
    46   26   45 1   
    47   26   46 1   
    48   26   47 1   
    49   27   48 1   
@<TRIPOS>SUBSTRUCTURE
     1 DH3         1 TEMP              0 ****  ****    0 ROOT
