@<TRIPOS>MOLECULE
DH3
   48    49     1     0     0
SMALL
bcc


@<TRIPOS>ATOM
      1 N4          0.3520   -0.9900    0.1400 nh        1 DH3     -0.957500
      2 C4          1.4750   -0.1850    0.0290 ca        1 DH3      0.712200
      3 N3          2.0030    0.3420    1.1800 nb        1 DH3     -0.821000
      4 C2          3.1670    1.0730    1.0520 ca        1 DH3      0.876900
      5 N2          3.6620    1.7010    2.2120 nh        1 DH3     -0.916500
      6 N1          3.8490    1.2930   -0.1400 nb        1 DH3     -0.776000
      7 C6          3.2850    0.7750   -1.2400 ca        1 DH3      0.491200
      8 C5          2.0930    0.0350   -1.2520 ca        1 DH3     -0.410900
      9 C51         1.4990   -0.5240   -2.4900 c3        1 DH3      0.035200
     10 C1'         2.2350   -0.2050   -3.7470 ca        1 DH3     -0.086300
     11 C6'         2.8560   -1.2260   -4.4660 ca        1 DH3     -0.104000
     12 C52         3.5120   -0.9670   -5.6840 ca        1 DH3      0.056000
     13 C53         4.0960   -2.0380   -6.3800 cg        1 DH3     -0.199000
     14 C54         4.5570   -2.9900   -6.9460 c1        1 DH3     -0.033100
     15 C1          5.1090   -4.1270   -7.6200 c3        1 DH3     -0.019300
     16 C3          4.2710   -5.3870   -7.4530 c3        1 DH3     -0.060400
     17 C7          4.3380   -5.9610   -6.0600 c3        1 DH3     -0.200400
     18 C8          3.7110   -7.3680   -6.0120 c         1 DH3      0.909600
     19 O10         3.9830   -8.1770   -6.9460 o         1 DH3     -0.849800
     20 O9          2.9690   -7.6460   -5.0280 o         1 DH3     -0.849800
     21 C4'         3.5500    0.3570   -6.1670 ca        1 DH3      0.080100
     22 O5          4.0950    0.6820   -7.4010 os        1 DH3     -0.341900
     23 C5'         5.5160    0.5580   -7.4580 c3        1 DH3      0.117700
     24 C3'         2.9190    1.3850   -5.4360 ca        1 DH3      0.079100
     25 O4          3.0130    2.7160   -5.8250 os        1 DH3     -0.342900
     26 C4B         2.2900    3.0200   -7.0180 c3        1 DH3      0.116700
     27 C2'         2.2540    1.1050   -4.2400 ca        1 DH3     -0.140000
     28 HN41       -0.1660   -1.1590   -0.6870 hn        1 DH3      0.427300
     29 HN42       -0.1400   -1.0120    1.0000 hn        1 DH3      0.427300
     30 HN21        3.3720    1.2920    3.0710 hn        1 DH3      0.411300
     31 HN22        4.6250    1.9490    2.1750 hn        1 DH3      0.411300
     32 H6          3.8320    0.9660   -2.1850 h4        1 DH3      0.039100
     33 H511        0.4460   -0.1330   -2.5990 hc        1 DH3      0.051700
     34 H512        1.4260   -1.6450   -2.3840 hc        1 DH3      0.051700
     35 H6'         2.8330   -2.2630   -4.0910 ha        1 DH3      0.161000
     36 H11         6.1470   -4.3180   -7.2260 hc        1 DH3      0.049700
     37 H12         5.2030   -3.8860   -8.7160 hc        1 DH3      0.049700
     38 H31         4.6460   -6.1650   -8.1740 hc        1 DH3      0.055200
     39 H32         3.2050   -5.1690   -7.7200 hc        1 DH3      0.055200
     40 H71         3.8110   -5.2930   -5.3340 hc        1 DH3      0.022700
     41 H72         5.4040   -6.0540   -5.7310 hc        1 DH3      0.022700
     42 H5'1        5.7580    0.8040   -8.5220 h1        1 DH3      0.042367
     43 H5'2        5.8320   -0.4830   -7.2080 h1        1 DH3      0.042367
     44 H5'3        5.9930    1.2910   -6.7630 h1        1 DH3      0.042367
     45 H4'1        2.5150    4.1010   -7.1940 h1        1 DH3      0.041033
     46 H4'2        1.1960    2.8650   -6.8540 h1        1 DH3      0.041033
     47 H4'3        2.6500    2.3930   -7.8690 h1        1 DH3      0.041033
     48 H2'         1.7650    1.9200   -3.6870 ha        1 DH3      0.145000
@<TRIPOS>BOND
     1    1    2 1   
     2    1   28 1   
     3    1   29 1   
     4    2    3 ar  
     5    2    8 ar  
     6    3    4 ar  
     7    4    5 1   
     8    4    6 ar  
     9    5   30 1   
    10    5   31 1   
    11    6    7 ar  
    12    7    8 ar  
    13    7   32 1   
    14    8    9 1   
    15    9   10 1   
    16    9   33 1   
    17    9   34 1   
    18   10   11 ar  
    19   10   27 ar  
    20   11   12 ar  
    21   11   35 1   
    22   12   13 1   
    23   12   21 ar  
    24   13   14 3   
    25   14   15 1   
    26   15   16 1   
    27   15   36 1   
    28   15   37 1   
    29   16   17 1   
    30   16   38 1   
    31   16   39 1   
    32   17   18 1   
    33   17   40 1   
    34   17   41 1   
    35   18   19 1   
    36   18   20 1   
    37   21   22 1   
    38   21   24 ar  
    39   22   23 1   
    40   23   42 1   
    41   23   43 1   
    42   23   44 1   
    43   24   25 1   
    44   24   27 ar  
    45   25   26 1   
    46   26   45 1   
    47   26   46 1   
    48   26   47 1   
    49   27   48 1   
@<TRIPOS>SUBSTRUCTURE
     1 DH3         1 TEMP              0 ****  ****    0 ROOT
