@<TRIPOS>MOLECULE
DH3
   48    49     1     0     0
SMALL
bcc


@<TRIPOS>ATOM
      1 N4          0.2940   -1.1310   -0.0720 nh        1 DH3     -0.926500
      2 C4          1.5210   -0.4680   -0.1450 ca        1 DH3      0.691200
      3 N3          2.1730   -0.1840    1.0260 nb        1 DH3     -0.812000
      4 C2          3.3220    0.5760    0.9340 ca        1 DH3      0.872900
      5 N2          3.9260    0.9800    2.1410 nh        1 DH3     -0.915500
      6 N1          3.8950    1.0180   -0.2530 nb        1 DH3     -0.771000
      7 C6          3.2370    0.6930   -1.3750 ca        1 DH3      0.487200
      8 C5          2.0430   -0.0440   -1.4150 ca        1 DH3     -0.396900
      9 C51         1.3420   -0.3680   -2.6810 c3        1 DH3      0.035200
     10 C1'         2.1140   -0.0580   -3.9190 ca        1 DH3     -0.087300
     11 C6'         2.7470   -1.0900   -4.6140 ca        1 DH3     -0.103000
     12 C52         3.4460   -0.8440   -5.8100 ca        1 DH3      0.052000
     13 C53         4.0370   -1.9350   -6.4670 cg        1 DH3     -0.193000
     14 C54         4.4920   -2.9240   -6.9720 c1        1 DH3     -0.039100
     15 C1          5.0200   -4.1270   -7.5450 c3        1 DH3     -0.018300
     16 C3          4.2580   -5.3660   -7.0930 c3        1 DH3     -0.057400
     17 C7          4.4080   -5.6370   -5.6170 c3        1 DH3     -0.200400
     18 C8          3.6990   -6.9470   -5.2240 c         1 DH3      0.909600
     19 O10         3.8970   -7.9730   -5.9360 o         1 DH3     -0.850300
     20 O9          2.9630   -6.9290   -4.1960 o         1 DH3     -0.850300
     21 C4'         3.5160    0.4760   -6.2980 ca        1 DH3      0.080100
     22 O5          4.1040    0.7880   -7.5150 os        1 DH3     -0.342900
     23 C5'         5.5230    0.6320   -7.5300 c3        1 DH3      0.117700
     24 C3'         2.8730    1.5140   -5.5930 ca        1 DH3      0.078100
     25 O4          2.9950    2.8420   -5.9850 os        1 DH3     -0.342900
     26 C4B         2.3110    3.1490   -7.1990 c3        1 DH3      0.117700
     27 C2'         2.1650    1.2490   -4.4170 ca        1 DH3     -0.138000
     28 HN41        0.0740   -1.6830   -0.8710 hn        1 DH3      0.412300
     29 HN42        0.0760   -1.5650    0.7980 hn        1 DH3      0.412300
     30 HN21        3.7030    0.4200    2.9330 hn        1 DH3      0.410800
     31 HN22        4.8880    1.2260    2.0650 hn        1 DH3      0.410800
     32 H6          3.7050    1.0480   -2.3160 h4        1 DH3      0.038100
     33 H511        0.3680    0.1980   -2.7080 hc        1 DH3      0.054200
     34 H512        1.0870   -1.4660   -2.6970 hc        1 DH3      0.054200
     35 H6'         2.7000   -2.1250   -4.2340 ha        1 DH3      0.165000
     36 H11         4.9800   -4.0490   -8.6670 hc        1 DH3      0.048200
     37 H12         6.1030   -4.2290   -7.2510 hc        1 DH3      0.048200
     38 H31         3.1720   -5.2490   -7.3440 hc        1 DH3      0.053200
     39 H32         4.6400   -6.2550   -7.6630 hc        1 DH3      0.053200
     40 H71         5.4910   -5.7380   -5.3520 hc        1 DH3      0.022200
     41 H72         3.9840   -4.7910   -5.0200 hc        1 DH3      0.022200
     42 H5'1        5.9950    1.3530   -6.8200 h1        1 DH3      0.042367
     43 H5'2        5.8030    0.8730   -8.5860 h1        1 DH3      0.042367
     44 H5'3        5.8080   -0.4160   -7.2720 h1        1 DH3      0.042367
     45 H4'1        1.2110    3.0070   -7.0670 h1        1 DH3      0.041033
     46 H4'2        2.6880    2.5130   -8.0370 h1        1 DH3      0.041033
     47 H4'3        2.5530    4.2260   -7.3740 h1        1 DH3      0.041033
     48 H2'         1.6680    2.0730   -3.8860 ha        1 DH3      0.145000
@<TRIPOS>BOND
     1    1    2 1   
     2    1   28 1   
     3    1   29 1   
     4    2    3 ar  
     5    2    8 ar  
     6    3    4 ar  
     7    4    5 1   
     8    4    6 ar  
     9    5   30 1   
    10    5   31 1   
    11    6    7 ar  
    12    7    8 ar  
    13    7   32 1   
    14    8    9 1   
    15    9   10 1   
    16    9   33 1   
    17    9   34 1   
    18   10   11 ar  
    19   10   27 ar  
    20   11   12 ar  
    21   11   35 1   
    22   12   13 1   
    23   12   21 ar  
    24   13   14 3   
    25   14   15 1   
    26   15   16 1   
    27   15   36 1   
    28   15   37 1   
    29   16   17 1   
    30   16   38 1   
    31   16   39 1   
    32   17   18 1   
    33   17   40 1   
    34   17   41 1   
    35   18   19 1   
    36   18   20 1   
    37   21   22 1   
    38   21   24 ar  
    39   22   23 1   
    40   23   42 1   
    41   23   43 1   
    42   23   44 1   
    43   24   25 1   
    44   24   27 ar  
    45   25   26 1   
    46   26   45 1   
    47   26   46 1   
    48   26   47 1   
    49   27   48 1   
@<TRIPOS>SUBSTRUCTURE
     1 DH3         1 TEMP              0 ****  ****    0 ROOT
