@<TRIPOS>MOLECULE
DH3
   48    49     1     0     0
SMALL
bcc


@<TRIPOS>ATOM
      1 N4         46.6010    0.8960   13.6260 nh        1 DH3     -0.926500
      2 C4         47.4340   -0.1180   13.1470 ca        1 DH3      0.691200
      3 N3         46.9200   -1.3850   13.0520 nb        1 DH3     -0.812000
      4 C2         47.7960   -2.3890   12.6920 ca        1 DH3      0.872900
      5 N2         47.3060   -3.7110   12.7170 nh        1 DH3     -0.915500
      6 N1         49.1330   -2.2030   12.3610 nb        1 DH3     -0.770000
      7 C6         49.5850   -0.9440   12.4410 ca        1 DH3      0.487200
      8 C5         48.8070    0.1590   12.8280 ca        1 DH3     -0.396900
      9 C51        49.3540    1.5340   12.9160 c3        1 DH3      0.035200
     10 C1'        50.7230    1.7000   12.3460 ca        1 DH3     -0.087300
     11 C6'        50.8790    2.2810   11.0870 ca        1 DH3     -0.103000
     12 C52        52.1560    2.4960   10.5360 ca        1 DH3      0.052000
     13 C53        52.2380    3.1080    9.2740 cg        1 DH3     -0.193000
     14 C54        52.2170    3.6530    8.2050 c1        1 DH3     -0.038100
     15 C1         52.1510    4.3050    6.9310 c3        1 DH3     -0.018300
     16 C3         50.8620    5.0970    6.7510 c3        1 DH3     -0.057400
     17 C7         49.6390    4.2170    6.7070 c3        1 DH3     -0.200400
     18 C8         48.3720    5.0490    6.4310 c         1 DH3      0.909600
     19 O10        48.4050    5.8960    5.4930 o         1 DH3     -0.850300
     20 O9         47.3580    4.8290    7.1530 o         1 DH3     -0.850300
     21 C4'        53.2900    2.0990   11.2710 ca        1 DH3      0.080100
     22 O5         54.5830    2.3600   10.8420 os        1 DH3     -0.342900
     23 C5'        54.9760    1.6060    9.6940 c3        1 DH3      0.117700
     24 C3'        53.1260    1.5140   12.5440 ca        1 DH3      0.078100
     25 O4         54.2080    1.0220   13.2620 os        1 DH3     -0.342900
     26 C4B        55.0760    2.0380   13.7640 c3        1 DH3      0.117700
     27 C2'        51.8500    1.3270   13.0850 ca        1 DH3     -0.138000
     28 HN41       46.8240    1.8070   13.2900 hn        1 DH3      0.412300
     29 HN42       45.6250    0.6950   13.6470 hn        1 DH3      0.412300
     30 HN21       47.8190   -4.3560   12.1590 hn        1 DH3      0.410800
     31 HN22       46.3170   -3.7970   12.6480 hn        1 DH3      0.410800
     32 H6         50.6510   -0.8070   12.1710 h4        1 DH3      0.038100
     33 H511       49.3700    1.8470   13.9990 hc        1 DH3      0.054200
     34 H512       48.6650    2.2460   12.3770 hc        1 DH3      0.054200
     35 H6'        49.9950    2.5900   10.5040 ha        1 DH3      0.165000
     36 H11        52.2280    3.5300    6.1180 hc        1 DH3      0.048200
     37 H12        53.0340    4.9960    6.8250 hc        1 DH3      0.048200
     38 H31        50.9240    5.6760    5.7910 hc        1 DH3      0.053200
     39 H32        50.7600    5.8390    7.5840 hc        1 DH3      0.053200
     40 H71        49.5190    3.6670    7.6740 hc        1 DH3      0.022200
     41 H72        49.7390    3.4590    5.8890 hc        1 DH3      0.022200
     42 H5'1       54.9980    0.5170    9.9400 h1        1 DH3      0.042367
     43 H5'2       56.0040    1.9850    9.4700 h1        1 DH3      0.042367
     44 H5'3       54.2850    1.8020    8.8380 h1        1 DH3      0.042367
     45 H4'1       54.5330    2.6770   14.5010 h1        1 DH3      0.041033
     46 H4'2       55.4800    2.6610   12.9290 h1        1 DH3      0.041033
     47 H4'3       55.8940    1.4620   14.2650 h1        1 DH3      0.041033
     48 H2'        51.7460    0.8740   14.0810 ha        1 DH3      0.145000
@<TRIPOS>BOND
     1    1    2 1   
     2    1   28 1   
     3    1   29 1   
     4    2    3 ar  
     5    2    8 ar  
     6    3    4 ar  
     7    4    5 1   
     8    4    6 ar  
     9    5   30 1   
    10    5   31 1   
    11    6    7 ar  
    12    7    8 ar  
    13    7   32 1   
    14    8    9 1   
    15    9   10 1   
    16    9   33 1   
    17    9   34 1   
    18   10   11 ar  
    19   10   27 ar  
    20   11   12 ar  
    21   11   35 1   
    22   12   13 1   
    23   12   21 ar  
    24   13   14 3   
    25   14   15 1   
    26   15   16 1   
    27   15   36 1   
    28   15   37 1   
    29   16   17 1   
    30   16   38 1   
    31   16   39 1   
    32   17   18 1   
    33   17   40 1   
    34   17   41 1   
    35   18   19 1   
    36   18   20 1   
    37   21   22 1   
    38   21   24 ar  
    39   22   23 1   
    40   23   42 1   
    41   23   43 1   
    42   23   44 1   
    43   24   25 1   
    44   24   27 ar  
    45   25   26 1   
    46   26   45 1   
    47   26   46 1   
    48   26   47 1   
    49   27   48 1   
@<TRIPOS>SUBSTRUCTURE
     1 DH3         1 TEMP              0 ****  ****    0 ROOT
