@<TRIPOS>MOLECULE
DH4
   46    39     1     0     0
SMALL
bcc


@<TRIPOS>ATOM
      1 C          -4.9870    1.8040   -0.1010 c1        1 DH4      0.000600
      2 N          -0.8430   -2.6620    1.5940 n1        1 DH4     -0.819200
      3 O          -5.9510    1.0410   -0.5940 oh        1 DH4     -0.385600
      4 CA         -4.1790    2.5330    0.3910 c1        1 DH4     -0.159100
      5 CAE         1.5520    0.6350    6.6690 c1        1 DH4     -0.257500
      6 CAF         2.2660    0.4640    5.7200 cg        1 DH4     -0.093300
      7 CAG         5.7670   -3.1670    6.4410 c1        1 DH4     -0.171000
      8 CAH         3.1190    0.2760    4.6350 ce        1 DH4     -0.294700
      9 CAI         4.9950   -2.3600    6.0130 c1        1 DH4     -0.171000
     10 CAJ         2.7320   -0.1700    3.4000 c2        1 DH4      0.151000
     11 NAL         1.5070   -0.6120    3.0270 nv        1 DH4     -0.821600
     12 H1         -5.5390    0.5490   -1.3320 ho        1 DH4      0.436000
     13 H2         -0.6970   -1.6850    1.5750 hn        1 DH4      0.499400
     14 H4          0.7130   -0.3820    3.5870 hn        1 DH4      0.449800
     15 H7          5.9030   -0.9550    3.1300 ha        1 DH4      0.000625
     16 H8          5.5460   -1.0020    3.7050 ha        1 DH4      0.000625
     17 H9          6.4780    0.5340    5.7100 ha        1 DH4      0.000625
     18 H10         6.1920   -0.0800    5.7040 ha        1 DH4      0.000625
     19 H11         4.1790    0.5330    4.7960 ha        1 DH4      0.129000
     20 H12         4.2980   -1.6440    5.6340 ha        1 DH4      0.169000
     21 H13         3.5150   -0.2580    2.6160 h4        1 DH4      0.123000
     22 H14         1.3000   -0.6650    2.0450 hn        1 DH4      0.449800
     23 H15        -1.3750    1.3610    4.1970 ha        1 DH4      0.000625
     24 H16        -1.6960    1.9180    4.4200 ha        1 DH4      0.000625
     25 N1         -2.0320    2.6560    1.5420 ny        1 DH4     -0.566800
     26 C3         -1.1550    1.9820    0.5970 ce        1 DH4     -0.398000
     27 C4         -0.9220    2.5120   -0.6790 ce        1 DH4      0.134800
     28 S1         -2.5200    4.6010   -0.2090 ss        1 DH4     -0.217700
     29 C6         -3.1950    3.4010    0.9460 c3        1 DH4      0.252700
     30 H3         -1.4740    3.3440    2.0560 hn        1 DH4      0.435800
     31 H18        -2.3600    1.9310    2.2080 hn        1 DH4      0.435800
     32 H24        -3.6650    4.0210    1.7660 hx        1 DH4      0.087700
     33 C1         -1.5510    3.6450   -1.1530 c2        1 DH4     -0.389400
     34 C2         -0.0090    1.7650   -1.5840 c3        1 DH4     -0.044900
     35 H17        -2.3520    3.9860    4.1730 ha        1 DH4      0.000625
     36 H20        -2.6680    4.4790    3.8330 ha        1 DH4      0.000625
     37 H21        -1.4720    3.9240   -2.2060 h4        1 DH4      0.134000
     38 H22         0.1050    2.2850   -2.5650 hc        1 DH4      0.044367
     39 H23        -0.4010    0.7310   -1.7540 hc        1 DH4      0.044367
     40 H25         0.9950    1.6590   -1.1000 hc        1 DH4      0.044367
     41 C5         -0.6570    0.6750    1.0960 c         1 DH4      0.918600
     42 O1          0.1740   -0.0310    0.4480 o         1 DH4     -0.885800
     43 O2         -1.0800    0.2500    2.2340 o         1 DH4     -0.885800
     44 H5          6.4510   -3.8820    6.8170 ha        1 DH4      0.169000
     45 CAC        -1.0250   -3.8210    1.6090 c1        1 DH4      0.299800
     46 H6          0.9150    0.7800    7.4990 ha        1 DH4      0.148500
@<TRIPOS>BOND
     1    1    3 1   
     2    1    4 3   
     3    2   13 1   
     4    2   45 3   
     5    3   12 1   
     6    4   29 1   
     7    5    6 3   
     8    5   46 1   
     9    6    8 1   
    10    7    9 3   
    11    7   44 1   
    12    8   10 2   
    13    8   19 1   
    14    9   20 1   
    15   10   11 1   
    16   10   21 1   
    17   11   14 1   
    18   11   22 1   
    19   15   16 1   
    20   17   18 1   
    21   23   24 1   
    22   25   26 1   
    23   25   29 1   
    24   25   30 1   
    25   25   31 1   
    26   26   27 1   
    27   26   41 2   
    28   27   33 2   
    29   27   34 1   
    30   28   29 1   
    31   28   33 1   
    32   29   32 1   
    33   33   37 1   
    34   34   38 1   
    35   34   39 1   
    36   34   40 1   
    37   35   36 1   
    38   41   42 1   
    39   41   43 1   
@<TRIPOS>SUBSTRUCTURE
     1 DH4         1 TEMP              0 ****  ****    0 ROOT
