@<TRIPOS>MOLECULE
DH4
   46    42     1     0     0
SMALL
bcc


@<TRIPOS>ATOM
      1 C           1.1430    1.9780    1.9870 c2        1 DH4      0.167000
      2 N          -0.1470    0.6390    3.7240 n3        1 DH4     -0.209000
      3 O           2.1730    2.0110    2.6720 o         1 DH4     -0.362000
      4 CA          0.0010    1.0170    2.3200 c3        1 DH4     -0.107000
      5 CAE        -2.6600   -1.8570   -0.8500 c1        1 DH4     -0.231250
      6 CAF        -3.1420   -2.9130   -1.1390 c1        1 DH4     -0.231250
      7 CAG         2.7900   -1.4670    8.3140 c1        1 DH4     -0.231250
      8 CAH         4.2560   -1.3030    4.8550 c3        1 DH4     -0.135000
      9 CAI         2.8230   -1.6030    9.5020 c1        1 DH4     -0.231250
     10 CAJ         2.7830   -1.3610    4.7840 c2        1 DH4     -0.424000
     11 NAL         2.0310   -0.3680    4.2960 n3        1 DH4      0.087000
     12 H1          0.9960    2.6290    1.0870 h4        1 DH4      0.206000
     13 H2          0.2050    0.0710    1.7260 h1        1 DH4      0.138000
     14 H4         -0.0760    1.4580    4.3030 hn        1 DH4      0.169000
     15 H7          4.6610   -0.2700    4.7120 hc        1 DH4      0.066667
     16 H8          4.5950   -1.6750    5.8550 hc        1 DH4      0.066667
     17 H9         -3.5680   -3.8480   -1.3950 ha        1 DH4      0.227250
     18 H10         2.2840   -2.2920    5.0840 h4        1 DH4      0.145000
     19 H11         1.1060    4.4460    2.9280 ha        1 DH4      0.001000
     20 H12         4.7070   -1.9620    4.0700 hc        1 DH4      0.066667
     21 H13         2.5160    0.4760    4.0080 hn        1 DH4      0.250000
     22 H14         2.8510   -1.7220   10.5540 ha        1 DH4      0.227250
     23 H15         1.0760    4.7920    2.3450 ha        1 DH4      0.001000
     24 H16         2.7580   -1.3430    7.2550 ha        1 DH4      0.227250
     25 N1         -1.6010    2.9240    2.1980 n3        1 DH4     -0.349000
     26 C3         -1.9100    3.5640   -0.4230 c1        1 DH4     -0.146000
     27 C4         -2.1160    2.2990   -1.1050 c3        1 DH4     -0.086000
     28 S1         -1.1520    1.1760   -0.0220 ss        1 DH4     -0.205000
     29 C6         -1.3440    1.5980    1.8010 c3        1 DH4      0.005000
     30 H3         -0.8580    3.5680    1.9650 hn        1 DH4      0.207500
     31 H18        -2.4700    3.2670    1.8280 hn        1 DH4      0.207500
     32 H24        -2.2000    0.9400    2.1140 h2        1 DH4      0.121000
     33 C1         -3.5680    1.8750   -1.1080 c3        1 DH4     -0.200500
     34 C2         -1.5050    2.1550   -2.4810 c3        1 DH4     -0.200500
     35 H17        -4.0010    1.9580   -0.0830 hc        1 DH4      0.082000
     36 H20        -3.6630    0.8190   -1.4610 hc        1 DH4      0.082000
     37 H21        -4.1530    2.5380   -1.7920 hc        1 DH4      0.082000
     38 H22        -2.1980    2.5730   -3.2510 hc        1 DH4      0.082000
     39 H23        -0.5410    2.7220   -2.5320 hc        1 DH4      0.082000
     40 H25        -1.3160    1.0800   -2.7170 hc        1 DH4      0.082000
     41 C5         -0.7550    4.4660   -0.5980 c2        1 DH4      0.318000
     42 O1         -0.7490    5.2900   -1.5560 o         1 DH4     -0.571500
     43 O2          0.1480    4.4120    0.3020 o         1 DH4     -0.571500
     44 H5          0.1630   -1.3280    4.4500 h5        1 DH4      0.174000
     45 CAC         0.6920   -0.4020    4.1740 c2        1 DH4     -0.306000
     46 H6         -2.2260   -0.9080   -0.5900 ha        1 DH4      0.227250
@<TRIPOS>BOND
     1    1    3 1   
     2    1    4 1   
     3    1   12 1   
     4    2    4 1   
     5    2   14 1   
     6    2   45 1   
     7    4   13 1   
     8    4   29 1   
     9    5    6 1   
    10    5   46 1   
    11    6   17 1   
    12    7    9 1   
    13    7   24 1   
    14    8   10 1   
    15    8   15 1   
    16    8   16 1   
    17    8   20 1   
    18    9   22 1   
    19   10   11 1   
    20   10   18 1   
    21   11   21 1   
    22   11   45 1   
    23   19   23 1   
    24   25   29 1   
    25   25   30 1   
    26   25   31 1   
    27   26   27 1   
    28   26   41 1   
    29   27   28 1   
    30   27   33 1   
    31   27   34 1   
    32   28   29 1   
    33   29   32 1   
    34   33   35 1   
    35   33   36 1   
    36   33   37 1   
    37   34   38 1   
    38   34   39 1   
    39   34   40 1   
    40   41   42 1   
    41   41   43 1   
    42   44   45 1   
@<TRIPOS>SUBSTRUCTURE
     1 DH4         1 TEMP              0 ****  ****    0 ROOT
