@<TRIPOS>MOLECULE
DH4
   46    47     1     0     0
SMALL
bcc


@<TRIPOS>ATOM
      1 C          -0.4920   -2.7660    0.0370 c         1 DH4      0.553900
      2 N           1.3850   -1.6470    1.2640 n2        1 DH4     -0.690900
      3 O          -0.5640   -3.9970    0.0350 o         1 DH4     -0.563100
      4 CA         -0.0140   -2.0060    1.2780 c3        1 DH4      0.004500
      5 CAE         3.7040    2.0380    0.1880 c3        1 DH4     -0.075400
      6 CAF         4.3530    1.6770    1.5080 c3        1 DH4     -0.075400
      7 CAG         4.2620    1.2390   -0.9690 c3        1 DH4     -0.101400
      8 CAH         3.9070    0.3400    2.0500 c3        1 DH4     -0.101400
      9 CAI         3.5510   -0.0910   -1.2130 c3        1 DH4      0.203800
     10 CAJ         4.1400   -0.8190    1.0790 c3        1 DH4      0.203800
     11 NAL         3.2540   -0.9120   -0.0550 nh        1 DH4     -0.731600
     12 H1         -0.7250   -2.1380   -0.8550 h4        1 DH4      0.065200
     13 H2         -0.1190   -2.6930    2.1720 h1        1 DH4      0.078700
     14 H4          1.3000   -1.1130   -0.8120 h5        1 DH4      0.065800
     15 H7          5.4700    1.6810    1.3880 hc        1 DH4      0.036950
     16 H8          4.1010    2.4700    2.2620 hc        1 DH4      0.036950
     17 H9          4.1630    1.8380   -1.9130 hc        1 DH4      0.043700
     18 H10         5.3580    1.0570   -0.8080 hc        1 DH4      0.043700
     19 H11         4.4830    0.1180    2.9880 hc        1 DH4      0.043700
     20 H12         2.8220    0.3910    2.3310 hc        1 DH4      0.043700
     21 H13         2.5980    0.1200   -1.7860 h1        1 DH4      0.052950
     22 H14         4.2160   -0.7140   -1.8810 h1        1 DH4      0.052950
     23 H15         5.1940   -0.7530    0.6830 h1        1 DH4      0.052950
     24 H16         4.0450   -1.7820    1.6600 h1        1 DH4      0.052950
     25 N1         -0.7880    0.4070    0.7770 n3        1 DH4     -0.798200
     26 C3         -1.8040    0.6440   -0.2520 c3        1 DH4      0.023500
     27 C4         -3.0760   -0.2030   -0.0340 c3        1 DH4      0.095100
     28 S1         -2.6630   -1.4260    1.2460 ss        1 DH4     -0.430200
     29 C6         -0.9810   -0.8120    1.5270 c3        1 DH4      0.289600
     30 H3          0.1160    0.4210    0.3310 hn        1 DH4      0.379800
     31 H18        -2.0860    1.7340   -0.1350 h1        1 DH4      0.070700
     32 H24        -0.9080   -0.5400    2.6160 h2        1 DH4      0.073700
     33 C1         -4.2090    0.6490    0.4930 c3        1 DH4     -0.083600
     34 C2         -3.5110   -0.9410   -1.2760 c3        1 DH4     -0.083600
     35 H17        -4.5060    1.4020   -0.2780 hc        1 DH4      0.043700
     36 H20        -5.0960    0.0140    0.7300 hc        1 DH4      0.043700
     37 H21        -3.8970    1.1890    1.4190 hc        1 DH4      0.043700
     38 H22        -2.6890   -1.6010   -1.6500 hc        1 DH4      0.043700
     39 H23        -4.4120   -1.5650   -1.0640 hc        1 DH4      0.043700
     40 H25        -3.7530   -0.2040   -2.0840 hc        1 DH4      0.043700
     41 C5         -1.2590    0.5020   -1.7140 c         1 DH4      0.908600
     42 O1         -1.8320    1.1710   -2.6110 o         1 DH4     -0.836800
     43 O2         -0.2520   -0.2440   -1.9110 o         1 DH4     -0.836800
     44 H5          2.5940    1.8910    0.2560 hc        1 DH4      0.036950
     45 CAC         1.8970   -1.2170    0.1390 c2        1 DH4      0.593100
     46 H6          3.8820    3.1290   -0.0090 hc        1 DH4      0.036950
@<TRIPOS>BOND
     1    1    3 2   
     2    1    4 1   
     3    1   12 1   
     4    2    4 1   
     5    2   45 2   
     6    4   13 1   
     7    4   29 1   
     8    5    6 1   
     9    5    7 1   
    10    5   44 1   
    11    5   46 1   
    12    6    8 1   
    13    6   15 1   
    14    6   16 1   
    15    7    9 1   
    16    7   17 1   
    17    7   18 1   
    18    8   10 1   
    19    8   19 1   
    20    8   20 1   
    21    9   11 1   
    22    9   21 1   
    23    9   22 1   
    24   10   11 1   
    25   10   23 1   
    26   10   24 1   
    27   11   45 1   
    28   14   45 1   
    29   25   26 1   
    30   25   29 1   
    31   25   30 1   
    32   26   27 1   
    33   26   31 1   
    34   26   41 1   
    35   27   28 1   
    36   27   33 1   
    37   27   34 1   
    38   28   29 1   
    39   29   32 1   
    40   33   35 1   
    41   33   36 1   
    42   33   37 1   
    43   34   38 1   
    44   34   39 1   
    45   34   40 1   
    46   41   42 1   
    47   41   43 1   
@<TRIPOS>SUBSTRUCTURE
     1 DH4         1 TEMP              0 ****  ****    0 ROOT
