@<TRIPOS>MOLECULE
DH4
   46    43     1     0     0
SMALL
bcc


@<TRIPOS>ATOM
      1 C           3.1240   -0.4620   -0.5000 c2        1 DH4      0.214000
      2 N           0.9820   -0.9620    0.7250 n3        1 DH4     -0.092000
      3 O           3.8430    0.5500   -0.4240 o         1 DH4     -0.379000
      4 CA          2.2480   -0.9330    0.5100 c1        1 DH4     -0.318000
      5 CAE         3.8530   -1.7590    3.4500 c3        1 DH4     -0.103000
      6 CAF         3.4790   -0.6310    4.3870 c3        1 DH4     -0.166000
      7 CAG         3.7190   -3.1160    4.0370 c2        1 DH4     -0.452000
      8 CAH         2.0330   -0.6270    4.8310 c3        1 DH4     -0.172000
      9 CAI         3.1490   -3.4440    5.1710 c1        1 DH4      0.121000
     10 CAJ         1.0530   -0.3070    3.7020 c3        1 DH4     -0.094000
     11 NAL         0.4810   -1.4630    3.0450 n3        1 DH4     -0.210000
     12 H1          3.2930   -1.2150   -1.3120 h4        1 DH4      0.066000
     13 H2         -4.5260    2.4770    1.6750 hx        1 DH4      0.097500
     14 H4          0.2870   -0.4330    0.1940 hn        1 DH4      0.273000
     15 H7          4.1310   -0.6770    5.3000 hc        1 DH4      0.084500
     16 H8          3.7010    0.3380    3.8620 hc        1 DH4      0.084500
     17 H9          1.9110    0.1680    5.6150 hc        1 DH4      0.082500
     18 H10         1.7800   -1.6060    5.3240 hc        1 DH4      0.082500
     19 H11         3.2690    1.8040    2.1650 ha        1 DH4      0.001000
     20 H12         3.1870    1.3690    1.6500 ha        1 DH4      0.001000
     21 H13         4.1400   -3.9180    3.3980 ha        1 DH4      0.182000
     22 H14         0.0130   -2.1040    3.6510 hn        1 DH4      0.235000
     23 H15         1.5600    0.3450    2.9320 h1        1 DH4      0.121000
     24 H16         0.1950    0.3000    4.1170 h1        1 DH4      0.121000
     25 N1         -2.5580    3.0860    2.2700 n4        1 DH4     -0.008000
     26 C3         -2.1690    2.7310    0.9070 c2        1 DH4     -0.218000
     27 C4         -2.5680    3.4580   -0.1650 c2        1 DH4     -0.018000
     28 S1         -4.6790    4.2970    3.2120 s         1 DH4     -0.739000
     29 C6         -4.0140    2.8280    2.6080 c3        1 DH4     -0.084000
     30 H3         -2.4030    4.0960    2.4350 hn        1 DH4      0.240000
     31 H18        -1.9450    2.5420    2.8990 hn        1 DH4      0.240000
     32 H24        -4.0350    2.0000    3.3620 hx        1 DH4      0.097500
     33 C1         -3.4080    4.6780   -0.0740 c3        1 DH4     -0.214000
     34 C2         -2.1460    3.0750   -1.5350 c3        1 DH4     -0.214000
     35 H17        -4.0520    4.7150    0.8500 hc        1 DH4      0.099833
     36 H20        -4.0840    4.7480   -0.9630 hc        1 DH4      0.099833
     37 H21        -2.7440    5.5800   -0.0720 hc        1 DH4      0.099833
     38 H22        -2.6210    2.1010   -1.8170 hc        1 DH4      0.099833
     39 H23        -2.4340    3.8560   -2.2790 hc        1 DH4      0.099833
     40 H25        -1.0380    2.9160   -1.5750 hc        1 DH4      0.099833
     41 C5         -1.2500    1.5150    0.8270 c2        1 DH4      0.371000
     42 O1         -1.0400    0.9630   -0.2860 o         1 DH4     -0.564500
     43 O2         -0.7220    1.1090    1.9090 o         1 DH4     -0.564500
     44 H5          3.2270   -1.6980    2.5090 hc        1 DH4      0.119000
     45 CAC         0.4020   -1.7600    1.7600 c1        1 DH4      0.055000
     46 H6          4.9250   -1.6180    3.1380 hc        1 DH4      0.119000
@<TRIPOS>BOND
     1    1    3 1   
     2    1    4 1   
     3    1   12 1   
     4    2    4 1   
     5    2   14 1   
     6    2   45 1   
     7    5    6 1   
     8    5    7 1   
     9    5   44 1   
    10    5   46 1   
    11    6    8 1   
    12    6   15 1   
    13    6   16 1   
    14    7    9 1   
    15    7   21 1   
    16    8   10 1   
    17    8   17 1   
    18    8   18 1   
    19   10   11 1   
    20   10   23 1   
    21   10   24 1   
    22   11   22 1   
    23   11   45 1   
    24   13   29 1   
    25   19   20 1   
    26   25   26 1   
    27   25   29 1   
    28   25   30 1   
    29   25   31 1   
    30   26   27 1   
    31   26   41 1   
    32   27   33 1   
    33   27   34 1   
    34   28   29 1   
    35   29   32 1   
    36   33   35 1   
    37   33   36 1   
    38   33   37 1   
    39   34   38 1   
    40   34   39 1   
    41   34   40 1   
    42   41   42 1   
    43   41   43 1   
@<TRIPOS>SUBSTRUCTURE
     1 DH4         1 TEMP              0 ****  ****    0 ROOT
