@<TRIPOS>MOLECULE
DH4
   46    44     1     0     0
SMALL
bcc


@<TRIPOS>ATOM
      1 C           0.7150   -0.4310   -1.5860 c1        1 DH4      0.222000
      2 N          -1.2720   -0.0240   -0.3930 n1        1 DH4     -0.228000
      3 O           0.0450   -0.6810   -2.5600 o         1 DH4     -0.339000
      4 CA          0.0790   -0.3530   -0.2510 c1        1 DH4     -0.092000
      5 CAC        -1.6700    1.2510   -0.2590 c1        1 DH4      0.071000
      6 CAE        -0.8000    5.1160   -0.0140 c3        1 DH4     -0.147000
      7 CAF         0.4310    5.1300    0.8690 c3        1 DH4     -0.147000
      8 CAG        -0.5490    4.3230   -1.2770 c3        1 DH4     -0.158000
      9 CAH         0.7680    3.7320    1.3480 c3        1 DH4     -0.158000
     10 CAI         0.0730    2.9910   -0.9590 c3        1 DH4     -0.028000
     11 CAJ        -0.4650    2.8460    1.3430 c3        1 DH4     -0.028000
     12 NAL        -0.6940    2.2930    0.0350 n2        1 DH4     -0.330000
     13 H1          1.6820   -0.2720   -1.6810 ha        1 DH4      0.152000
     14 H2          0.5240    0.3290    0.2790 ha        1 DH4      0.090000
     15 H4         -2.6260    1.4830   -0.3590 ha        1 DH4      0.151000
     16 H5         -1.5400    4.7130    0.4750 hc        1 DH4      0.075250
     17 H6         -1.0340    6.0300   -0.2520 hc        1 DH4      0.075250
     18 H7          1.1880    5.4880    0.3600 hc        1 DH4      0.075250
     19 H8          0.2610    5.7120    1.6550 hc        1 DH4      0.075250
     20 H9         -1.4030    4.1780   -1.7440 hc        1 DH4      0.079500
     21 H10         0.0560    4.8290   -1.8610 hc        1 DH4      0.079500
     22 H11         1.1240    3.7810    2.2580 hc        1 DH4      0.079500
     23 H12         1.4480    3.3430    0.7570 hc        1 DH4      0.079500
     24 H13         0.1120    2.4460   -1.7810 h1        1 DH4      0.078250
     25 H14         0.9820    3.1340   -0.6220 h1        1 DH4      0.078250
     26 H15        -1.2490    3.3820    1.6110 h1        1 DH4      0.078250
     27 H16        -0.3370    2.1050    1.9940 h1        1 DH4      0.078250
     28 N1         -0.9930   -2.3260    0.6060 n3        1 DH4     -0.299000
     29 C3         -0.7420   -3.9920    0.4810 c3        1 DH4     -0.110000
     30 C4          0.7920   -4.0940   -0.0560 c3        1 DH4     -0.035000
     31 S1          1.1410   -2.8100   -0.4470 ss        1 DH4     -0.149000
     32 C6          0.2090   -1.7640    0.4840 c3        1 DH4     -0.053000
     33 H3         -1.3430   -2.1290    1.4370 hn        1 DH4      0.207000
     34 H18        -0.9060   -4.4910    1.3330 h1        1 DH4      0.054000
     35 H24         0.6150   -1.6480    1.3650 h2        1 DH4      0.072000
     36 C1          0.8720   -5.0650   -1.2600 c3        1 DH4     -0.202500
     37 C2          1.6980   -4.5620    1.0510 c3        1 DH4     -0.202500
     38 H17         0.3090   -4.7310   -1.9880 hc        1 DH4      0.085500
     39 H20         0.5550   -5.9590   -0.9830 hc        1 DH4      0.085500
     40 H21         1.8130   -5.1290   -1.5720 hc        1 DH4      0.085500
     41 H22         1.5420   -4.0100    1.8630 hc        1 DH4      0.085500
     42 H23         2.6460   -4.4690    0.7650 hc        1 DH4      0.085500
     43 H25         1.5100   -5.4940    1.2520 hc        1 DH4      0.085500
     44 C5         -1.5760   -4.5520   -0.3150 c2        1 DH4      0.359000
     45 O1         -1.9970   -5.7200   -0.0720 o         1 DH4     -0.559000
     46 O2         -1.9940   -3.9300   -1.3310 o         1 DH4     -0.559000
@<TRIPOS>BOND
     1    1    3 1   
     2    1   13 1   
     3    2    5 1   
     4    4   14 1   
     5    4   32 1   
     6    5   15 1   
     7    6    7 1   
     8    6    8 1   
     9    6   16 1   
    10    6   17 1   
    11    7    9 1   
    12    7   18 1   
    13    7   19 1   
    14    8   10 1   
    15    8   20 1   
    16    8   21 1   
    17    9   11 1   
    18    9   22 1   
    19    9   23 1   
    20   10   12 1   
    21   10   24 1   
    22   10   25 1   
    23   11   12 1   
    24   11   26 1   
    25   11   27 1   
    26   28   29 1   
    27   28   32 1   
    28   28   33 1   
    29   29   30 1   
    30   29   34 1   
    31   29   44 1   
    32   30   31 1   
    33   30   36 1   
    34   30   37 1   
    35   31   32 1   
    36   32   35 1   
    37   36   38 1   
    38   36   39 1   
    39   36   40 1   
    40   37   41 1   
    41   37   42 1   
    42   37   43 1   
    43   44   45 1   
    44   44   46 1   
@<TRIPOS>SUBSTRUCTURE
     1 DH4         1 TEMP              0 ****  ****    0 ROOT
