@<TRIPOS>MOLECULE
DH6
   21    21     1     0     0
SMALL
bcc


@<TRIPOS>ATOM
      1 C1          0.0280   -0.2010   -1.1080 c         1 DH6      0.581300
      2 N1          1.2260   -0.2990   -0.1470 nz        1 DH6     -0.770400
      3 O1         -0.0320   -1.1620   -1.8620 o         1 DH6     -0.438100
      4 C2         -0.7780    0.9720   -0.9110 ce        1 DH6     -0.361200
      5 C3         -1.9560    1.2590   -1.5220 cf        1 DH6      0.145800
      6 C4         -2.6980    0.5730   -2.5450 ca        1 DH6     -0.170800
      7 C5         -4.1050    0.6980   -2.5240 ca        1 DH6     -0.064000
      8 C6         -4.8820    0.0730   -3.4910 ca        1 DH6     -0.136000
      9 C7         -4.2740   -0.6610   -4.5130 ca        1 DH6     -0.056000
     10 C8         -2.8830   -0.7660   -4.5610 ca        1 DH6     -0.136000
     11 C9         -2.0990   -0.1590   -3.5840 ca        1 DH6     -0.064000
     12 HN1         0.8960   -0.3000    0.8200 hn        1 DH6      0.462467
     13 HN1A        1.7440   -1.1660   -0.3300 hn        1 DH6      0.462467
     14 H2         -0.4130    1.7000   -0.1620 ha        1 DH6      0.158000
     15 H3         -2.4610    2.1840   -1.1530 ha        1 DH6      0.161000
     16 H5         -4.5910    1.2860   -1.7290 ha        1 DH6      0.143000
     17 H6         -5.9800    0.1620   -3.4560 ha        1 DH6      0.159000
     18 H7         -4.8920   -1.1500   -5.2840 ha        1 DH6      0.159000
     19 H8         -2.4010   -1.3310   -5.3750 ha        1 DH6      0.159000
     20 H9         -1.0030   -0.2360   -3.6500 ha        1 DH6      0.143000
     21 H13         1.8480    0.5010   -0.2850 hn        1 DH6      0.462467
@<TRIPOS>BOND
     1    1    2 1   
     2    1    3 2   
     3    1    4 1   
     4    2   12 1   
     5    2   13 1   
     6    2   21 1   
     7    4    5 2   
     8    4   14 1   
     9    5    6 1   
    10    5   15 1   
    11    6    7 ar  
    12    6   11 ar  
    13    7    8 ar  
    14    7   16 1   
    15    8    9 ar  
    16    8   17 1   
    17    9   10 ar  
    18    9   18 1   
    19   10   11 ar  
    20   10   19 1   
    21   11   20 1   
@<TRIPOS>SUBSTRUCTURE
     1 DH6         1 TEMP              0 ****  ****    0 ROOT
