@<TRIPOS>MOLECULE
DH6
   21    21     1     0     0
SMALL
bcc


@<TRIPOS>ATOM
      1 C1          0.0360   -0.2120   -1.1250 c         1 DH6      0.581300
      2 N1          1.2470   -0.3050   -0.1810 n4        1 DH6     -0.770400
      3 O1         -0.0750   -1.2080   -1.8260 o         1 DH6     -0.438100
      4 C2         -0.7210    1.0000   -0.9770 ce        1 DH6     -0.361200
      5 C3         -1.8980    1.3010   -1.5840 cf        1 DH6      0.145800
      6 C4         -2.6840    0.5920   -2.5560 ca        1 DH6     -0.170800
      7 C5         -4.0850    0.7730   -2.5200 ca        1 DH6     -0.064000
      8 C6         -4.9030    0.1290   -3.4400 ca        1 DH6     -0.136000
      9 C7         -4.3410   -0.6800   -4.4310 ca        1 DH6     -0.056000
     10 C8         -2.9570   -0.8420   -4.4960 ca        1 DH6     -0.136000
     11 C9         -2.1330   -0.2150   -3.5650 ca        1 DH6     -0.064000
     12 HN1         1.8960    0.4610   -0.3710 hn        1 DH6      0.462467
     13 HN1A        0.9360   -0.2430    0.7910 hn        1 DH6      0.462467
     14 H2         -0.3150    1.7520   -0.2730 ha        1 DH6      0.158000
     15 H3         -2.3610    2.2630   -1.2550 ha        1 DH6      0.161000
     16 H5         -4.5340    1.4200   -1.7490 ha        1 DH6      0.143000
     17 H6         -5.9960    0.2630   -3.3920 ha        1 DH6      0.159000
     18 H7         -4.9920   -1.1840   -5.1650 ha        1 DH6      0.159000
     19 H8         -2.5120   -1.4670   -5.2870 ha        1 DH6      0.159000
     20 H9         -1.0420   -0.3400   -3.6440 ha        1 DH6      0.143000
     21 H13         1.7280   -1.2010   -0.3260 hn        1 DH6      0.462467
@<TRIPOS>BOND
     1    1    2 1   
     2    1    3 2   
     3    1    4 1   
     4    2   12 1   
     5    2   13 1   
     6    2   21 1   
     7    4    5 2   
     8    4   14 1   
     9    5    6 1   
    10    5   15 1   
    11    6    7 ar  
    12    6   11 ar  
    13    7    8 ar  
    14    7   16 1   
    15    8    9 ar  
    16    8   17 1   
    17    9   10 ar  
    18    9   18 1   
    19   10   11 ar  
    20   10   19 1   
    21   11   20 1   
@<TRIPOS>SUBSTRUCTURE
     1 DH6         1 TEMP              0 ****  ****    0 ROOT
