@<TRIPOS>MOLECULE
DH7
   76    70     1     0     0
SMALL
bcc


@<TRIPOS>ATOM
      1 C1          5.5630    5.4700    7.7350 c3        1 DH7     -0.180000
      2 C2          3.0310    5.8240    7.4740 c3        1 DH7     -0.180000
      3 C3         -9.3330   -3.6470   -5.1560 c3        1 DH7     -0.180000
      4 C4          4.4420    1.4230    1.5730 c3        1 DH7     -0.174000
      5 C5         -1.8450   -2.7770   -3.4430 c3        1 DH7     -0.174000
      6 C6          7.2430    1.1500    4.2290 c3        1 DH7     -0.181000
      7 C7         -3.9050   -2.4310   -6.8050 c3        1 DH7     -0.181000
      8 C8          1.7310   -0.0850   -0.7930 c1        1 DH7     -0.077000
      9 C9          0.9680   -1.3270   -1.0290 c1        1 DH7     -0.077000
     10 C10         2.6550   -0.0170    0.2300 c1        1 DH7     -0.157000
     11 C11         0.0040   -1.3890   -2.0960 c1        1 DH7     -0.157000
     12 C12         4.3270    3.9930    6.1410 c1        1 DH7     -0.174000
     13 C13        -7.4280   -2.6780   -3.8050 c1        1 DH7     -0.174000
     14 C14         4.8340    0.0740    4.3120 c1        1 DH7     -0.168000
     15 C15        -3.5850   -0.6210   -5.1620 c1        1 DH7     -0.168000
     16 C16         5.5150    3.3340    5.8200 c2        1 DH7     -0.126000
     17 C17        -6.4710   -2.8500   -5.0950 c2        1 DH7     -0.126000
     18 C18         5.2240   -0.7610    3.0260 c2        1 DH7     -0.126000
     19 C19        -1.9860   -0.6640   -5.4320 c2        1 DH7     -0.126000
     20 C20         3.9710   -1.0470    2.2180 c3        1 DH7     -0.115000
     21 C21        -1.2360   -0.2120   -4.1830 c3        1 DH7     -0.115000
     22 C22         5.3980    1.8340    6.1710 c3        1 DH7     -0.121000
     23 C23        -5.9950   -1.4640   -5.5940 c3        1 DH7     -0.121000
     24 C24         4.3370    5.0830    7.1160 c2        1 DH7     -0.116000
     25 C25        -8.7650   -3.0630   -3.8620 c2        1 DH7     -0.116000
     26 C26         3.6870    0.0950    1.3560 c2        1 DH7     -0.050000
     27 C27        -1.0150   -1.4550   -3.2230 c2        1 DH7     -0.050000
     28 C28         5.7830    0.9820    4.8900 c2        1 DH7     -0.116000
     29 C29        -4.4450   -1.5030   -5.8580 c2        1 DH7     -0.116000
     30 H1          5.8900    4.7500    8.2630 hc        1 DH7      0.079833
     31 H2          5.4140    6.2230    8.2860 hc        1 DH7      0.079833
     32 H3          6.3050    5.7220    6.9480 hc        1 DH7      0.079833
     33 H4          2.1870    5.0430    7.7340 hc        1 DH7      0.079833
     34 H5          3.2080    6.4820    8.3480 hc        1 DH7      0.079833
     35 H6          2.7170    6.4300    6.6310 hc        1 DH7      0.079833
     36 H7         -9.3170   -3.0050   -5.8170 hc        1 DH7      0.079833
     37 H8        -10.3100   -3.9410   -4.9970 hc        1 DH7      0.079833
     38 H9         -8.7300   -4.5230   -5.4690 hc        1 DH7      0.079833
     39 H10         5.5510    1.3270    1.1270 hc        1 DH7      0.084667
     40 H11         3.9410    2.1850    1.0890 hc        1 DH7      0.084667
     41 H12         4.4890    1.6170    2.5280 hc        1 DH7      0.084667
     42 H13        -1.7410   -3.3470   -2.6920 hc        1 DH7      0.084667
     43 H14        -2.6940   -2.5750   -3.5420 hc        1 DH7      0.084667
     44 H15        -1.5010   -3.2630   -4.2970 hc        1 DH7      0.084667
     45 H16         7.8460    1.7390    4.8700 hc        1 DH7      0.081000
     46 H17         7.1410    1.6640    3.2200 hc        1 DH7      0.081000
     47 H18         7.6830    0.1990    4.0980 hc        1 DH7      0.081000
     48 H19        -3.3030   -3.0870   -6.3280 hc        1 DH7      0.081000
     49 H20        -3.3230   -1.8820   -7.5780 hc        1 DH7      0.081000
     50 H21        -4.6040   -2.8910   -7.2110 hc        1 DH7      0.081000
     51 H22         1.6080    0.6890   -1.4050 ha        1 DH7      0.136000
     52 H23         1.2520   -2.1320   -0.6270 ha        1 DH7      0.136000
     53 H24         3.4870    3.7250    5.7130 ha        1 DH7      0.122000
     54 H25        -7.0980   -2.3380   -3.0480 ha        1 DH7      0.122000
     55 H26         3.8580   -0.0350    4.7480 ha        1 DH7      0.122000
     56 H27        -4.0070    0.0980   -4.4290 ha        1 DH7      0.122000
     57 H28         6.2830    3.7480    6.3440 ha        1 DH7      0.089500
     58 H29         5.7160    3.4370    4.7180 ha        1 DH7      0.089500
     59 H30        -6.9900   -3.3220   -5.8440 ha        1 DH7      0.089500
     60 H31        -5.7270   -3.3650   -4.8590 ha        1 DH7      0.089500
     61 H32         5.8470   -0.2430    2.4790 ha        1 DH7      0.091000
     62 H33         5.6970   -1.6930    3.3220 ha        1 DH7      0.091000
     63 H34        -1.6880   -1.6780   -5.6770 ha        1 DH7      0.091000
     64 H35        -1.7360    0.0010   -6.2770 ha        1 DH7      0.091000
     65 H36         3.1570   -1.2060    2.8740 hc        1 DH7      0.089000
     66 H37         4.1060   -1.8340    1.6700 hc        1 DH7      0.089000
     67 H38        -1.7760    0.5150   -3.6970 hc        1 DH7      0.089000
     68 H39        -0.3610    0.1470   -4.4430 hc        1 DH7      0.089000
     69 H40         6.0900    1.5910    7.0000 hc        1 DH7      0.084500
     70 H41         4.4610    1.6240    6.4500 hc        1 DH7      0.084500
     71 H42        -6.1640   -0.8870   -5.0140 hc        1 DH7      0.084500
     72 H43        -6.4080   -1.2640   -6.3350 hc        1 DH7      0.084500
     73 C30        -9.6660   -2.9010   -2.6370 c3        1 DH7     -0.180000
     74 H44        -9.0640   -2.6530   -1.7730 hc        1 DH7      0.079833
     75 H45       -10.2020   -2.2890   -2.7780 hc        1 DH7      0.079833
     76 H46       -10.2320   -3.8730   -2.4420 hc        1 DH7      0.079833
@<TRIPOS>BOND
     1    1   24 1   
     2    1   30 1   
     3    1   31 1   
     4    1   32 1   
     5    2   24 1   
     6    2   33 1   
     7    2   34 1   
     8    2   35 1   
     9    3   25 1   
    10    3   36 1   
    11    3   37 1   
    12    3   38 1   
    13    4   26 1   
    14    4   39 1   
    15    4   40 1   
    16    4   41 1   
    17    5   27 1   
    18    5   42 1   
    19    5   43 1   
    20    5   44 1   
    21    6   28 1   
    22    6   45 1   
    23    6   46 1   
    24    6   47 1   
    25    7   29 1   
    26    7   48 1   
    27    7   49 1   
    28    7   50 1   
    29    8   10 1   
    30    8   51 1   
    31    9   11 1   
    32    9   52 1   
    33   10   26 1   
    34   11   27 1   
    35   12   24 1   
    36   12   53 1   
    37   13   25 1   
    38   13   54 1   
    39   14   28 1   
    40   14   55 1   
    41   15   29 1   
    42   15   56 1   
    43   16   22 1   
    44   16   57 1   
    45   16   58 1   
    46   17   23 1   
    47   17   59 1   
    48   17   60 1   
    49   18   20 1   
    50   18   61 1   
    51   18   62 1   
    52   19   21 1   
    53   19   63 1   
    54   19   64 1   
    55   20   26 1   
    56   20   65 1   
    57   20   66 1   
    58   21   27 1   
    59   21   67 1   
    60   21   68 1   
    61   22   28 1   
    62   22   69 1   
    63   22   70 1   
    64   23   29 1   
    65   23   71 1   
    66   23   72 1   
    67   25   73 1   
    68   73   74 1   
    69   73   75 1   
    70   73   76 1   
@<TRIPOS>SUBSTRUCTURE
     1 DH7         1 TEMP              0 ****  ****    0 ROOT
