@<TRIPOS>MOLECULE
DH7
   76    75     1     0     0
SMALL
bcc


@<TRIPOS>ATOM
      1 C1          0.9130    0.1650    1.1360 c3        1 DH7     -0.185500
      2 C2          3.3570   -0.0870    1.6630 c3        1 DH7     -0.185500
      3 C3         -4.4810   -1.2890   -0.0140 c3        1 DH7     -0.121000
      4 C4         -3.3220    1.6110   -8.2570 c3        1 DH7     -0.187000
      5 C5         -3.1000   -3.5190   -4.7600 c3        1 DH7     -0.171000
      6 C6          0.4930    0.0110   -4.5410 c3        1 DH7     -0.225000
      7 C7         -5.7880    0.3440   -1.3440 c3        1 DH7     -0.207000
      8 C8         -3.5680   -1.9150   -9.0610 c2        1 DH7     -0.084000
      9 C9         -4.1280   -2.9250   -8.1830 c2        1 DH7     -0.072000
     10 C10        -3.0410   -0.7780   -8.6950 c1        1 DH7     -0.163000
     11 C11        -4.1440   -2.8940   -6.8770 c1        1 DH7     -0.157000
     12 C12         2.6170    0.3130   -0.6580 c2        1 DH7     -0.183000
     13 C13        -2.0820   -1.6640   -0.5310 c2        1 DH7     -0.176000
     14 C14         0.9210    2.4600   -4.5580 c2        1 DH7     -0.282000
     15 C15        -4.8740   -1.7150   -2.4320 c3        1 DH7     -0.151000
     16 C16         1.6020    0.5270   -1.7150 c3        1 DH7     -0.124000
     17 C17        -2.0960   -0.7060   -1.6610 c3        1 DH7     -0.128000
     18 C18        -0.0120    2.6430   -5.5910 c1        1 DH7     -0.113000
     19 C19        -4.9540   -1.2230   -3.8620 c3        1 DH7     -0.154000
     20 C20        -1.0540    0.5320   -8.1150 c3        1 DH7     -0.187000
     21 C21        -5.3450   -2.3360   -4.8210 c3        1 DH7     -0.117000
     22 C22         2.2280    1.0230   -3.0070 c3        1 DH7     -0.163000
     23 C23        -3.3370    0.1620   -1.6850 c3        1 DH7     -0.147000
     24 C24         2.3090    0.1370    0.6370 c2        1 DH7     -0.103000
     25 C25        -3.1640   -1.9490    0.2080 c2        1 DH7     -0.104000
     26 C26        -2.5090    0.3720   -8.3730 c2        1 DH7     -0.043000
     27 C27        -4.1840   -2.9070   -5.5700 c2        1 DH7     -0.058000
     28 C28         1.2070    1.2180   -4.0730 c2        1 DH7      0.077000
     29 C29        -4.6130   -0.6250   -1.3910 c3        1 DH7     -0.045000
     30 H1          0.8420   -0.2740    2.1610 hc        1 DH7      0.082500
     31 H2          0.5440    1.2210    1.1790 hc        1 DH7      0.082500
     32 H3          0.2330   -0.4110    0.4560 hc        1 DH7      0.082500
     33 H4          4.3840   -0.0260    1.2280 hc        1 DH7      0.082500
     34 H5          3.2290   -1.0990    2.1250 hc        1 DH7      0.082500
     35 H6          3.2690    0.6790    2.4740 hc        1 DH7      0.082500
     36 H7         -4.6170   -0.5090    0.7850 hc        1 DH7      0.088500
     37 H8         -5.8400   -2.2250   -2.1670 hc        1 DH7      0.082000
     38 H9         -5.3050   -2.0410    0.1130 hc        1 DH7      0.088500
     39 H10        -2.9020    2.4020   -8.9260 hc        1 DH7      0.089333
     40 H11        -4.3890    1.4330   -8.5370 hc        1 DH7      0.089333
     41 H12        -3.2860    1.9860   -7.2040 hc        1 DH7      0.089333
     42 H13        -2.5750   -2.7270   -4.1680 hc        1 DH7      0.082000
     43 H14        -2.3480   -4.0360   -5.4040 hc        1 DH7      0.082000
     44 H15        -3.5310   -4.2640   -4.0450 hc        1 DH7      0.082000
     45 H16        -0.3480   -0.2280   -3.8370 hc        1 DH7      0.109000
     46 H17         1.1800   -0.8700   -4.5730 hc        1 DH7      0.109000
     47 H18         0.0550    0.1830   -5.5610 hc        1 DH7      0.109000
     48 H19        -6.7400   -0.2120   -1.1710 hc        1 DH7      0.074667
     49 H20        -5.8710    0.9070   -2.3040 hc        1 DH7      0.074667
     50 H21        -5.6510    1.0820   -0.5180 hc        1 DH7      0.074667
     51 H22        -3.6130   -2.1660  -10.1390 ha        1 DH7      0.132000
     52 H23        -4.5790   -3.7920   -8.7030 ha        1 DH7      0.134000
     53 H24         3.6670    0.2940   -0.9920 ha        1 DH7      0.124000
     54 H25        -1.1150   -2.1560   -0.3390 ha        1 DH7      0.120000
     55 H26         1.4770    3.3250   -4.1440 ha        1 DH7      0.103000
     56 H27        -4.0580   -2.4840   -2.3560 hc        1 DH7      0.082000
     57 H28         0.8320    1.2680   -1.3630 hc        1 DH7      0.092000
     58 H29         1.0580   -0.4400   -1.9090 hc        1 DH7      0.092000
     59 H30        -2.0230   -1.2860   -2.6240 hc        1 DH7      0.083500
     60 H31        -1.1850   -0.0480   -1.6030 hc        1 DH7      0.083500
     61 H32        -0.4680    3.6360   -5.6980 ha        1 DH7      0.052000
     62 H33        -0.8800    1.2290   -7.2510 hc        1 DH7      0.089333
     63 H34        -3.9690   -0.7840   -4.1700 hc        1 DH7      0.084500
     64 H35        -5.7170   -0.4040   -3.9330 hc        1 DH7      0.084500
     65 H36        -0.5630    0.9700   -9.0200 hc        1 DH7      0.089333
     66 H37        -0.5690   -0.4480   -7.8910 hc        1 DH7      0.089333
     67 H38        -6.0990   -1.9370   -5.5520 hc        1 DH7      0.087000
     68 H39        -5.8430   -3.1730   -4.2600 hc        1 DH7      0.087000
     69 H40         2.9820    0.2720   -3.3700 hc        1 DH7      0.102500
     70 H41         2.7800    1.9800   -2.8070 hc        1 DH7      0.102500
     71 H42        -3.4260    0.6640   -2.6830 hc        1 DH7      0.082500
     72 H43        -3.2370    0.9700   -0.9120 hc        1 DH7      0.082500
     73 C30        -3.1270   -2.9250    1.3230 c3        1 DH7     -0.181000
     74 H44        -3.5120   -2.4530    2.2610 hc        1 DH7      0.080333
     75 H45        -2.0900   -3.2950    1.5120 hc        1 DH7      0.080333
     76 H46        -3.7770   -3.8040    1.0840 hc        1 DH7      0.080333
@<TRIPOS>BOND
     1    1   24 1   
     2    1   30 1   
     3    1   31 1   
     4    1   32 1   
     5    2   24 1   
     6    2   33 1   
     7    2   34 1   
     8    2   35 1   
     9    3   25 1   
    10    3   29 1   
    11    3   36 1   
    12    3   38 1   
    13    4   26 1   
    14    4   39 1   
    15    4   40 1   
    16    4   41 1   
    17    5   27 1   
    18    5   42 1   
    19    5   43 1   
    20    5   44 1   
    21    6   28 1   
    22    6   45 1   
    23    6   46 1   
    24    6   47 1   
    25    7   29 1   
    26    7   48 1   
    27    7   49 1   
    28    7   50 1   
    29    8    9 1   
    30    8   10 1   
    31    8   51 1   
    32    9   11 1   
    33    9   52 1   
    34   10   26 1   
    35   11   27 1   
    36   12   16 1   
    37   12   24 1   
    38   12   53 1   
    39   13   17 1   
    40   13   25 1   
    41   13   54 1   
    42   14   18 1   
    43   14   28 1   
    44   14   55 1   
    45   15   19 1   
    46   15   29 1   
    47   15   37 1   
    48   15   56 1   
    49   16   22 1   
    50   16   57 1   
    51   16   58 1   
    52   17   23 1   
    53   17   59 1   
    54   17   60 1   
    55   18   61 1   
    56   19   21 1   
    57   19   63 1   
    58   19   64 1   
    59   20   26 1   
    60   20   62 1   
    61   20   65 1   
    62   20   66 1   
    63   21   27 1   
    64   21   67 1   
    65   21   68 1   
    66   22   28 1   
    67   22   69 1   
    68   22   70 1   
    69   23   29 1   
    70   23   71 1   
    71   23   72 1   
    72   25   73 1   
    73   73   74 1   
    74   73   75 1   
    75   73   76 1   
@<TRIPOS>SUBSTRUCTURE
     1 DH7         1 TEMP              0 ****  ****    0 ROOT
