@<TRIPOS>MOLECULE
DH7
   76    75     1     0     0
SMALL
bcc


@<TRIPOS>ATOM
      1 C1          1.0160   -0.1620    0.8760 c3        1 DH7     -0.185000
      2 C2          3.4380   -0.4660    1.4660 c3        1 DH7     -0.185000
      3 C3         -4.3830   -0.8470   -0.3840 c3        1 DH7     -0.121000
      4 C4         -3.9920    1.7300   -7.9450 c3        1 DH7     -0.185500
      5 C5         -3.3540   -4.3430   -4.6680 c3        1 DH7     -0.173000
      6 C6          0.8250    0.3190   -4.8020 c3        1 DH7     -0.227000
      7 C7         -5.4640    0.5720   -2.1070 c3        1 DH7     -0.207000
      8 C8         -2.8040   -1.6740   -8.3220 c2        1 DH7     -0.083000
      9 C9         -3.6070   -2.8290   -7.9430 c2        1 DH7     -0.075000
     10 C10        -2.9470   -0.4790   -7.8200 c1        1 DH7     -0.163000
     11 C11        -3.9200   -3.1370   -6.7150 c1        1 DH7     -0.160000
     12 C12         2.7840    0.1410   -0.8350 c2        1 DH7     -0.183000
     13 C13        -2.0880   -1.7140   -0.7550 c2        1 DH7     -0.175000
     14 C14         1.2250    2.7580   -4.5090 c2        1 DH7     -0.284000
     15 C15        -4.8870   -1.8060   -2.6280 c3        1 DH7     -0.150000
     16 C16         1.8120    0.4500   -1.9100 c3        1 DH7     -0.124000
     17 C17        -1.9650   -1.0470   -2.0720 c3        1 DH7     -0.127000
     18 C18         0.3250    3.0540   -5.5480 c1        1 DH7     -0.116000
     19 C19        -5.1950   -1.5980   -4.0960 c3        1 DH7     -0.155000
     20 C20        -2.3790    1.1620   -6.0980 c3        1 DH7     -0.185500
     21 C21        -5.4470   -2.9140   -4.8150 c3        1 DH7     -0.116000
     22 C22         2.4750    1.1540   -3.0810 c3        1 DH7     -0.165000
     23 C23        -3.0750   -0.0540   -2.3490 c3        1 DH7     -0.149000
     24 C24         2.4290   -0.1480    0.4270 c2        1 DH7     -0.102000
     25 C25        -3.1880   -1.6450    0.0090 c2        1 DH7     -0.105000
     26 C26        -3.0980    0.7200   -7.3210 c2        1 DH7     -0.044000
     27 C27        -4.2170   -3.4460   -5.4790 c2        1 DH7     -0.055000
     28 C28         1.4990    1.4690   -4.1610 c2        1 DH7      0.086000
     29 C29        -4.4480   -0.5410   -1.8870 c3        1 DH7     -0.044000
     30 H1          0.9100   -0.6850    1.8580 hc        1 DH7      0.082833
     31 H2          0.6420    0.8870    0.9950 hc        1 DH7      0.082833
     32 H3          0.3610   -0.6780    0.1280 hc        1 DH7      0.082833
     33 H4          4.4800   -0.3680    1.0740 hc        1 DH7      0.082833
     34 H5          3.2950   -1.5140    1.8300 hc        1 DH7      0.082833
     35 H6          3.3210    0.2260    2.3370 hc        1 DH7      0.082833
     36 H7         -4.3570    0.1220    0.1860 hc        1 DH7      0.087500
     37 H8         -5.8060   -2.2120   -2.1260 hc        1 DH7      0.081500
     38 H9         -5.3170   -1.3870   -0.0750 hc        1 DH7      0.087500
     39 H10        -3.4120    2.6590   -8.1680 hc        1 DH7      0.087833
     40 H11        -4.4430    1.3520   -8.8940 hc        1 DH7      0.087833
     41 H12        -4.8190    1.9910   -7.2380 hc        1 DH7      0.087833
     42 H13        -2.8800   -3.7630   -3.8360 hc        1 DH7      0.082667
     43 H14        -2.5430   -4.8010   -5.2860 hc        1 DH7      0.082667
     44 H15        -3.9670   -5.1650   -4.2210 hc        1 DH7      0.082667
     45 H16        -0.0140   -0.0400   -4.1490 hc        1 DH7      0.110000
     46 H17         1.5400   -0.5270   -4.9480 hc        1 DH7      0.110000
     47 H18         0.3890    0.6210   -5.7920 hc        1 DH7      0.110000
     48 H19        -6.4890    0.2150   -1.8470 hc        1 DH7      0.074333
     49 H20        -5.4570    0.8980   -3.1750 hc        1 DH7      0.074333
     50 H21        -5.2210    1.4560   -1.4700 hc        1 DH7      0.074333
     51 H22        -2.0420   -1.8700   -9.0990 ha        1 DH7      0.138000
     52 H23        -3.9400   -3.4670   -8.7830 ha        1 DH7      0.138000
     53 H24         3.8450    0.1490   -1.1300 ha        1 DH7      0.123000
     54 H25        -1.2110   -2.3000   -0.4380 ha        1 DH7      0.119000
     55 H26         1.7590    3.5690   -3.9750 ha        1 DH7      0.099000
     56 H27        -4.0810   -2.5790   -2.5180 hc        1 DH7      0.081500
     57 H28         0.9820    1.0930   -1.5080 hc        1 DH7      0.092000
     58 H29         1.3400   -0.5080   -2.2670 hc        1 DH7      0.092000
     59 H30        -1.9550   -1.8370   -2.8750 hc        1 DH7      0.084000
     60 H31        -0.9740   -0.5150   -2.1240 hc        1 DH7      0.084000
     61 H32        -0.0850    4.0730   -5.5840 ha        1 DH7      0.048000
     62 H33        -1.5320    1.8500   -6.3680 hc        1 DH7      0.087833
     63 H34        -4.3550   -1.0480   -4.5960 hc        1 DH7      0.086500
     64 H35        -6.1120   -0.9570   -4.1910 hc        1 DH7      0.086500
     65 H36        -1.9570    0.2920   -5.5370 hc        1 DH7      0.087833
     66 H37        -3.0820    1.7100   -5.4230 hc        1 DH7      0.087833
     67 H38        -6.2440   -2.7540   -5.5900 hc        1 DH7      0.086500
     68 H39        -5.8370   -3.6780   -4.0910 hc        1 DH7      0.086500
     69 H40         3.2780    0.4920   -3.5110 hc        1 DH7      0.103000
     70 H41         2.9770    2.0890   -2.7150 hc        1 DH7      0.103000
     71 H42        -3.1030    0.1770   -3.4470 hc        1 DH7      0.082500
     72 H43        -2.8500    0.9070   -1.8120 hc        1 DH7      0.082500
     73 C30        -3.2910   -2.3360    1.3160 c3        1 DH7     -0.181000
     74 H44        -3.5790   -1.6070    2.1150 hc        1 DH7      0.079667
     75 H45        -2.3240   -2.8150    1.6050 hc        1 DH7      0.079667
     76 H46        -4.0780   -3.1300    1.2690 hc        1 DH7      0.079667
@<TRIPOS>BOND
     1    1   24 1   
     2    1   30 1   
     3    1   31 1   
     4    1   32 1   
     5    2   24 1   
     6    2   33 1   
     7    2   34 1   
     8    2   35 1   
     9    3   25 1   
    10    3   29 1   
    11    3   36 1   
    12    3   38 1   
    13    4   26 1   
    14    4   39 1   
    15    4   40 1   
    16    4   41 1   
    17    5   27 1   
    18    5   42 1   
    19    5   43 1   
    20    5   44 1   
    21    6   28 1   
    22    6   45 1   
    23    6   46 1   
    24    6   47 1   
    25    7   29 1   
    26    7   48 1   
    27    7   49 1   
    28    7   50 1   
    29    8    9 1   
    30    8   10 1   
    31    8   51 1   
    32    9   11 1   
    33    9   52 1   
    34   10   26 1   
    35   11   27 1   
    36   12   16 1   
    37   12   24 1   
    38   12   53 1   
    39   13   17 1   
    40   13   25 1   
    41   13   54 1   
    42   14   18 1   
    43   14   28 1   
    44   14   55 1   
    45   15   19 1   
    46   15   29 1   
    47   15   37 1   
    48   15   56 1   
    49   16   22 1   
    50   16   57 1   
    51   16   58 1   
    52   17   23 1   
    53   17   59 1   
    54   17   60 1   
    55   18   61 1   
    56   19   21 1   
    57   19   63 1   
    58   19   64 1   
    59   20   26 1   
    60   20   62 1   
    61   20   65 1   
    62   20   66 1   
    63   21   27 1   
    64   21   67 1   
    65   21   68 1   
    66   22   28 1   
    67   22   69 1   
    68   22   70 1   
    69   23   29 1   
    70   23   71 1   
    71   23   72 1   
    72   25   73 1   
    73   73   74 1   
    74   73   75 1   
    75   73   76 1   
@<TRIPOS>SUBSTRUCTURE
     1 DH7         1 TEMP              0 ****  ****    0 ROOT
