@<TRIPOS>MOLECULE
DH7
   76    75     1     0     0
SMALL
bcc


@<TRIPOS>ATOM
      1 C1         -5.8920    4.8300   -1.8350 c3        1 DH7     -0.057900
      2 C2         -7.8050    5.8120   -0.5310 c3        1 DH7     -0.057900
      3 C3          5.9050    4.8020    1.8600 c3        1 DH7     -0.057900
      4 C4         -3.6940   -5.0200    1.1080 c3        1 DH7     -0.051900
      5 C5          3.6780   -5.0250   -1.1390 c3        1 DH7     -0.051900
      6 C6         -6.6360   -0.8110   -1.7530 c3        1 DH7     -0.059900
      7 C7          6.6320   -0.8420    1.7480 c3        1 DH7     -0.059900
      8 C8         -0.6340   -3.7590   -0.3770 ce        1 DH7     -0.135100
      9 C9          0.6230   -3.7640    0.3540 ce        1 DH7     -0.135100
     10 C10        -1.8040   -3.7600    0.2030 c1        1 DH7     -0.038800
     11 C11         1.7920   -3.7640   -0.2270 c1        1 DH7     -0.038800
     12 C12        -7.3360    3.3890   -0.4350 c2        1 DH7     -0.178200
     13 C13         7.3460    3.3630    0.4550 c2        1 DH7     -0.178200
     14 C14        -5.4620   -0.8880    0.4230 c2        1 DH7     -0.175200
     15 C15         5.4590   -0.9030   -0.4290 c2        1 DH7     -0.175200
     16 C16        -6.5870    2.1620   -0.7930 c3        1 DH7     -0.043200
     17 C17         6.5930    2.1370    0.8050 c3        1 DH7     -0.043200
     18 C18        -4.7360   -2.1310    0.0700 c3        1 DH7     -0.043200
     19 C19         4.7290   -2.1450   -0.0840 c3        1 DH7     -0.043200
     20 C20        -3.6930   -2.4910    1.1130 c3        1 DH7     -0.035200
     21 C21         3.6850   -2.4960   -1.1280 c3        1 DH7     -0.035200
     22 C22        -7.0520    0.9580    0.0050 c3        1 DH7     -0.039200
     23 C23         7.0550    0.9360    0.0000 c3        1 DH7     -0.039200
     24 C24        -7.0280    4.6070   -0.9090 c2        1 DH7     -0.123400
     25 C25         7.0420    4.5800    0.9340 c2        1 DH7     -0.123400
     26 C26        -2.9850   -3.7600    0.7650 c2        1 DH7     -0.124500
     27 C27         2.9730   -3.7650   -0.7880 c2        1 DH7     -0.124500
     28 C28        -6.3320   -0.2820   -0.4010 c2        1 DH7     -0.121400
     29 C29         6.3310   -0.3050    0.3990 c2        1 DH7     -0.121400
     30 H1         -5.8800    5.8800   -2.2190 hc        1 DH7      0.040533
     31 H2         -4.9230    4.6350   -1.3100 hc        1 DH7      0.040533
     32 H3         -5.9560    4.1330   -2.7080 hc        1 DH7      0.040533
     33 H4         -8.2660    6.2720   -1.4420 hc        1 DH7      0.040533
     34 H5         -8.6210    5.5680    0.1920 hc        1 DH7      0.040533
     35 H6         -7.1310    6.5710   -0.0610 hc        1 DH7      0.040533
     36 H7          5.9650    4.1000    2.7290 hc        1 DH7      0.040533
     37 H8          5.8960    5.8490    2.2500 hc        1 DH7      0.040533
     38 H9          4.9360    4.6130    1.3330 hc        1 DH7      0.040533
     39 H10        -3.8120   -5.0970    2.2170 hc        1 DH7      0.045033
     40 H11        -4.7120   -5.0220    0.6440 hc        1 DH7      0.045033
     41 H12        -3.1360   -5.9180    0.7470 hc        1 DH7      0.045033
     42 H13         3.7960   -5.0960   -2.2490 hc        1 DH7      0.045033
     43 H14         4.6970   -5.0330   -0.6760 hc        1 DH7      0.045033
     44 H15         3.1180   -5.9230   -0.7830 hc        1 DH7      0.045033
     45 H16        -6.8740   -1.9040   -1.7020 hc        1 DH7      0.041367
     46 H17        -7.5050   -0.2810   -2.2130 hc        1 DH7      0.041367
     47 H18        -5.7490   -0.6840   -2.4240 hc        1 DH7      0.041367
     48 H19         6.8670   -1.9350    1.6910 hc        1 DH7      0.041367
     49 H20         7.5030   -0.3170    2.2120 hc        1 DH7      0.041367
     50 H21         5.7450   -0.7150    2.4200 hc        1 DH7      0.041367
     51 H22        -0.5640   -3.7560   -1.4810 ha        1 DH7      0.141000
     52 H23         0.5520   -3.7670    1.4580 ha        1 DH7      0.141000
     53 H24        -8.1850    3.2550    0.2550 ha        1 DH7      0.122000
     54 H25         8.1960    3.2310   -0.2350 ha        1 DH7      0.122000
     55 H26        -5.2530   -0.4710    1.4210 ha        1 DH7      0.123000
     56 H27         5.2530   -0.4790   -1.4250 ha        1 DH7      0.123000
     57 H28        -6.7120    1.9540   -1.8920 hc        1 DH7      0.049700
     58 H29        -5.4880    2.3250   -0.6190 hc        1 DH7      0.049700
     59 H30         6.7170    1.9220    1.9030 hc        1 DH7      0.049700
     60 H31         5.4950    2.3050    0.6310 hc        1 DH7      0.049700
     61 H32        -5.4720   -2.9750   -0.0340 hc        1 DH7      0.051200
     62 H33        -4.2390   -2.0090   -0.9310 hc        1 DH7      0.051200
     63 H34         5.4630   -2.9930    0.0160 hc        1 DH7      0.051200
     64 H35         4.2330   -2.0270    0.9180 hc        1 DH7      0.051200
     65 H36        -2.9560   -1.6500    1.2050 hc        1 DH7      0.051200
     66 H37        -4.1880   -2.6150    2.1130 hc        1 DH7      0.051200
     67 H38         2.9510   -1.6520   -1.2160 hc        1 DH7      0.051200
     68 H39         4.1800   -2.6150   -2.1300 hc        1 DH7      0.051200
     69 H40        -6.8990    1.1590    1.0990 hc        1 DH7      0.045700
     70 H41        -8.1550    0.8080   -0.1520 hc        1 DH7      0.045700
     71 H42         6.9030    1.1430   -1.0930 hc        1 DH7      0.045700
     72 H43         8.1570    0.7820    0.1580 hc        1 DH7      0.045700
     73 C30         7.8220    5.7850    0.5640 c3        1 DH7     -0.057900
     74 H44         8.2830    6.2380    1.4770 hc        1 DH7      0.040533
     75 H45         8.6390    5.5420   -0.1600 hc        1 DH7      0.040533
     76 H46         7.1510    6.5480    0.0970 hc        1 DH7      0.040533
@<TRIPOS>BOND
     1    1   24 1   
     2    1   30 1   
     3    1   31 1   
     4    1   32 1   
     5    2   24 1   
     6    2   33 1   
     7    2   34 1   
     8    2   35 1   
     9    3   25 1   
    10    3   36 1   
    11    3   37 1   
    12    3   38 1   
    13    4   26 1   
    14    4   39 1   
    15    4   40 1   
    16    4   41 1   
    17    5   27 1   
    18    5   42 1   
    19    5   43 1   
    20    5   44 1   
    21    6   28 1   
    22    6   45 1   
    23    6   46 1   
    24    6   47 1   
    25    7   29 1   
    26    7   48 1   
    27    7   49 1   
    28    7   50 1   
    29    8    9 1   
    30    8   10 2   
    31    8   51 1   
    32    9   11 2   
    33    9   52 1   
    34   10   26 2   
    35   11   27 2   
    36   12   16 1   
    37   12   24 2   
    38   12   53 1   
    39   13   17 1   
    40   13   25 2   
    41   13   54 1   
    42   14   18 1   
    43   14   28 2   
    44   14   55 1   
    45   15   19 1   
    46   15   29 2   
    47   15   56 1   
    48   16   22 1   
    49   16   57 1   
    50   16   58 1   
    51   17   23 1   
    52   17   59 1   
    53   17   60 1   
    54   18   20 1   
    55   18   61 1   
    56   18   62 1   
    57   19   21 1   
    58   19   63 1   
    59   19   64 1   
    60   20   26 1   
    61   20   65 1   
    62   20   66 1   
    63   21   27 1   
    64   21   67 1   
    65   21   68 1   
    66   22   28 1   
    67   22   69 1   
    68   22   70 1   
    69   23   29 1   
    70   23   71 1   
    71   23   72 1   
    72   25   73 1   
    73   73   74 1   
    74   73   75 1   
    75   73   76 1   
@<TRIPOS>SUBSTRUCTURE
     1 DH7         1 TEMP              0 ****  ****    0 ROOT
