@<TRIPOS>MOLECULE
DH9
   90    89     1     0     0
SMALL
bcc


@<TRIPOS>ATOM
      1 C22        -0.3760   -0.5440    1.1070 c3        1 DH9     -0.090100
      2 C21         1.0810   -0.9280    1.0880 c3        1 DH9     -0.080400
      3 C20         1.8550   -0.2370    2.1910 c3        1 DH9     -0.079400
      4 C19         3.3170   -0.6270    2.1720 c3        1 DH9     -0.074400
      5 C18         4.0880    0.0780    3.2660 c3        1 DH9     -0.088400
      6 C17         5.5450   -0.3320    3.2670 c3        1 DH9     -0.049400
      7 C2'         6.3630    0.5320    4.2110 c3        1 DH9     -0.218700
      8 C1'         6.4730    1.9680    3.6460 c         1 DH9      0.915600
      9 O1'         7.4290    2.2430    2.8540 o         1 DH9     -0.846800
     10 O2'         5.6050    2.8120    3.9980 o         1 DH9     -0.846800
     11 C3'         7.7360   -0.1030    4.4490 c3        1 DH9      0.176100
     12 O3'         8.4560   -0.3090    3.2480 oh        1 DH9     -0.645800
     13 C4'         8.5370    0.7490    5.4350 c3        1 DH9     -0.133400
     14 C5'         9.9970    0.3140    5.5330 c3        1 DH9      0.155100
     15 O4'        10.7620    1.4850    5.1470 os        1 DH9     -0.438900
     16 C23        11.6380    1.3760    4.1130 c         1 DH9      0.625100
     17 O5'        12.1940    0.2990    3.8820 o         1 DH9     -0.564000
     18 C24        11.7880    2.7030    3.3630 c3        1 DH9      0.045700
     19 C26        10.5810    2.7830    2.4080 c3        1 DH9     -0.097400
     20 C27        10.2350    4.2090    2.0090 c3        1 DH9     -0.046700
     21 C28         9.3480    4.1720    0.7780 c3        1 DH9     -0.102600
     22 C29         9.4960    4.9120    3.1310 c3        1 DH9     -0.102600
     23 N1'        13.0610    2.7930    2.6920 n         1 DH9     -0.560900
     24 C25        14.1060    3.5610    3.1340 c         1 DH9      0.659900
     25 O6'        14.0470    4.3380    4.1030 o         1 DH9     -0.615100
     26 C6'        10.4040   -0.0600    6.9520 c3        1 DH9     -0.089400
     27 C7'        11.7290   -0.7910    6.9740 c3        1 DH9     -0.084400
     28 C8'        12.2320   -0.9800    8.3880 c3        1 DH9     -0.076400
     29 C9'        13.5410   -1.7410    8.4070 c3        1 DH9     -0.079400
     30 C10        14.0510   -1.9240    9.8210 c3        1 DH9     -0.078400
     31 C11        15.3580   -2.6860    9.8400 c3        1 DH9     -0.079400
     32 C12        15.8690   -2.8690   11.2530 c3        1 DH9     -0.078400
     33 C13        17.1760   -3.6320   11.2710 c3        1 DH9     -0.079400
     34 C14        17.6870   -3.8150   12.6840 c3        1 DH9     -0.079400
     35 C15        18.9940   -4.5770   12.7040 c3        1 DH9     -0.080400
     36 C16        19.5060   -4.7620   14.1090 c3        1 DH9     -0.092100
     37 H221       -0.9270   -1.0620    0.2850 hc        1 DH9      0.026033
     38 H222       -0.4930    0.5580    0.9710 hc        1 DH9      0.026033
     39 H223       -0.8450   -0.8280    2.0790 hc        1 DH9      0.026033
     40 H211        1.5290   -0.6590    0.0950 hc        1 DH9      0.033700
     41 H212        1.1800   -2.0400    1.2030 hc        1 DH9      0.033700
     42 H201        1.4080   -0.5030    3.1860 hc        1 DH9      0.039700
     43 H202        1.7640    0.8750    2.0760 hc        1 DH9      0.039700
     44 H191        3.7610   -0.3670    1.1750 hc        1 DH9      0.030200
     45 H192        3.4120   -1.7380    2.2960 hc        1 DH9      0.030200
     46 H181        4.0250    1.1940    3.1330 hc        1 DH9      0.056700
     47 H182        3.6300   -0.1600    4.2620 hc        1 DH9      0.056700
     48 H171        5.6330   -1.4100    3.5650 hc        1 DH9      0.029200
     49 H172        5.9750   -0.2370    2.2350 hc        1 DH9      0.029200
     50 H2'         5.8380    0.5990    5.2020 hc        1 DH9      0.047700
     51 H3'         7.6110   -1.1430    4.8710 h1        1 DH9      0.027700
     52 HO3'        8.3840    0.5070    2.7230 ho        1 DH9      0.447000
     53 H4'1        8.4970    1.8200    5.0860 hc        1 DH9      0.071700
     54 H4'2        8.0470    0.7000    6.4390 hc        1 DH9      0.071700
     55 H5'        10.2150   -0.5300    4.8200 h1        1 DH9      0.090700
     56 H24        11.7210    3.5420    4.1210 h1        1 DH9      0.119700
     57 H261        9.6800    2.3340    2.9240 hc        1 DH9      0.082700
     58 H262       10.7810    2.1680    1.4920 hc        1 DH9      0.082700
     59 H27        11.1790    4.7720    1.7710 hc        1 DH9      0.020700
     60 H281        9.0530    5.2070    0.4840 hc        1 DH9      0.042700
     61 H282        9.8810    3.6970   -0.0790 hc        1 DH9      0.042700
     62 H283        8.4220    3.5820    1.0080 hc        1 DH9      0.042700
     63 H291        8.5520    4.3520    3.3680 hc        1 DH9      0.042700
     64 H292       10.1270    4.9650    4.0510 hc        1 DH9      0.042700
     65 H293        9.2320    5.9520    2.8250 hc        1 DH9      0.042700
     66 HN1'       13.2250    2.1160    1.9830 hn        1 DH9      0.314500
     67 H25        15.0280    3.4510    2.5140 h5        1 DH9      0.012200
     68 H6'1        9.6050   -0.7120    7.3930 hc        1 DH9      0.047200
     69 H6'2       10.4690    0.8710    7.5730 hc        1 DH9      0.047200
     70 H7'1       11.6140   -1.7900    6.4760 hc        1 DH9      0.050700
     71 H7'2       12.4780   -0.2110    6.3700 hc        1 DH9      0.050700
     72 H8'1       12.3730    0.0210    8.8740 hc        1 DH9      0.035200
     73 H8'2       11.4650   -1.5350    8.9900 hc        1 DH9      0.035200
     74 H9'1       13.3990   -2.7440    7.9260 hc        1 DH9      0.040700
     75 H9'2       14.3040   -1.1880    7.7990 hc        1 DH9      0.040700
     76 H101       13.2860   -2.4740   10.4290 hc        1 DH9      0.037200
     77 H102       14.1940   -0.9200   10.3010 hc        1 DH9      0.037200
     78 H111       16.1230   -2.1350    9.2320 hc        1 DH9      0.038700
     79 H112       15.2150   -3.6900    9.3590 hc        1 DH9      0.038700
     80 H121       16.0120   -1.8650   11.7330 hc        1 DH9      0.038200
     81 H122       15.1040   -3.4200   11.8610 hc        1 DH9      0.038200
     82 H131       17.9410   -3.0800   10.6630 hc        1 DH9      0.039200
     83 H132       17.0330   -4.6350   10.7900 hc        1 DH9      0.039200
     84 H141       17.8300   -2.8110   13.1650 hc        1 DH9      0.038700
     85 H142       16.9220   -4.3660   13.2920 hc        1 DH9      0.038700
     86 H151       19.7580   -4.0250   12.0950 hc        1 DH9      0.037700
     87 H152       18.8490   -5.5800   12.2210 hc        1 DH9      0.037700
     88 H161       18.7700   -5.3320   14.7260 hc        1 DH9      0.030367
     89 H162       19.6800   -3.7730   14.5990 hc        1 DH9      0.030367
     90 H163       20.4700   -5.3260   14.1010 hc        1 DH9      0.030367
@<TRIPOS>BOND
     1    1    2 1   
     2    1   37 1   
     3    1   38 1   
     4    1   39 1   
     5    2    3 1   
     6    2   40 1   
     7    2   41 1   
     8    3    4 1   
     9    3   42 1   
    10    3   43 1   
    11    4    5 1   
    12    4   44 1   
    13    4   45 1   
    14    5    6 1   
    15    5   46 1   
    16    5   47 1   
    17    6    7 1   
    18    6   48 1   
    19    6   49 1   
    20    7    8 1   
    21    7   11 1   
    22    7   50 1   
    23    8    9 1   
    24    8   10 1   
    25   11   12 1   
    26   11   13 1   
    27   11   51 1   
    28   12   52 1   
    29   13   14 1   
    30   13   53 1   
    31   13   54 1   
    32   14   15 1   
    33   14   26 1   
    34   14   55 1   
    35   15   16 1   
    36   16   17 2   
    37   16   18 1   
    38   18   19 1   
    39   18   23 1   
    40   18   56 1   
    41   19   20 1   
    42   19   57 1   
    43   19   58 1   
    44   20   21 1   
    45   20   22 1   
    46   20   59 1   
    47   21   60 1   
    48   21   61 1   
    49   21   62 1   
    50   22   63 1   
    51   22   64 1   
    52   22   65 1   
    53   23   24 1   
    54   23   66 1   
    55   24   25 2   
    56   24   67 1   
    57   26   27 1   
    58   26   68 1   
    59   26   69 1   
    60   27   28 1   
    61   27   70 1   
    62   27   71 1   
    63   28   29 1   
    64   28   72 1   
    65   28   73 1   
    66   29   30 1   
    67   29   74 1   
    68   29   75 1   
    69   30   31 1   
    70   30   76 1   
    71   30   77 1   
    72   31   32 1   
    73   31   78 1   
    74   31   79 1   
    75   32   33 1   
    76   32   80 1   
    77   32   81 1   
    78   33   34 1   
    79   33   82 1   
    80   33   83 1   
    81   34   35 1   
    82   34   84 1   
    83   34   85 1   
    84   35   36 1   
    85   35   86 1   
    86   35   87 1   
    87   36   88 1   
    88   36   89 1   
    89   36   90 1   
@<TRIPOS>SUBSTRUCTURE
     1 DH9         1 TEMP              0 ****  ****    0 ROOT
