@<TRIPOS>MOLECULE
DH9
   90    89     1     0     0
SMALL
bcc


@<TRIPOS>ATOM
      1 C22        -5.2030   -6.4570   -3.2140 c3        1 DH9     -0.090100
      2 C21        -4.1350   -5.5280   -3.7490 c3        1 DH9     -0.080400
      3 C20        -4.3770   -4.1290   -3.2280 c3        1 DH9     -0.079400
      4 C19        -3.2480   -3.2250   -3.6690 c3        1 DH9     -0.076400
      5 C18        -3.3310   -1.9130   -2.9210 c3        1 DH9     -0.079400
      6 C17        -2.1410   -1.0510   -3.2820 c3        1 DH9     -0.055400
      7 C2'        -2.2110    0.2520   -2.5140 c3        1 DH9     -0.215700
      8 C1'        -3.1160    1.2200   -3.2450 c         1 DH9      0.908600
      9 O1'        -4.1260    1.6980   -2.6650 o         1 DH9     -0.844800
     10 O2'        -2.8550    1.5520   -4.4310 o         1 DH9     -0.844800
     11 C3'        -0.8250    0.8450   -2.4010 c3        1 DH9      0.174100
     12 O3'        -0.5350    1.5850   -3.5630 oh        1 DH9     -0.641800
     13 C4'        -0.7630    1.7560   -1.1960 c3        1 DH9     -0.129400
     14 C5'         0.6770    2.1180   -0.9110 c3        1 DH9      0.155100
     15 O4'         0.9440    3.4050   -1.4090 os        1 DH9     -0.436900
     16 C23         2.1730    3.5120   -2.0810 c         1 DH9      0.634100
     17 O5'         2.7190    2.5150   -2.5100 o         1 DH9     -0.554000
     18 C24         2.8320    4.8630   -2.2420 c3        1 DH9      0.054700
     19 C26         2.2650    5.5590   -3.4590 c3        1 DH9     -0.114400
     20 C27         2.9140    6.9170   -3.6120 c3        1 DH9     -0.046700
     21 C28         3.4270    7.0750   -5.0270 c3        1 DH9     -0.105100
     22 C29         1.8960    7.9980   -3.3220 c3        1 DH9     -0.105100
     23 N1'         4.2320    4.6910   -2.4050 n         1 DH9     -0.569900
     24 C25         5.1240    5.1420   -1.3990 c         1 DH9      0.661900
     25 O6'         6.3240    4.9910   -1.5370 o         1 DH9     -0.637100
     26 C6'         0.9160    2.0950    0.5820 c3        1 DH9     -0.093400
     27 C7'         1.3110    0.6980    1.0090 c3        1 DH9     -0.078400
     28 C8'         1.3180    0.6150    2.5200 c3        1 DH9     -0.077400
     29 C9'         1.6320   -0.8020    2.9450 c3        1 DH9     -0.079400
     30 C10         1.2960   -0.9740    4.4110 c3        1 DH9     -0.078400
     31 C11         1.5000   -2.4200    4.8080 c3        1 DH9     -0.079400
     32 C12         0.7890   -2.6880    6.1170 c3        1 DH9     -0.078400
     33 C13         0.7760   -4.1760    6.3870 c3        1 DH9     -0.079400
     34 C14        -0.1630   -4.4710    7.5370 c3        1 DH9     -0.079400
     35 C15        -0.4630   -5.9540    7.5750 c3        1 DH9     -0.080400
     36 C16        -1.6420   -6.2060    8.4890 c3        1 DH9     -0.092100
     37 H221       -6.0380   -6.3130   -3.7060 hc        1 DH9      0.026700
     38 H222       -4.9130   -7.3870   -3.3260 hc        1 DH9      0.026700
     39 H223       -5.3490   -6.2730   -2.2620 hc        1 DH9      0.026700
     40 H211       -4.1680   -5.5230   -4.7260 hc        1 DH9      0.034700
     41 H212       -3.2560   -5.8390   -3.4540 hc        1 DH9      0.034700
     42 H201       -5.2240   -3.7910   -3.5830 hc        1 DH9      0.038700
     43 H202       -4.4170   -4.1470   -2.2510 hc        1 DH9      0.038700
     44 H191       -3.3210   -3.0570   -4.6300 hc        1 DH9      0.032200
     45 H192       -2.3910   -3.6560   -3.4780 hc        1 DH9      0.032200
     46 H181       -4.1560   -1.4490   -3.1670 hc        1 DH9      0.048700
     47 H182       -3.3280   -2.0860   -1.9580 hc        1 DH9      0.048700
     48 H171       -2.1530   -0.8640   -4.2420 hc        1 DH9      0.034700
     49 H172       -1.3160   -1.5210   -3.0510 hc        1 DH9      0.034700
     50 H2'        -2.5670    0.0840   -1.6210 hc        1 DH9      0.049700
     51 H3'        -0.1700    0.1260   -2.3000 h1        1 DH9      0.028700
     52 HO3'       -0.1010    1.0680   -4.1430 ho        1 DH9      0.449000
     53 H4'1       -1.1440    1.2960   -0.4210 hc        1 DH9      0.069200
     54 H4'2       -1.2750    2.5700   -1.3760 hc        1 DH9      0.069200
     55 H5'         1.2680    1.4710   -1.3450 h1        1 DH9      0.097700
     56 H24         2.6610    5.4060   -1.4470 h1        1 DH9      0.093700
     57 H261        2.4440    5.0210   -4.2560 hc        1 DH9      0.088200
     58 H262        1.2990    5.6700   -3.3510 hc        1 DH9      0.088200
     59 H27         3.6580    6.9950   -2.9850 hc        1 DH9      0.008700
     60 H281        4.0400    6.3390   -5.2350 hc        1 DH9      0.044367
     61 H282        3.9010    7.9290   -5.1090 hc        1 DH9      0.044367
     62 H283        2.6720    7.0580   -5.6520 hc        1 DH9      0.044367
     63 H291        1.1100    7.8690   -3.8940 hc        1 DH9      0.044367
     64 H292        1.6260    7.9490   -2.3810 hc        1 DH9      0.044367
     65 H293        2.2910    8.8770   -3.5040 hc        1 DH9      0.044367
     66 HN1'        4.5570    4.2850   -3.1540 hn        1 DH9      0.322500
     67 H25         4.7750    5.5740   -0.5940 h5        1 DH9      0.033200
     68 H6'1        1.6350    2.7200    0.8070 hc        1 DH9      0.045700
     69 H6'2        0.0980    2.3590    1.0480 hc        1 DH9      0.045700
     70 H7'1        2.2040    0.4930    0.6670 hc        1 DH9      0.046700
     71 H7'2        0.6680    0.0540    0.6500 hc        1 DH9      0.046700
     72 H8'1        0.4400    0.8730    2.8640 hc        1 DH9      0.036700
     73 H8'2        1.9990    1.2210    2.8760 hc        1 DH9      0.036700
     74 H9'1        1.1010   -1.4280    2.4130 hc        1 DH9      0.040200
     75 H9'2        2.5830   -0.9810    2.8060 hc        1 DH9      0.040200
     76 H101        1.8810   -0.4030    4.9480 hc        1 DH9      0.037700
     77 H102        0.3640   -0.7220    4.5630 hc        1 DH9      0.037700
     78 H111        2.4560   -2.5980    4.9140 hc        1 DH9      0.039700
     79 H112        1.1340   -3.0040    4.1130 hc        1 DH9      0.039700
     80 H121       -0.1300   -2.3580    6.0620 hc        1 DH9      0.038200
     81 H122        1.2580   -2.2290    6.8420 hc        1 DH9      0.038200
     82 H131        0.4720   -4.6510    5.5880 hc        1 DH9      0.038700
     83 H132        1.6780   -4.4740    6.6190 hc        1 DH9      0.038700
     84 H141       -0.9960   -3.9730    7.4130 hc        1 DH9      0.038700
     85 H142        0.2570   -4.2020    8.3780 hc        1 DH9      0.038700
     86 H151       -0.6770   -6.2670    6.6730 hc        1 DH9      0.037700
     87 H152        0.3190   -6.4360    7.9100 hc        1 DH9      0.037700
     88 H161       -1.3510   -6.1380    9.4230 hc        1 DH9      0.030700
     89 H162       -2.3390   -5.5410    8.3140 hc        1 DH9      0.030700
     90 H163       -1.9980   -7.1040    8.3220 hc        1 DH9      0.030700
@<TRIPOS>BOND
     1    1    2 1   
     2    1   37 1   
     3    1   38 1   
     4    1   39 1   
     5    2    3 1   
     6    2   40 1   
     7    2   41 1   
     8    3    4 1   
     9    3   42 1   
    10    3   43 1   
    11    4    5 1   
    12    4   44 1   
    13    4   45 1   
    14    5    6 1   
    15    5   46 1   
    16    5   47 1   
    17    6    7 1   
    18    6   48 1   
    19    6   49 1   
    20    7    8 1   
    21    7   11 1   
    22    7   50 1   
    23    8    9 1   
    24    8   10 1   
    25   11   12 1   
    26   11   13 1   
    27   11   51 1   
    28   12   52 1   
    29   13   14 1   
    30   13   53 1   
    31   13   54 1   
    32   14   15 1   
    33   14   26 1   
    34   14   55 1   
    35   15   16 1   
    36   16   17 2   
    37   16   18 1   
    38   18   19 1   
    39   18   23 1   
    40   18   56 1   
    41   19   20 1   
    42   19   57 1   
    43   19   58 1   
    44   20   21 1   
    45   20   22 1   
    46   20   59 1   
    47   21   60 1   
    48   21   61 1   
    49   21   62 1   
    50   22   63 1   
    51   22   64 1   
    52   22   65 1   
    53   23   24 1   
    54   23   66 1   
    55   24   25 2   
    56   24   67 1   
    57   26   27 1   
    58   26   68 1   
    59   26   69 1   
    60   27   28 1   
    61   27   70 1   
    62   27   71 1   
    63   28   29 1   
    64   28   72 1   
    65   28   73 1   
    66   29   30 1   
    67   29   74 1   
    68   29   75 1   
    69   30   31 1   
    70   30   76 1   
    71   30   77 1   
    72   31   32 1   
    73   31   78 1   
    74   31   79 1   
    75   32   33 1   
    76   32   80 1   
    77   32   81 1   
    78   33   34 1   
    79   33   82 1   
    80   33   83 1   
    81   34   35 1   
    82   34   84 1   
    83   34   85 1   
    84   35   36 1   
    85   35   86 1   
    86   35   87 1   
    87   36   88 1   
    88   36   89 1   
    89   36   90 1   
@<TRIPOS>SUBSTRUCTURE
     1 DH9         1 TEMP              0 ****  ****    0 ROOT
