@<TRIPOS>MOLECULE
DH9
   90    89     1     0     0
SMALL
bcc


@<TRIPOS>ATOM
      1 C22        10.4330   -4.2080    0.3980 c3        1 DH9     -0.090100
      2 C21         9.2420   -3.5800    1.0740 c3        1 DH9     -0.080400
      3 C20         8.1210   -3.3090    0.0930 c3        1 DH9     -0.079400
      4 C19         6.9250   -2.6810    0.7760 c3        1 DH9     -0.074400
      5 C18         5.8140   -2.3980   -0.2120 c3        1 DH9     -0.088400
      6 C17         4.6060   -1.7950    0.4740 c3        1 DH9     -0.049400
      7 C2'         3.5820   -1.3080   -0.5360 c3        1 DH9     -0.217700
      8 C1'         4.1330   -0.0700   -1.2840 c         1 DH9      0.916600
      9 O1'         3.9240    1.0840   -0.7930 o         1 DH9     -0.846800
     10 O2'         4.7690   -0.2590   -2.3560 o         1 DH9     -0.846800
     11 C3'         2.2520   -1.0180    0.1640 c3        1 DH9      0.177100
     12 O3'         2.3770   -0.0650    1.2020 oh        1 DH9     -0.645800
     13 C4'         1.2070   -0.5810   -0.8650 c3        1 DH9     -0.133400
     14 C5'        -0.0660   -0.0530   -0.2090 c3        1 DH9      0.155100
     15 O4'        -0.1330    1.3460   -0.5860 os        1 DH9     -0.436900
     16 C23        -0.2080    2.2820    0.3970 c         1 DH9      0.624100
     17 O5'        -0.7040    1.9960    1.4900 o         1 DH9     -0.564000
     18 C24         0.3720    3.6240   -0.0610 c3        1 DH9      0.045700
     19 C26         1.9010    3.4510   -0.0530 c3        1 DH9     -0.098400
     20 C27         2.6430    4.5480   -0.7980 c3        1 DH9     -0.047700
     21 C28         4.1270    4.4030   -0.5090 c3        1 DH9     -0.101100
     22 C29         2.4060    4.4630   -2.2920 c3        1 DH9     -0.101100
     23 N1'        -0.0910    4.7110    0.7670 n         1 DH9     -0.557900
     24 C25        -1.0590    5.6020    0.3830 c         1 DH9      0.659900
     25 O6'        -1.5650    5.6440   -0.7520 o         1 DH9     -0.617100
     26 C6'        -1.3230   -0.7350   -0.7350 c3        1 DH9     -0.090400
     27 C7'        -2.5220   -0.4330    0.1370 c3        1 DH9     -0.083400
     28 C8'        -3.8030   -0.9390   -0.4910 c3        1 DH9     -0.076400
     29 C9'        -4.9960   -0.6630    0.3990 c3        1 DH9     -0.079400
     30 C10        -6.2790   -1.1610   -0.2310 c3        1 DH9     -0.078400
     31 C11        -7.4720   -0.8870    0.6590 c3        1 DH9     -0.079400
     32 C12        -8.7560   -1.3840    0.0300 c3        1 DH9     -0.078400
     33 C13        -9.9480   -1.1100    0.9210 c3        1 DH9     -0.079400
     34 C14       -11.2320   -1.6070    0.2910 c3        1 DH9     -0.079400
     35 C15       -12.4250   -1.3330    1.1810 c3        1 DH9     -0.080400
     36 C16       -13.7050   -1.8270    0.5590 c3        1 DH9     -0.092100
     37 H221       11.2480   -4.3970    1.1380 hc        1 DH9      0.025700
     38 H222       10.1510   -5.1820   -0.0720 hc        1 DH9      0.025700
     39 H223       10.8300   -3.5380   -0.4020 hc        1 DH9      0.025700
     40 H211        8.8700   -4.2560    1.8890 hc        1 DH9      0.033700
     41 H212        9.5500   -2.6170    1.5610 hc        1 DH9      0.033700
     42 H201        8.4870   -2.6280   -0.7190 hc        1 DH9      0.039700
     43 H202        7.8120   -4.2700   -0.3970 hc        1 DH9      0.039700
     44 H191        6.5510   -3.3640    1.5830 hc        1 DH9      0.030200
     45 H192        7.2370   -1.7240    1.2720 hc        1 DH9      0.030200
     46 H181        6.1710   -1.6890   -1.0090 hc        1 DH9      0.056700
     47 H182        5.5180   -3.3490   -0.7270 hc        1 DH9      0.056700
     48 H171        4.1390   -2.5580    1.1520 hc        1 DH9      0.028700
     49 H172        4.9170   -0.9270    1.1130 hc        1 DH9      0.028700
     50 H2'         3.4030   -2.1120   -1.3000 hc        1 DH9      0.046700
     51 H3'         1.8870   -1.9470    0.6930 h1        1 DH9      0.027700
     52 HO3'        2.8900    0.6830    0.8480 ho        1 DH9      0.447000
     53 H4'1        1.6590    0.2330   -1.5000 hc        1 DH9      0.071200
     54 H4'2        0.9710   -1.4450   -1.5340 hc        1 DH9      0.071200
     55 H5'        -0.0070   -0.1380    0.9120 h1        1 DH9      0.090700
     56 H24         0.0210    3.8070   -1.1220 h1        1 DH9      0.115700
     57 H261        2.2690    3.4050    1.0060 hc        1 DH9      0.088200
     58 H262        2.1520    2.4560   -0.5300 hc        1 DH9      0.088200
     59 H27         2.2930    5.5530   -0.4320 hc        1 DH9      0.020700
     60 H281        4.4580    3.3580   -0.7520 hc        1 DH9      0.041033
     61 H282        4.7140    5.1260   -1.1230 hc        1 DH9      0.041033
     62 H283        4.3350    4.6020    0.5700 hc        1 DH9      0.041033
     63 H291        1.3290    4.6230   -2.5360 hc        1 DH9      0.041033
     64 H292        3.0040    5.2450   -2.8190 hc        1 DH9      0.041033
     65 H293        2.7190    3.4590   -2.6720 hc        1 DH9      0.041033
     66 HN1'        0.1700    4.6650    1.7240 hn        1 DH9      0.315500
     67 H25        -1.3350    6.3280    1.1850 h5        1 DH9      0.013200
     68 H6'1       -1.5150   -0.3910   -1.7840 hc        1 DH9      0.047200
     69 H6'2       -1.1450   -1.8410   -0.7630 hc        1 DH9      0.047200
     70 H7'1       -2.3830   -0.9060    1.1450 hc        1 DH9      0.050200
     71 H7'2       -2.5860    0.6760    0.3040 hc        1 DH9      0.050200
     72 H8'1       -3.9540   -0.4440   -1.4860 hc        1 DH9      0.035200
     73 H8'2       -3.7200   -2.0420   -0.6790 hc        1 DH9      0.035200
     74 H9'1       -4.8470   -1.1610    1.3930 hc        1 DH9      0.040700
     75 H9'2       -5.0730    0.4390    0.5900 hc        1 DH9      0.040700
     76 H101       -6.4290   -0.6610   -1.2240 hc        1 DH9      0.037200
     77 H102       -6.2000   -2.2640   -0.4250 hc        1 DH9      0.037200
     78 H111       -7.3220   -1.3860    1.6530 hc        1 DH9      0.039200
     79 H112       -7.5510    0.2160    0.8530 hc        1 DH9      0.039200
     80 H121       -8.9050   -0.8840   -0.9640 hc        1 DH9      0.038200
     81 H122       -8.6770   -2.4860   -0.1640 hc        1 DH9      0.038200
     82 H131       -9.7980   -1.6090    1.9140 hc        1 DH9      0.039200
     83 H132      -10.0270   -0.0070    1.1140 hc        1 DH9      0.039200
     84 H141      -11.3820   -1.1070   -0.7020 hc        1 DH9      0.038200
     85 H142      -11.1530   -2.7090    0.0980 hc        1 DH9      0.038200
     86 H151      -12.2720   -1.8320    2.1750 hc        1 DH9      0.038200
     87 H152      -12.5010   -0.2300    1.3750 hc        1 DH9      0.038200
     88 H161      -13.8870   -1.3220   -0.4210 hc        1 DH9      0.030367
     89 H162      -13.6580   -2.9280    0.3810 hc        1 DH9      0.030367
     90 H163      -14.5720   -1.6150    1.2310 hc        1 DH9      0.030367
@<TRIPOS>BOND
     1    1    2 1   
     2    1   37 1   
     3    1   38 1   
     4    1   39 1   
     5    2    3 1   
     6    2   40 1   
     7    2   41 1   
     8    3    4 1   
     9    3   42 1   
    10    3   43 1   
    11    4    5 1   
    12    4   44 1   
    13    4   45 1   
    14    5    6 1   
    15    5   46 1   
    16    5   47 1   
    17    6    7 1   
    18    6   48 1   
    19    6   49 1   
    20    7    8 1   
    21    7   11 1   
    22    7   50 1   
    23    8    9 1   
    24    8   10 1   
    25   11   12 1   
    26   11   13 1   
    27   11   51 1   
    28   12   52 1   
    29   13   14 1   
    30   13   53 1   
    31   13   54 1   
    32   14   15 1   
    33   14   26 1   
    34   14   55 1   
    35   15   16 1   
    36   16   17 2   
    37   16   18 1   
    38   18   19 1   
    39   18   23 1   
    40   18   56 1   
    41   19   20 1   
    42   19   57 1   
    43   19   58 1   
    44   20   21 1   
    45   20   22 1   
    46   20   59 1   
    47   21   60 1   
    48   21   61 1   
    49   21   62 1   
    50   22   63 1   
    51   22   64 1   
    52   22   65 1   
    53   23   24 1   
    54   23   66 1   
    55   24   25 2   
    56   24   67 1   
    57   26   27 1   
    58   26   68 1   
    59   26   69 1   
    60   27   28 1   
    61   27   70 1   
    62   27   71 1   
    63   28   29 1   
    64   28   72 1   
    65   28   73 1   
    66   29   30 1   
    67   29   74 1   
    68   29   75 1   
    69   30   31 1   
    70   30   76 1   
    71   30   77 1   
    72   31   32 1   
    73   31   78 1   
    74   31   79 1   
    75   32   33 1   
    76   32   80 1   
    77   32   81 1   
    78   33   34 1   
    79   33   82 1   
    80   33   83 1   
    81   34   35 1   
    82   34   84 1   
    83   34   85 1   
    84   35   36 1   
    85   35   86 1   
    86   35   87 1   
    87   36   88 1   
    88   36   89 1   
    89   36   90 1   
@<TRIPOS>SUBSTRUCTURE
     1 DH9         1 TEMP              0 ****  ****    0 ROOT
