@<TRIPOS>MOLECULE
DHA
   10     9     1     0     0
SMALL
bcc


@<TRIPOS>ATOM
      1 N           1.4550    1.1830    0.3260 nh        1 DHA     -0.808600
      2 CA          0.8260   -0.0520    0.0860 ce        1 DHA      0.001800
      3 CB          1.4940   -1.2140   -0.0520 c2        1 DHA     -0.339000
      4 C          -0.7140   -0.0330   -0.0040 c         1 DHA      0.906800
      5 O          -1.3440   -1.0840    0.2820 o         1 DHA     -0.833800
      6 OXT        -1.2530    1.0460   -0.3910 o         1 DHA     -0.833800
      7 H           2.3060    1.2890   -0.1870 hn        1 DHA      0.357800
      8 H2          0.8250    1.9400    0.1360 hn        1 DHA      0.357800
      9 HB1         2.5860   -1.2970   -0.0510 ha        1 DHA      0.095500
     10 HB2         0.9340   -2.1510   -0.1490 ha        1 DHA      0.095500
@<TRIPOS>BOND
     1    1    2 1   
     2    1    7 1   
     3    1    8 1   
     4    2    3 2   
     5    2    4 1   
     6    3    9 1   
     7    3   10 1   
     8    4    5 1   
     9    4    6 1   
@<TRIPOS>SUBSTRUCTURE
     1 DHA         1 TEMP              0 ****  ****    0 ROOT
