@<TRIPOS>MOLECULE
DHA
   10     8     1     0     0
SMALL
bcc


@<TRIPOS>ATOM
      1 N          -1.4430   -0.0000    0.0680 n3        1 DHA     -0.317000
      2 CA         -0.0240   -0.0000    0.0680 c2        1 DHA     -0.061000
      3 CB          0.6500   -0.0000    1.2350 c1        1 DHA     -0.339000
      4 C           0.7320   -0.0000   -1.2420 c2        1 DHA      0.357000
      5 O           1.0470    1.0900   -1.7870 o         1 DHA     -0.568500
      6 OXT         1.0480   -1.0900   -1.7870 o         1 DHA     -0.568500
      7 H          -1.8990   -0.7900    0.0650 hn        1 DHA      0.153000
      8 H2         -1.8990    0.7900    0.0650 hn        1 DHA      0.153000
      9 HB1         0.1620   -0.0000    2.0800 DU        1 DHA      0.067000
     10 HB2         1.6260   -0.0000    1.2350 ha        1 DHA      0.124000
@<TRIPOS>BOND
     1    1    2 1   
     2    1    7 1   
     3    1    8 1   
     4    2    3 1   
     5    2    4 1   
     6    3   10 1   
     7    4    5 1   
     8    4    6 1   
@<TRIPOS>SUBSTRUCTURE
     1 DHA         1 TEMP              0 ****  ****    0 ROOT
