@<TRIPOS>MOLECULE
DHB
   16    16     1     0     0
SMALL
bcc


@<TRIPOS>ATOM
      1 C1         -0.0400    0.0560    0.0300 ca        1 DHB     -0.122600
      2 C2          1.3490    0.1870    0.0760 ca        1 DHB     -0.144000
      3 C3          2.0050    0.2030    1.3100 ca        1 DHB      0.004100
      4 O3          3.3830    0.3300    1.4310 oh        1 DHB     -0.544100
      5 C4          1.2750    0.0880    2.5070 ca        1 DHB      0.073100
      6 O4          1.8760    0.0990    3.7520 oh        1 DHB     -0.521100
      7 C5         -0.1190   -0.0430    2.4580 ca        1 DHB     -0.162000
      8 C6         -0.7620   -0.0580    1.2240 ca        1 DHB     -0.106000
      9 C          -0.7540    0.0390   -1.3140 c         1 DHB      0.910200
     10 O1         -0.0470    0.1450   -2.3570 o         1 DHB     -0.830800
     11 O2         -2.0110   -0.0810   -1.3150 o         1 DHB     -0.830800
     12 H2          1.9040    0.2760   -0.8710 ha        1 DHB      0.156000
     13 HO3         3.7350    0.3970    0.5340 ho        1 DHB      0.419000
     14 HO4         2.8280    0.1950    3.6090 ho        1 DHB      0.418000
     15 H5         -0.6810   -0.1320    3.3970 ha        1 DHB      0.126000
     16 H6         -1.8580   -0.1600    1.1580 ha        1 DHB      0.155000
@<TRIPOS>BOND
     1    1    2 ar  
     2    1    8 ar  
     3    1    9 1   
     4    2    3 ar  
     5    2   12 1   
     6    3    4 1   
     7    3    5 ar  
     8    4   13 1   
     9    5    6 1   
    10    5    7 ar  
    11    6   14 1   
    12    7    8 ar  
    13    7   15 1   
    14    8   16 1   
    15    9   10 1   
    16    9   11 1   
@<TRIPOS>SUBSTRUCTURE
     1 DHB         1 TEMP              0 ****  ****    0 ROOT
