@<TRIPOS>MOLECULE
DHB
   16    16     1     0     0
SMALL
bcc


@<TRIPOS>ATOM
      1 C1          0.1100   -0.0270    0.8700 ca        1 DHB     -0.122600
      2 C2         -0.9160   -0.1770   -0.0630 ca        1 DHB     -0.144000
      3 C3         -0.6140   -0.2330   -1.4270 ca        1 DHB      0.004100
      4 O3         -1.5830   -0.3800   -2.4100 oh        1 DHB     -0.544100
      5 C4          0.7200   -0.1400   -1.8650 ca        1 DHB      0.073100
      6 O4          1.0720   -0.1900   -3.2010 oh        1 DHB     -0.521100
      7 C5          1.7490    0.0110   -0.9250 ca        1 DHB     -0.162000
      8 C6          1.4350    0.0650    0.4300 ca        1 DHB     -0.106000
      9 C          -0.2210    0.0340    2.3550 c         1 DHB      0.910200
     10 O1         -1.4360   -0.0550    2.6910 o         1 DHB     -0.830800
     11 O2          0.7350    0.1700    3.1690 o         1 DHB     -0.830800
     12 H2         -1.9540   -0.2480    0.2980 ha        1 DHB      0.156000
     13 HO3        -2.4350   -0.4290   -1.9560 ho        1 DHB      0.419000
     14 HO4         0.2550   -0.2940   -3.7080 ho        1 DHB      0.418000
     15 H5          2.7860    0.0820   -1.2760 ha        1 DHB      0.126000
     16 H6          2.2260    0.1830    1.1890 ha        1 DHB      0.155000
@<TRIPOS>BOND
     1    1    2 ar  
     2    1    8 ar  
     3    1    9 1   
     4    2    3 ar  
     5    2   12 1   
     6    3    4 1   
     7    3    5 ar  
     8    4   13 1   
     9    5    6 1   
    10    5    7 ar  
    11    6   14 1   
    12    7    8 ar  
    13    7   15 1   
    14    8   16 1   
    15    9   10 1   
    16    9   11 1   
@<TRIPOS>SUBSTRUCTURE
     1 DHB         1 TEMP              0 ****  ****    0 ROOT
