@<TRIPOS>MOLECULE
DHB
   16    13     1     0     0
SMALL
bcc


@<TRIPOS>ATOM
      1 C1         -0.7540    0.0080   -0.9750 c1        1 DHB     -0.102000
      2 C2          0.6200   -0.1740   -0.9410 c1        1 DHB     -0.144000
      3 C3          1.2790   -0.2510    0.2760 c1        1 DHB     -0.041000
      4 O3          2.6690   -0.4670    0.3100 o         1 DHB     -0.298000
      5 C4          0.5650   -0.1450    1.4590 c2        1 DHB      0.028000
      6 O4          1.2360   -0.2020    2.6940 oh        1 DHB     -0.275000
      7 C5         -0.8090    0.0380    1.4250 c1        1 DHB     -0.162000
      8 C6         -1.4680    0.1140    0.2080 c1        1 DHB     -0.106000
      9 C          -1.4790    0.0520   -2.3020 c2        1 DHB      0.359000
     10 O1         -1.7670   -1.0190   -2.8970 o         1 DHB     -0.565500
     11 O2         -1.8080    1.1580   -2.8030 o         1 DHB     -0.565500
     12 H2          1.1260   -0.2250   -1.7750 ha        1 DHB      0.156000
     13 HO3         3.0780    0.1570   -0.1730 ho        1 DHB      0.218000
     14 HO4         1.2620    0.6100    3.0550 ho        1 DHB      0.217000
     15 H5         -1.3130    0.1030    2.2580 ha        1 DHB      0.126000
     16 H6         -2.4360    0.2420    0.1840 ha        1 DHB      0.155000
@<TRIPOS>BOND
     1    1    8 1   
     2    1    9 1   
     3    2    3 1   
     4    2   12 1   
     5    3    5 1   
     6    4   13 1   
     7    5    6 1   
     8    5    7 1   
     9    6   14 1   
    10    7   15 1   
    11    8   16 1   
    12    9   10 1   
    13    9   11 1   
@<TRIPOS>SUBSTRUCTURE
     1 DHB         1 TEMP              0 ****  ****    0 ROOT
