@<TRIPOS>MOLECULE
DHB
   16    16     1     0     0
SMALL
bcc


@<TRIPOS>ATOM
      1 C1         -0.0260    0.0210    0.0210 ca        1 DHB     -0.122600
      2 C2          1.3600    0.1690    0.0820 ca        1 DHB     -0.144000
      3 C3          1.9990    0.2270    1.3240 ca        1 DHB      0.004100
      4 O3          3.3730    0.3730    1.4600 oh        1 DHB     -0.544100
      5 C4          1.2540    0.1360    2.5140 ca        1 DHB      0.073100
      6 O4          1.8370    0.1870    3.7660 oh        1 DHB     -0.521100
      7 C5         -0.1380   -0.0130    2.4490 ca        1 DHB     -0.162000
      8 C6         -0.7640   -0.0690    1.2070 ca        1 DHB     -0.106000
      9 C          -0.7210   -0.0410   -1.3320 c         1 DHB      0.910200
     10 O1         -0.0010    0.0460   -2.3680 o         1 DHB     -0.830800
     11 O2         -1.9770   -0.1750   -1.3470 o         1 DHB     -0.830800
     12 H2          1.9270    0.2390   -0.8600 ha        1 DHB      0.156000
     13 HO3         3.7380    0.4200    0.5660 ho        1 DHB      0.419000
     14 HO4         2.7900    0.2900    3.6330 ho        1 DHB      0.418000
     15 H5         -0.7120   -0.0830    3.3820 ha        1 DHB      0.126000
     16 H6         -1.8570   -0.1850    1.1290 ha        1 DHB      0.155000
@<TRIPOS>BOND
     1    1    2 ar  
     2    1    8 ar  
     3    1    9 1   
     4    2    3 ar  
     5    2   12 1   
     6    3    4 1   
     7    3    5 ar  
     8    4   13 1   
     9    5    6 1   
    10    5    7 ar  
    11    6   14 1   
    12    7    8 ar  
    13    7   15 1   
    14    8   16 1   
    15    9   10 1   
    16    9   11 1   
@<TRIPOS>SUBSTRUCTURE
     1 DHB         1 TEMP              0 ****  ****    0 ROOT
