@<TRIPOS>MOLECULE
DHC
   20    20     1     0     0
SMALL
bcc


@<TRIPOS>ATOM
      1 C1         -1.1430    0.2470    0.4900 c         1 DHC      0.895800
      2 O1         -0.7410    1.3590    0.0450 o         1 DHC     -0.831300
      3 C2         -0.1490   -0.5890    1.2600 ce        1 DHC     -0.140200
      4 C3         -0.0720   -0.8320    2.5730 cf        1 DHC     -0.188200
      5 C1'        -0.9620   -0.3810    3.6280 ca        1 DHC     -0.000800
      6 C2'        -0.4540   -0.2710    4.9320 ca        1 DHC     -0.184000
      7 C3'        -1.2880    0.1350    5.9770 ca        1 DHC      0.014100
      8 C4'        -2.6400    0.4350    5.7360 ca        1 DHC      0.076100
      9 C5'        -3.1480    0.3220    4.4340 ca        1 DHC     -0.137000
     10 C6'        -2.3160   -0.0810    3.3970 ca        1 DHC     -0.110000
     11 O4'        -3.5070    0.8220    6.7380 oh        1 DHC     -0.512100
     12 O3'        -0.8470    0.2500    7.2870 oh        1 DHC     -0.536100
     13 O2         -2.2990   -0.2240    0.2790 o         1 DHC     -0.831300
     14 HC2         0.6260   -1.0190    0.6000 ha        1 DHC      0.098000
     15 HC3         0.7710   -1.4430    2.9500 ha        1 DHC      0.083000
     16 H2'         0.6020   -0.4950    5.1350 ha        1 DHC      0.120000
     17 H5'        -4.2050    0.5600    4.2490 ha        1 DHC      0.141000
     18 H6'        -2.7130   -0.1590    2.3630 ha        1 DHC      0.210000
     19 H4'        -2.9810    0.9440    7.5410 ho        1 DHC      0.419000
     20 H3'         0.1180    0.2780    7.2580 ho        1 DHC      0.414000
@<TRIPOS>BOND
     1    1    2 1   
     2    1    3 1   
     3    1   13 1   
     4    3    4 2   
     5    3   14 1   
     6    4    5 1   
     7    4   15 1   
     8    5    6 ar  
     9    5   10 ar  
    10    6    7 ar  
    11    6   16 1   
    12    7    8 ar  
    13    7   12 1   
    14    8    9 ar  
    15    8   11 1   
    16    9   10 ar  
    17    9   17 1   
    18   10   18 1   
    19   11   19 1   
    20   12   20 1   
@<TRIPOS>SUBSTRUCTURE
     1 DHC         1 TEMP              0 ****  ****    0 ROOT
