@<TRIPOS>MOLECULE
DHC
   20    20     1     0     0
SMALL
bcc


@<TRIPOS>ATOM
      1 C1          5.5720   -2.6890   -2.0390 c         1 DHC      0.889800
      2 O1          6.3570   -3.3680   -1.3200 o         1 DHC     -0.830800
      3 C2          4.3720   -2.0230   -1.3950 ce        1 DHC     -0.153200
      4 C3          4.0780   -2.1540   -0.0950 cf        1 DHC     -0.188200
      5 C1'         2.9490   -1.5520    0.5890 ca        1 DHC      0.008200
      6 C2'         2.8800   -1.6320    1.9900 ca        1 DHC     -0.146000
      7 C3'         1.8040   -1.0620    2.6770 ca        1 DHC      0.104100
      8 C4'         0.7830   -0.4050    1.9640 ca        1 DHC     -0.001900
      9 C5'         0.8450   -0.3250    0.5700 ca        1 DHC     -0.167000
     10 C6'         1.9190   -0.8940   -0.1050 ca        1 DHC     -0.143000
     11 O4'        -0.2530    0.1330    2.7120 oh        1 DHC     -0.531100
     12 O3'         1.7930   -1.1730    4.0510 oh        1 DHC     -0.507100
     13 O2          5.7150   -2.5190   -3.2840 o         1 DHC     -0.830800
     14 HC2         3.7640   -1.4210   -2.0870 ha        1 DHC      0.098000
     15 HC3         4.7500   -2.7690    0.5350 ha        1 DHC      0.147000
     16 H2'         3.6720   -2.1420    2.5580 ha        1 DHC      0.153000
     17 H5'         0.0460    0.1870    0.0150 ha        1 DHC      0.119000
     18 H6'         1.9600   -0.8320   -1.2030 ha        1 DHC      0.142000
     19 H4'        -0.8490    0.5770    2.0940 ho        1 DHC      0.416000
     20 H3'         0.9990   -0.7240    4.3740 ho        1 DHC      0.423000
@<TRIPOS>BOND
     1    1    2 1   
     2    1    3 1   
     3    1   13 1   
     4    3    4 2   
     5    3   14 1   
     6    4    5 1   
     7    4   15 1   
     8    5    6 ar  
     9    5   10 ar  
    10    6    7 ar  
    11    6   16 1   
    12    7    8 ar  
    13    7   12 1   
    14    8    9 ar  
    15    8   11 1   
    16    9   10 ar  
    17    9   17 1   
    18   10   18 1   
    19   11   19 1   
    20   12   20 1   
@<TRIPOS>SUBSTRUCTURE
     1 DHC         1 TEMP              0 ****  ****    0 ROOT
