@<TRIPOS>MOLECULE
DHC
   20    20     1     0     0
SMALL
bcc


@<TRIPOS>ATOM
      1 C1         -1.2690    0.1280    0.4910 c         1 DHC      0.894800
      2 O1         -0.9090    1.2350    0.0020 o         1 DHC     -0.831800
      3 C2         -0.2200   -0.6880    1.2090 ce        1 DHC     -0.140200
      4 C3         -0.0450   -0.8980    2.5180 cf        1 DHC     -0.187200
      5 C1'        -0.8520   -0.4160    3.6260 ca        1 DHC      0.003200
      6 C2'        -0.2580   -0.3160    4.8940 ca        1 DHC     -0.152000
      7 C3'        -1.0070    0.1290    5.9880 ca        1 DHC      0.088100
      8 C4'        -2.3610    0.4710    5.8190 ca        1 DHC      0.002100
      9 C5'        -2.9550    0.3670    4.5570 ca        1 DHC     -0.170000
     10 C6'        -2.2070   -0.0750    3.4730 ca        1 DHC     -0.114000
     11 O4'        -3.0480    0.8870    6.9500 oh        1 DHC     -0.536100
     12 O3'        -0.3720    0.1980    7.2130 oh        1 DHC     -0.515100
     13 O2         -2.4340   -0.3540    0.3670 o         1 DHC     -0.831800
     14 HC2         0.5040   -1.1360    0.5050 ha        1 DHC      0.098000
     15 HC3         0.8250   -1.5000    2.8460 ha        1 DHC      0.087000
     16 H2'         0.7990   -0.5760    5.0420 ha        1 DHC      0.137000
     17 H5'        -4.0120    0.6400    4.4260 ha        1 DHC      0.124000
     18 H6'        -2.6740   -0.1540    2.4690 ha        1 DHC      0.209000
     19 H4'        -3.8600    1.3110    6.6440 ho        1 DHC      0.415000
     20 H3'        -0.9920    0.6030    7.8350 ho        1 DHC      0.420000
@<TRIPOS>BOND
     1    1    2 1   
     2    1    3 1   
     3    1   13 1   
     4    3    4 2   
     5    3   14 1   
     6    4    5 1   
     7    4   15 1   
     8    5    6 ar  
     9    5   10 ar  
    10    6    7 ar  
    11    6   16 1   
    12    7    8 ar  
    13    7   12 1   
    14    8    9 ar  
    15    8   11 1   
    16    9   10 ar  
    17    9   17 1   
    18   10   18 1   
    19   11   19 1   
    20   12   20 1   
@<TRIPOS>SUBSTRUCTURE
     1 DHC         1 TEMP              0 ****  ****    0 ROOT
