@<TRIPOS>MOLECULE
DHC
   20    16     1     0     0
SMALL
bcc


@<TRIPOS>ATOM
      1 C1          0.4440   -2.8440   -0.4500 c1        1 DHC      0.345000
      2 O1          1.6200   -2.6260   -0.0570 o         1 DHC     -0.566500
      3 C2         -0.7030   -2.7940    0.5350 c1        1 DHC     -0.160000
      4 C3         -1.2090   -1.6070    0.9210 c1        1 DHC     -0.160000
      5 C1'        -0.6290   -0.3220    0.3700 c1        1 DHC      0.015000
      6 C2'         0.3540    0.3530    1.0770 c1        1 DHC     -0.152000
      7 C3'         0.8490    1.5560    0.5980 c1        1 DHC      0.000000
      8 C4'         0.3600    2.0840   -0.5860 c1        1 DHC      0.000000
      9 C5'        -0.6230    1.4090   -1.2930 c1        1 DHC     -0.170000
     10 C6'        -1.1170    0.2060   -0.8150 c2        1 DHC     -0.114000
     11 O4'         0.8590    3.3070   -1.0700 oh        1 DHC     -0.279500
     12 O3'         1.8160    2.2620    1.3360 oh        1 DHC     -0.279500
     13 O2          0.2260   -3.1300   -1.6560 o         1 DHC     -0.566500
     14 HC2        -1.0780   -3.6230    0.8900 ha        1 DHC      0.092500
     15 HC3        -1.9490   -1.5750    1.5570 ha        1 DHC      0.092500
     16 H2'         0.7160   -0.0310    1.8980 ha        1 DHC      0.137000
     17 H5'        -0.9640    1.7790   -2.1300 ha        1 DHC      0.124000
     18 H6'        -1.8250   -0.2590   -1.3010 ha        1 DHC      0.209000
     19 H4'         0.2320    3.9330   -0.9980 ho        1 DHC      0.216500
     20 H3'         2.6210    1.9210    1.1730 ho        1 DHC      0.216500
@<TRIPOS>BOND
     1    1    2 1   
     2    1   13 1   
     3    3    4 1   
     4    3   14 1   
     5    4   15 1   
     6    5    6 1   
     7    5   10 1   
     8    6   16 1   
     9    7    8 1   
    10    7   12 1   
    11    8   11 1   
    12    9   10 1   
    13    9   17 1   
    14   10   18 1   
    15   11   19 1   
    16   12   20 1   
@<TRIPOS>SUBSTRUCTURE
     1 DHC         1 TEMP              0 ****  ****    0 ROOT
