@<TRIPOS>MOLECULE
DHD
   13    11     1     0     0
SMALL
bcc


@<TRIPOS>ATOM
      1 C1         -2.3900   -0.2890   -0.8520 c1        1 DHD      0.311000
      2 C2         -0.9540    0.1870   -0.8170 c1        1 DHD      0.197000
      3 C3         -0.1930    0.1990    0.4900 c3        1 DHD     -0.267000
      4 C4          1.1700   -0.4270    0.2860 c2        1 DHD      0.197000
      5 C5          2.4090    0.2800    0.7890 c2        1 DHD      0.311000
      6 O11        -2.6440   -1.5090   -1.0270 o         1 DHD     -0.575000
      7 O12        -3.3300    0.5350   -0.7050 o         1 DHD     -0.575000
      8 O51         2.9440    1.1840    0.0950 o         1 DHD     -0.575000
      9 O52         2.9050   -0.0360    1.9030 o         1 DHD     -0.575000
     10 O4          1.2680   -1.4960   -0.2820 o         1 DHD     -0.347000
     11 O2         -0.4130    0.5610   -1.8380 o         1 DHD     -0.347000
     12 H31        -0.6890   -0.3110    1.1610 hc        1 DHD      0.122000
     13 H32        -0.0850    1.1220    0.7970 hc        1 DHD      0.122000
@<TRIPOS>BOND
     1    1    6 1   
     2    1    7 1   
     3    2    3 1   
     4    2   11 1   
     5    3    4 1   
     6    3   12 1   
     7    3   13 1   
     8    4    5 1   
     9    4   10 1   
    10    5    8 1   
    11    5    9 1   
@<TRIPOS>SUBSTRUCTURE
     1 DHD         1 TEMP              0 ****  ****    0 ROOT
