@<TRIPOS>MOLECULE
DHD
   13    12     1     0     0
SMALL
bcc


@<TRIPOS>ATOM
      1 C1          0.3950   -0.1410    2.5490 c         1 DHD      0.841600
      2 C2         -0.4400   -0.0140    1.2670 c         1 DHD      0.486100
      3 C3          0.3640   -0.0830   -0.0010 c3        1 DHD     -0.288400
      4 C4         -0.2030    0.5060   -1.2620 c         1 DHD      0.486100
      5 C5          0.4080   -0.0620   -2.5510 c         1 DHD      0.841600
      6 O11         0.8790    0.9100    3.0560 o         1 DHD     -0.840300
      7 O12         0.5660   -1.2990    3.0270 o         1 DHD     -0.840300
      8 O51        -0.1130   -1.0940   -3.0580 o         1 DHD     -0.840300
      9 O52         1.4150    0.5310   -3.0350 o         1 DHD     -0.840300
     10 O4         -1.0480    1.4090   -1.2760 o         1 DHD     -0.586100
     11 O2         -1.6730    0.0810    1.2910 o         1 DHD     -0.586100
     12 H31         1.3490    0.4290    0.1820 hc        1 DHD      0.082700
     13 H32         0.5790   -1.1710   -0.1900 hc        1 DHD      0.082700
@<TRIPOS>BOND
     1    1    2 1   
     2    1    6 1   
     3    1    7 1   
     4    2    3 1   
     5    2   11 2   
     6    3    4 1   
     7    3   12 1   
     8    3   13 1   
     9    4    5 1   
    10    4   10 2   
    11    5    8 1   
    12    5    9 1   
@<TRIPOS>SUBSTRUCTURE
     1 DHD         1 TEMP              0 ****  ****    0 ROOT
