@<TRIPOS>MOLECULE
DHD
   13    12     1     0     0
SMALL
bcc


@<TRIPOS>ATOM
      1 C1         -0.0040    0.0410    0.0910 c         1 DHD      0.841600
      2 C2          1.5110   -0.0210   -0.1540 c         1 DHD      0.486100
      3 C3          2.3410    0.0800    1.0950 c3        1 DHD     -0.288400
      4 C4          3.7470   -0.4510    1.0860 c         1 DHD      0.486100
      5 C5          4.6540    0.1530    2.1680 c         1 DHD      0.841600
      6 O11        -0.6190   -1.0380    0.3260 o         1 DHD     -0.840300
      7 O12        -0.5590    1.1770    0.0580 o         1 DHD     -0.840300
      8 O51         5.2840    1.2150    1.9000 o         1 DHD     -0.840300
      9 O52         4.7130   -0.4400    3.2830 o         1 DHD     -0.840300
     10 O4          4.1400   -1.3350    0.3160 o         1 DHD     -0.586100
     11 O2          1.9910   -0.0930   -1.2910 o         1 DHD     -0.586100
     12 H31         2.3800    1.1700    1.3710 hc        1 DHD      0.082700
     13 H32         1.7970   -0.4580    1.9200 hc        1 DHD      0.082700
@<TRIPOS>BOND
     1    1    2 1   
     2    1    6 1   
     3    1    7 1   
     4    2    3 1   
     5    2   11 2   
     6    3    4 1   
     7    3   12 1   
     8    3   13 1   
     9    4    5 1   
    10    4   10 2   
    11    5    8 1   
    12    5    9 1   
@<TRIPOS>SUBSTRUCTURE
     1 DHD         1 TEMP              0 ****  ****    0 ROOT
