@<TRIPOS>MOLECULE
DHF
   51    46     1     0     0
SMALL
bcc


@<TRIPOS>ATOM
      1 N1          2.0430   -0.2560   -7.8230 n2        1 DHF     -0.280000
      2 C2          1.2210    0.4500   -8.6640 c1        1 DHF      0.255000
      3 NA2         1.6450    0.7370  -10.0180 n2        1 DHF     -0.330000
      4 N3          0.0090    0.9010   -8.2180 n2        1 DHF     -0.354000
      5 C4         -0.3790    0.6530   -6.9540 c1        1 DHF      0.354000
      6 O4         -1.4500    1.0480   -6.5640 o         1 DHF     -0.372000
      7 C4A         0.4460   -0.0580   -6.1040 c1        1 DHF     -0.347000
      8 N5          0.0880   -0.1930   -4.7040 n2        1 DHF     -0.015000
      9 C6          0.9760   -0.8170   -3.8060 c1        1 DHF     -0.217000
     10 C7          2.3430   -1.2440   -4.2760 c2        1 DHF     -0.005000
     11 N8          2.4530   -1.3490   -5.6990 n3        1 DHF     -0.296000
     12 C8A         1.6510   -0.5080   -6.5430 c1        1 DHF      0.246000
     13 C9          0.5380   -1.0770   -2.3160 c3        1 DHF     -0.004000
     14 N10        -0.0370    0.1260   -1.7670 n3        1 DHF     -0.255000
     15 C11        -1.4340    0.1220    2.2050 c1        1 DHF     -0.117000
     16 C12        -0.0630    0.1320    1.9470 c1        1 DHF     -0.127000
     17 C13         0.3960    0.1390    0.6390 c1        1 DHF     -0.127000
     18 C14        -0.5120    0.1370   -0.4170 c1        1 DHF      0.024000
     19 C15        -1.8750    0.1280   -0.1610 c1        1 DHF     -0.182000
     20 C16        -2.3360    0.1200    1.1550 c1        1 DHF     -0.083000
     21 C          -1.9480    0.1560    3.6590 c2        1 DHF      0.339000
     22 O          -3.1380    0.1470    3.8800 o         1 DHF     -0.433000
     23 N          -1.0260    0.0970    4.7390 n         1 DHF     -0.307000
     24 CA         -1.4830    0.3100    6.0750 c3        1 DHF     -0.058000
     25 CB         -0.3810   -0.0900    7.0570 c3        1 DHF     -0.152000
     26 CG         -0.9390   -0.1320    8.4470 c3        1 DHF     -0.186000
     27 CD          0.2000   -0.1640    9.4490 c2        1 DHF      0.337000
     28 OE1         0.5670    0.8920   10.0100 o         1 DHF     -0.633500
     29 OE2         0.8100   -1.2480    9.6800 o         1 DHF     -0.633500
     30 CT         -1.8180    1.7530    6.2640 c2        1 DHF      0.329000
     31 O1         -2.9910    2.0900    6.6170 o         1 DHF     -0.582000
     32 O2         -0.9670    2.6450    5.9650 o         1 DHF     -0.582000
     33 HN1         2.8900   -0.4840   -8.0950 hn        1 DHF      0.331000
     34 HN21        2.5370    0.7760  -10.2210 hn        1 DHF      0.226500
     35 HN22        1.0170    0.9190  -10.6680 hn        1 DHF      0.226500
     36 H71         3.1060   -0.7670   -3.9820 h4        1 DHF      0.077000
     37 H72         2.4630   -2.0930   -3.8630 h4        1 DHF      0.077000
     38 HN8         3.3410   -1.2770   -5.9450 hn        1 DHF      0.287000
     39 H91        -0.1330   -1.8020   -2.2920 h1        1 DHF      0.087500
     40 H92         1.3250   -1.3400   -1.7820 h1        1 DHF      0.087500
     41 HN0        -0.1890    0.8450   -2.3080 hn        1 DHF      0.170000
     42 H12         0.5790    0.1550    2.6950 ha        1 DHF      0.136000
     43 H13         1.3670    0.0620    0.4560 ha        1 DHF      0.136000
     44 H15        -2.5030    0.1160   -0.8920 ha        1 DHF      0.129000
     45 H16        -3.3020    0.1130    1.3370 ha        1 DHF      0.149000
     46 HN         -0.1470    0.0290    4.5720 hn        1 DHF      0.233000
     47 HA         -2.2730   -0.2300    6.2360 h1        1 DHF      0.108000
     48 HB1         0.3320    0.5560    7.0190 hc        1 DHF      0.093000
     49 HB2        -0.0400   -0.9580    6.8210 hc        1 DHF      0.093000
     50 HG1        -1.4930    0.6700    8.6030 hc        1 DHF      0.074000
     51 HG2        -1.4870   -0.9340    8.5530 hc        1 DHF      0.074000
@<TRIPOS>BOND
     1    1    2 1   
     2    1   33 1   
     3    2    4 1   
     4    3   34 1   
     5    3   35 1   
     6    4    5 1   
     7    5    6 1   
     8    7    8 1   
     9    7   12 1   
    10    8    9 1   
    11    9   13 1   
    12   10   11 1   
    13   10   36 1   
    14   10   37 1   
    15   11   12 1   
    16   11   38 1   
    17   13   14 1   
    18   13   39 1   
    19   13   40 1   
    20   14   18 1   
    21   14   41 1   
    22   15   20 1   
    23   15   21 1   
    24   16   17 1   
    25   16   42 1   
    26   17   43 1   
    27   18   19 1   
    28   19   44 1   
    29   20   45 1   
    30   21   22 1   
    31   21   23 1   
    32   23   24 1   
    33   23   46 1   
    34   24   25 1   
    35   24   30 1   
    36   24   47 1   
    37   25   26 1   
    38   25   48 1   
    39   25   49 1   
    40   26   27 1   
    41   26   50 1   
    42   26   51 1   
    43   27   28 1   
    44   27   29 1   
    45   30   31 1   
    46   30   32 1   
@<TRIPOS>SUBSTRUCTURE
     1 DHF         1 TEMP              0 ****  ****    0 ROOT
