@<TRIPOS>MOLECULE
DHF
   51    53     1     0     0
SMALL
bcc


@<TRIPOS>ATOM
      1 N1         -2.3470    0.1040    2.6600 na        1 DHF     -0.718000
      2 C2         -2.6270   -0.9270    3.5960 cc        1 DHF      0.846100
      3 NA2        -3.8200   -1.6530    3.3660 nh        1 DHF     -0.890800
      4 N3         -1.9010   -1.1560    4.6940 nd        1 DHF     -0.784100
      5 C4         -0.7220   -0.4160    4.9220 c         1 DHF      0.750700
      6 O4         -0.1250   -0.5540    6.0090 o         1 DHF     -0.612100
      7 C4A        -0.2410    0.4720    3.8420 cc        1 DHF     -0.226600
      8 N5          1.0800    0.8940    3.8190 ne        1 DHF     -0.446300
      9 C6          1.4520    1.7040    2.8660 c2        1 DHF      0.224300
     10 C7          0.5110    2.3210    1.8520 c3        1 DHF      0.154500
     11 N8         -0.7970    1.7110    1.8060 nh        1 DHF     -0.739000
     12 C8A        -1.1240    0.7570    2.7550 cd        1 DHF      0.411000
     13 C9          2.9140    2.0030    2.6190 c3        1 DHF      0.153500
     14 N10         3.6660    0.8990    2.0380 nh        1 DHF     -0.697600
     15 C11         1.7200   -0.6010   -1.4200 ca        1 DHF     -0.139600
     16 C12         1.9540   -1.4410   -0.3250 ca        1 DHF     -0.082500
     17 C13         2.6260   -0.9720    0.7970 ca        1 DHF     -0.174500
     18 C14         3.0810    0.3640    0.8510 ca        1 DHF      0.096600
     19 C15         2.9470    1.1630   -0.3040 ca        1 DHF     -0.174500
     20 C16         2.2720    0.6820   -1.4230 ca        1 DHF     -0.082500
     21 O           0.7650   -2.3290   -2.7590 o         1 DHF     -0.664100
     22 N          -0.0040   -0.1780   -3.0990 n         1 DHF     -0.497900
     23 CA         -1.2210   -0.4840   -3.8210 c3        1 DHF     -0.031300
     24 CB         -2.4800   -0.3120   -2.9520 c3        1 DHF     -0.084400
     25 CG         -2.6010   -1.3260   -1.8360 c3        1 DHF     -0.164400
     26 CD         -2.8830   -0.7320   -0.4700 c         1 DHF      0.916600
     27 OE1        -3.4260   -1.4530    0.4320 o         1 DHF     -0.900300
     28 OE2        -2.5550    0.4640   -0.1710 o         1 DHF     -0.900300
     29 CT         -1.3850    0.4520   -5.0710 c         1 DHF      0.916600
     30 O1         -1.9620   -0.0490   -6.0760 o         1 DHF     -0.846800
     31 O2         -0.9550    1.6390   -5.0130 o         1 DHF     -0.846800
     32 HN1        -2.8540    0.1230    1.7660 hn        1 DHF      0.534800
     33 HN21       -3.8330   -2.5360    3.8280 hn        1 DHF      0.428800
     34 HN22       -4.0900   -1.7040    2.3960 hn        1 DHF      0.428800
     35 H71         0.9830    2.2760    0.8260 h1        1 DHF      0.041200
     36 H72         0.3660    3.4110    2.1170 h1        1 DHF      0.041200
     37 HN8        -1.2370    1.6440    0.9000 hn        1 DHF      0.493800
     38 H91         2.9880    2.8800    1.9160 h1        1 DHF      0.050700
     39 H92         3.4220    2.2810    3.5850 h1        1 DHF      0.050700
     40 HN0         3.7700    0.1670    2.7210 hn        1 DHF      0.371800
     41 H12         1.5610   -2.4710   -0.3520 ha        1 DHF      0.149500
     42 H13         2.7580   -1.6390    1.6630 ha        1 DHF      0.127500
     43 H15         3.3490    2.1870   -0.3140 ha        1 DHF      0.127500
     44 H16         2.1620    1.3350   -2.3030 ha        1 DHF      0.149500
     45 HN          0.0880    0.7840   -2.8570 hn        1 DHF      0.316500
     46 HA         -1.1590   -1.5490   -4.1830 h1        1 DHF      0.067700
     47 HB1        -2.4960    0.7270   -2.5250 hc        1 DHF      0.055200
     48 HB2        -3.3580   -0.4020   -3.6450 hc        1 DHF      0.055200
     49 HG1        -3.4160   -2.0590   -2.0700 hc        1 DHF      0.041200
     50 HG2        -1.6510   -1.9180   -1.7370 hc        1 DHF      0.041200
     51 C           0.7890   -1.1030   -2.4860 c         1 DHF      0.660700
@<TRIPOS>BOND
     1    1    2 1   
     2    1   12 1   
     3    1   32 1   
     4    2    3 1   
     5    2    4 2   
     6    3   33 1   
     7    3   34 1   
     8    4    5 1   
     9    5    6 2   
    10    5    7 1   
    11    7    8 1   
    12    7   12 2   
    13    8    9 2   
    14    9   10 1   
    15    9   13 1   
    16   10   11 1   
    17   10   35 1   
    18   10   36 1   
    19   11   12 1   
    20   11   37 1   
    21   13   14 1   
    22   13   38 1   
    23   13   39 1   
    24   14   18 1   
    25   14   40 1   
    26   15   16 ar  
    27   15   20 ar  
    28   15   51 1   
    29   16   17 ar  
    30   16   41 1   
    31   17   18 ar  
    32   17   42 1   
    33   18   19 ar  
    34   19   20 ar  
    35   19   43 1   
    36   20   44 1   
    37   21   51 2   
    38   22   23 1   
    39   22   45 1   
    40   22   51 1   
    41   23   24 1   
    42   23   29 1   
    43   23   46 1   
    44   24   25 1   
    45   24   47 1   
    46   24   48 1   
    47   25   26 1   
    48   25   49 1   
    49   25   50 1   
    50   26   27 1   
    51   26   28 1   
    52   29   30 1   
    53   29   31 1   
@<TRIPOS>SUBSTRUCTURE
     1 DHF         1 TEMP              0 ****  ****    0 ROOT
