@<TRIPOS>MOLECULE
DHF
   54    56     1     0     0
SMALL
bcc


@<TRIPOS>ATOM
      1 N1         -1.0110   -1.8080    1.9300 n2        1 DHF     -0.729900
      2 C2         -0.2860   -0.9550    1.2290 c2        1 DHF      0.674800
      3 NA2         0.4250   -1.3880    0.0850 nh        1 DHF     -0.887800
      4 N3         -0.2080    0.4510    1.5110 n         1 DHF     -0.527400
      5 C4         -0.8210    0.9830    2.6420 c         1 DHF      0.620200
      6 O4         -0.8940    2.2060    2.8130 o         1 DHF     -0.570500
      7 C4A        -1.3370   -0.0390    3.6300 ce        1 DHF      0.386300
      8 N5         -1.2150    0.1520    4.8960 n2        1 DHF     -0.568900
      9 C6         -1.6800   -0.8830    5.7960 c3        1 DHF      0.079500
     10 C7         -1.7350   -2.2980    5.1590 c3        1 DHF      0.143800
     11 N8         -2.4420   -2.2580    3.8970 n3        1 DHF     -0.800200
     12 C8A        -1.9320   -1.2790    2.9300 c3        1 DHF      0.295400
     13 C9         -0.7790   -0.9840    7.0550 c3        1 DHF      0.275100
     14 N10        -0.5680    0.2720    7.6810 n1        1 DHF     -0.468300
     15 C11        -2.9850    2.9930    9.5720 ce        1 DHF     -0.080200
     16 C12        -1.7600    2.5160    9.8370 c2        1 DHF     -0.110200
     17 C13        -0.6240    2.5920    8.8710 c3        1 DHF      0.011900
     18 C14        -0.5650    1.3180    8.1750 c1        1 DHF      0.554700
     19 C15        -3.8100    3.2960    7.2610 c2        1 DHF     -0.148000
     20 C16        -3.3720    3.7960    8.4150 ce        1 DHF     -0.219000
     21 O          -4.3540    3.2460   11.5800 o         1 DHF     -0.399100
     22 N          -5.0030    1.5890   10.0690 n4        1 DHF     -0.667800
     23 CA         -4.4220    0.2370   10.3960 c3        1 DHF     -0.001500
     24 CB         -5.4860   -0.8550   10.4410 c3        1 DHF     -0.094400
     25 CG         -6.4460   -0.6740   11.5740 cx        1 DHF      0.002100
     26 CD         -7.8810   -0.8130   11.3800 c         1 DHF      0.729600
     27 OE1        -8.9890   -1.2510   11.2330 o         1 DHF     -0.437500
     28 OE2        -7.3770    0.4750   11.4280 os        1 DHF     -0.482900
     29 CT         -3.3720   -0.1660    9.3000 c         1 DHF      0.905600
     30 O1         -2.3770   -0.8280    9.6760 o         1 DHF     -0.803800
     31 O2         -3.5770    0.2430    8.1230 o         1 DHF     -0.803800
     32 HN1        -2.8720   -0.9230    2.3850 h2        1 DHF      0.101700
     33 HN21        0.4030   -2.3750   -0.0650 hn        1 DHF      0.424300
     34 HN22        1.3250   -0.9790   -0.0370 hn        1 DHF      0.424300
     35 H71        -2.4940   -3.1770    3.4930 hn        1 DHF      0.406800
     36 H72        -2.3110   -2.9790    5.8470 h1        1 DHF      0.054700
     37 HN8        -0.6830   -2.6970    5.0680 h1        1 DHF      0.054700
     38 H91        -2.7250   -0.5910    6.1440 h1        1 DHF      0.146700
     39 H92        -1.3180   -1.6210    7.8320 h1        1 DHF      0.135200
     40 HN0         0.2340   -1.4150    6.8070 h1        1 DHF      0.135200
     41 H12        -0.7720    3.4130    8.1080 hc        1 DHF      0.136700
     42 H13        -1.5410    1.9740   10.7760 ha        1 DHF      0.171000
     43 H15         0.3510    2.7780    9.4080 hc        1 DHF      0.136700
     44 H16        -4.0850    3.9510    6.4190 ha        1 DHF      0.155000
     45 HN         -5.0950    1.6290    9.0370 hn        1 DHF      0.478300
     46 HA         -5.9280    1.6960   10.5090 hn        1 DHF      0.478300
     47 HB1        -3.9090    0.3150   11.3960 hx        1 DHF      0.107700
     48 HB2        -6.0240   -0.9120    9.4570 hc        1 DHF      0.109200
     49 HG1        -4.9390   -1.8320   10.5820 hc        1 DHF      0.109200
     50 HG2        -6.0120   -0.7630   12.5930 h1        1 DHF      0.132700
     51 HA23        0.1050    1.0820    0.8040 hn        1 DHF      0.347500
     52 H102       -3.9120    2.2140    7.0670 ha        1 DHF      0.155000
     53 H2         -3.2740    4.8860    8.5800 ha        1 DHF      0.166000
     54 C          -4.0940    2.7000   10.5190 c         1 DHF      0.556300
@<TRIPOS>BOND
     1    1    2 2   
     2    1   12 1   
     3    2    3 1   
     4    2    4 1   
     5    3   33 1   
     6    3   34 1   
     7    4    5 1   
     8    4   51 1   
     9    5    6 2   
    10    5    7 1   
    11    7    8 2   
    12    7   12 1   
    13    8    9 1   
    14    9   10 1   
    15    9   13 1   
    16    9   38 1   
    17   10   11 1   
    18   10   36 1   
    19   10   37 1   
    20   11   12 1   
    21   11   35 1   
    22   12   32 1   
    23   13   14 1   
    24   13   39 1   
    25   13   40 1   
    26   14   18 3   
    27   15   16 2   
    28   15   20 1   
    29   15   54 1   
    30   16   17 1   
    31   16   42 1   
    32   17   18 1   
    33   17   41 1   
    34   17   43 1   
    35   19   20 2   
    36   19   44 1   
    37   19   52 1   
    38   20   53 1   
    39   21   54 2   
    40   22   23 1   
    41   22   45 1   
    42   22   46 1   
    43   22   54 1   
    44   23   24 1   
    45   23   29 1   
    46   23   47 1   
    47   24   25 1   
    48   24   48 1   
    49   24   49 1   
    50   25   26 1   
    51   25   28 1   
    52   25   50 1   
    53   26   27 2   
    54   26   28 1   
    55   29   30 1   
    56   29   31 1   
@<TRIPOS>SUBSTRUCTURE
     1 DHF         1 TEMP              0 ****  ****    0 ROOT
