@<TRIPOS>MOLECULE
DHF
   52    50     1     0     0
SMALL
bcc


@<TRIPOS>ATOM
      1 N1         -1.7720    1.4150    0.6630 n2        1 DHF     -0.318000
      2 C2         -0.7590    0.6240    0.4490 c2        1 DHF      0.227000
      3 NA2         0.0880    0.8150   -0.6820 n8        1 DHF     -0.313000
      4 N3         -0.3610   -0.4950    1.2580 n2        1 DHF     -0.343000
      5 C4         -0.1940   -0.6300    2.4760 c1        1 DHF      0.397000
      6 O4          0.0810   -1.1000    3.5510 o         1 DHF     -0.248000
      7 C4A        -1.5150    1.1490    3.7370 c1        1 DHF     -0.048000
      8 N5         -2.2790    0.5080    4.4830 n2        1 DHF     -0.090000
      9 C6         -3.0000   -0.3860    5.0450 c2        1 DHF      0.004000
     10 C7         -4.4930   -0.3560    5.0740 c3        1 DHF     -0.212000
     11 N8         -0.2200    3.3580    4.0110 n1        1 DHF     -0.004000
     12 C8A        -0.8320    2.3670    3.9640 c1        1 DHF     -0.117000
     13 C9         -2.3750   -1.6070    5.7260 c3        1 DHF     -0.010000
     14 N10        -1.1350   -1.4050    6.4090 n7        1 DHF     -0.307000
     15 C11        -1.0280    0.4560   10.2120 c2        1 DHF     -0.249000
     16 C12         0.1370    0.1570    9.5240 c2        1 DHF      0.087000
     17 C13         0.1180   -0.4430    8.2420 c2        1 DHF     -0.317000
     18 C14        -1.0830   -0.7780    7.6360 c2        1 DHF      0.109000
     19 C15        -2.3640   -0.4770    8.3630 c3        1 DHF     -0.198000
     20 C16        -2.2820    0.1670    9.6640 c1        1 DHF     -0.132000
     21 O           0.2190    1.3190   12.0560 o         1 DHF     -0.461000
     22 N          -2.0600    1.4480   12.2050 nt        1 DHF     -0.361000
     23 CA         -6.5940    0.7140   12.0060 c2        1 DHF     -0.139000
     24 CB         -6.1030    1.2860   10.9040 c2        1 DHF     -0.263000
     25 CG         -6.8490    1.4090    9.6320 c3        1 DHF     -0.152000
     26 CD         -6.2230    0.6830    8.4800 c2        1 DHF      0.315000
     27 OE1        -6.6850    0.6080    7.3310 o         1 DHF     -0.391000
     28 OE2        -5.0450    0.0150    8.6000 oh        1 DHF     -0.345000
     29 CT         -5.8220    0.6310   13.3070 c2        1 DHF      0.347000
     30 O1         -4.6110    0.9980   13.3230 o         1 DHF     -0.568000
     31 O2         -6.4420    0.1910   14.3140 o         1 DHF     -0.568000
     32 HN1        -2.2520    1.3090    1.5310 hn        1 DHF      0.181000
     33 HN21       -0.3340    1.3740   -1.3940 hn        1 DHF      0.197500
     34 HN22        0.4880   -0.0260   -1.0400 hn        1 DHF      0.197500
     35 H71        -4.9260    0.4110    4.3870 hc        1 DHF      0.122333
     36 H72        -4.8850   -1.3620    4.7810 hc        1 DHF      0.122333
     37 HN8        -4.8460   -0.1260    6.1200 hc        1 DHF      0.122333
     38 H91        -3.1440   -2.0100    6.4480 h1        1 DHF      0.123500
     39 H92        -2.2020   -2.3770    4.9170 h1        1 DHF      0.123500
     40 HN0        -0.3090   -1.4090    5.8490 hn        1 DHF      0.240000
     41 H12         1.0810   -0.6340    7.7450 ha        1 DHF      0.133000
     42 H13         1.1160    0.3980    9.9800 ha        1 DHF      0.158000
     43 H15        -2.9530   -1.4300    8.5280 hc        1 DHF      0.167500
     44 H16        -3.0120    0.1830    7.7060 hc        1 DHF      0.167500
     45 HN         -2.9520    1.1280   11.8850 hn        1 DHF      0.251500
     46 HA         -2.0160    1.7280   13.1560 hn        1 DHF      0.251500
     47 HB1        -7.6010    0.2700   12.0410 ha        1 DHF      0.104000
     48 HB2        -5.0920    1.7310   10.9250 ha        1 DHF      0.147000
     49 HG1        -4.6380    0.1460    9.4830 ho        1 DHF      0.291000
     50 HG2        -7.8990    1.0180    9.7380 hc        1 DHF      0.111500
     51 H2         -6.9240    2.4930    9.3380 hc        1 DHF      0.111500
     52 C          -0.9170    1.0870   11.5620 c2        1 DHF      0.343000
@<TRIPOS>BOND
     1    1    2 1   
     2    1   32 1   
     3    2    3 1   
     4    2    4 1   
     5    3   33 1   
     6    3   34 1   
     7    4    5 1   
     8    5    6 1   
     9    7    8 1   
    10    7   12 1   
    11    8    9 1   
    12    9   10 1   
    13    9   13 1   
    14   10   35 1   
    15   10   36 1   
    16   10   37 1   
    17   11   12 1   
    18   13   14 1   
    19   13   38 1   
    20   13   39 1   
    21   14   18 1   
    22   14   40 1   
    23   15   16 1   
    24   15   20 1   
    25   15   52 1   
    26   16   17 1   
    27   16   42 1   
    28   17   18 1   
    29   17   41 1   
    30   18   19 1   
    31   19   20 1   
    32   19   43 1   
    33   19   44 1   
    34   21   52 1   
    35   22   45 1   
    36   22   46 1   
    37   22   52 1   
    38   23   24 1   
    39   23   29 1   
    40   23   47 1   
    41   24   25 1   
    42   24   48 1   
    43   25   26 1   
    44   25   50 1   
    45   25   51 1   
    46   26   27 1   
    47   26   28 1   
    48   28   49 1   
    49   29   30 1   
    50   29   31 1   
@<TRIPOS>SUBSTRUCTURE
     1 DHF         1 TEMP              0 ****  ****    0 ROOT
