@<TRIPOS>MOLECULE
DHG
   70    69     1     0     0
SMALL
bcc


@<TRIPOS>ATOM
      1 C1         -0.2060    2.1990    0.0270 c         1 DHG      0.552100
      2 C2          1.1160    1.4870    0.0140 c3        1 DHG     -0.156400
      3 C3          1.7160    1.4430    1.4060 c3        1 DHG     -0.080400
      4 C4          3.0820    0.7900    1.3710 c3        1 DHG     -0.080400
      5 C5          3.6870    0.7340    2.7580 c3        1 DHG     -0.078400
      6 C6          5.0530    0.0830    2.7300 c3        1 DHG     -0.079400
      7 C7          5.6600    0.0270    4.1160 c3        1 DHG     -0.079400
      8 C8          7.0260   -0.6230    4.0900 c3        1 DHG     -0.079400
      9 C9          7.6340   -0.6790    5.4750 c3        1 DHG     -0.079400
     10 C10         9.0010   -1.3290    5.4490 c3        1 DHG     -0.079400
     11 C11         9.6100   -1.3850    6.8340 c3        1 DHG     -0.080400
     12 C12        10.9710   -2.0310    6.8130 c3        1 DHG     -0.093100
     13 O1         -0.7140    2.8280    0.9460 o         1 DHG     -0.433100
     14 N          -0.9800    2.1660   -1.2600 ny        1 DHG     -0.680800
     15 CH1        -2.9680    1.4040   -2.5560 c3        1 DHG      0.195400
     16 CH2        -2.1240    1.1660   -1.2560 c3        1 DHG      0.089500
     17 CH3        -1.6390   -0.2700   -1.1470 c3        1 DHG     -0.153400
     18 CH4        -1.5170   -0.7370    0.2850 c3        1 DHG     -0.076400
     19 CH5        -0.9220   -2.1290    0.3440 c3        1 DHG     -0.083400
     20 CH6        -0.8500   -2.6370    1.7600 c3        1 DHG     -0.093100
     21 O1P        -3.5170    0.1140   -4.9120 o         1 DHG     -0.812000
     22 O2P        -3.4980   -1.7950   -3.1100 o         1 DHG     -0.812000
     23 O3P        -4.0500    0.5640   -2.5400 os        1 DHG     -0.543200
     24 P          -4.0840   -0.6130   -3.7610 p5        1 DHG      1.422800
     25 OG1        -5.6960   -0.7490   -3.9000 os        1 DHG     -0.561200
     26 CG1        -6.2890    0.3160   -4.6010 c3        1 DHG      0.123400
     27 CG2        -7.7690   -0.0000   -4.7740 c3        1 DHG      0.134400
     28 OG2        -8.4120   -0.2050   -3.5320 oh        1 DHG     -0.614800
     29 H21         1.8080    2.0270   -0.6880 hc        1 DHG      0.100200
     30 H22         0.9740    0.4370   -0.3720 hc        1 DHG      0.100200
     31 H31         1.7980    2.4840    1.8170 hc        1 DHG      0.067700
     32 H32         1.0340    0.8690    2.0890 hc        1 DHG      0.067700
     33 H41         2.9940   -0.2500    0.9580 hc        1 DHG      0.047200
     34 H42         3.7610    1.3650    0.6880 hc        1 DHG      0.047200
     35 H51         3.0090    0.1580    3.4420 hc        1 DHG      0.046200
     36 H52         3.7720    1.7730    3.1740 hc        1 DHG      0.046200
     37 H61         5.7310    0.6580    2.0460 hc        1 DHG      0.042200
     38 H62         4.9670   -0.9560    2.3160 hc        1 DHG      0.042200
     39 H71         4.9820   -0.5480    4.8010 hc        1 DHG      0.041700
     40 H72         5.7450    1.0660    4.5320 hc        1 DHG      0.041700
     41 H81         7.7040   -0.0480    3.4050 hc        1 DHG      0.040700
     42 H82         6.9410   -1.6620    3.6750 hc        1 DHG      0.040700
     43 H91         7.7190    0.3600    5.8900 hc        1 DHG      0.040200
     44 H92         6.9570   -1.2540    6.1600 hc        1 DHG      0.040200
     45 H101        8.9160   -2.3670    5.0340 hc        1 DHG      0.040200
     46 H102        9.6780   -0.7540    4.7640 hc        1 DHG      0.040200
     47 H111        8.9310   -1.9590    7.5180 hc        1 DHG      0.038700
     48 H112        9.6930   -0.3450    7.2480 hc        1 DHG      0.038700
     49 H121       10.9060   -3.0760    6.4260 hc        1 DHG      0.033367
     50 H122       11.6700   -1.4580    6.1560 hc        1 DHG      0.033367
     51 H123       11.4020   -2.0620    7.8430 hc        1 DHG      0.033367
     52 HN         -1.3880    3.0920   -1.4340 hn        1 DHG      0.449300
     53 HH11       -3.3320    2.4730   -2.5350 h1        1 DHG      0.042200
     54 HH12       -2.3270    1.2380   -3.4700 h1        1 DHG      0.042200
     55 HH2        -2.7700    1.4200   -0.3640 hx        1 DHG      0.112700
     56 HH31       -2.4160   -0.9270   -1.6760 hc        1 DHG      0.118200
     57 HH32       -0.6790   -0.4280   -1.7030 hc        1 DHG      0.118200
     58 HH41       -2.5340   -0.7470    0.7620 hc        1 DHG      0.031700
     59 HH42       -0.8810   -0.0290    0.8830 hc        1 DHG      0.031700
     60 HH51        0.1050   -2.1160   -0.1070 hc        1 DHG      0.054700
     61 HH52       -1.5490   -2.8220   -0.2800 hc        1 DHG      0.054700
     62 HH61       -0.2240   -1.9630    2.3940 hc        1 DHG      0.034700
     63 HH62       -1.8700   -2.6940    2.2110 hc        1 DHG      0.034700
     64 HH63       -0.4000   -3.6590    1.7800 hc        1 DHG      0.034700
     65 HG11       -6.1450    1.2520   -3.9970 h1        1 DHG      0.045200
     66 HG12       -5.7800    0.4320   -5.5960 h1        1 DHG      0.045200
     67 HG21       -7.8910   -0.9140   -5.4150 h1        1 DHG      0.040700
     68 HG22       -8.3000    0.8690   -5.2440 h1        1 DHG      0.040700
     69 HOG2       -7.8560   -0.8170   -3.0300 ho        1 DHG      0.422000
     70 HN3        -0.3550    1.9270   -2.0350 hn        1 DHG      0.449300
@<TRIPOS>BOND
     1    1    2 1   
     2    1   13 2   
     3    1   14 1   
     4    2    3 1   
     5    2   29 1   
     6    2   30 1   
     7    3    4 1   
     8    3   31 1   
     9    3   32 1   
    10    4    5 1   
    11    4   33 1   
    12    4   34 1   
    13    5    6 1   
    14    5   35 1   
    15    5   36 1   
    16    6    7 1   
    17    6   37 1   
    18    6   38 1   
    19    7    8 1   
    20    7   39 1   
    21    7   40 1   
    22    8    9 1   
    23    8   41 1   
    24    8   42 1   
    25    9   10 1   
    26    9   43 1   
    27    9   44 1   
    28   10   11 1   
    29   10   45 1   
    30   10   46 1   
    31   11   12 1   
    32   11   47 1   
    33   11   48 1   
    34   12   49 1   
    35   12   50 1   
    36   12   51 1   
    37   14   16 1   
    38   14   52 1   
    39   14   70 1   
    40   15   16 1   
    41   15   23 1   
    42   15   53 1   
    43   15   54 1   
    44   16   17 1   
    45   16   55 1   
    46   17   18 1   
    47   17   56 1   
    48   17   57 1   
    49   18   19 1   
    50   18   58 1   
    51   18   59 1   
    52   19   20 1   
    53   19   60 1   
    54   19   61 1   
    55   20   62 1   
    56   20   63 1   
    57   20   64 1   
    58   21   24 1   
    59   22   24 1   
    60   23   24 1   
    61   24   25 1   
    62   25   26 1   
    63   26   27 1   
    64   26   65 1   
    65   26   66 1   
    66   27   28 1   
    67   27   67 1   
    68   27   68 1   
    69   28   69 1   
@<TRIPOS>SUBSTRUCTURE
     1 DHG         1 TEMP              0 ****  ****    0 ROOT
