@<TRIPOS>MOLECULE
DHG
   70    69     1     0     0
SMALL
bcc


@<TRIPOS>ATOM
      1 C1         -0.0690    2.3320   -0.0190 c         1 DHG      0.552100
      2 C2          1.1890    1.5090   -0.0240 c3        1 DHG     -0.156400
      3 C3          1.8460    1.5240    1.3430 c3        1 DHG     -0.080400
      4 C4          3.1490    0.7540    1.3100 c3        1 DHG     -0.080400
      5 C5          3.8090    0.7560    2.6720 c3        1 DHG     -0.078400
      6 C6          5.1140   -0.0110    2.6460 c3        1 DHG     -0.079400
      7 C7          5.7760   -0.0100    4.0070 c3        1 DHG     -0.079400
      8 C8          7.0800   -0.7770    3.9820 c3        1 DHG     -0.079400
      9 C9          7.7430   -0.7770    5.3430 c3        1 DHG     -0.079400
     10 C10         9.0480   -1.5440    5.3190 c3        1 DHG     -0.079400
     11 C11         9.7110   -1.5440    6.6800 c3        1 DHG     -0.080400
     12 C12        11.0110   -2.3070    6.6600 c3        1 DHG     -0.093100
     13 O1         -0.4810    3.0710    0.8640 o         1 DHG     -0.434100
     14 N          -0.9000    2.2640   -1.2680 n4        1 DHG     -0.680800
     15 CH1        -3.0030    1.5780   -2.4170 c3        1 DHG      0.195400
     16 CH2        -2.1210    1.3680   -1.1370 c3        1 DHG      0.089500
     17 CH3        -1.7510   -0.0910   -0.9320 c3        1 DHG     -0.154400
     18 CH4        -1.6020   -0.4550    0.5270 c3        1 DHG     -0.076400
     19 CH5        -1.1190   -1.8820    0.6750 c3        1 DHG     -0.083400
     20 CH6        -1.0240   -2.2840    2.1240 c3        1 DHG     -0.093100
     21 O1P        -3.7570    0.1710   -4.6450 o         1 DHG     -0.812500
     22 O2P        -3.7980   -1.5970   -2.7070 o         1 DHG     -0.812500
     23 O3P        -4.1440    0.8300   -2.2940 os        1 DHG     -0.540200
     24 P          -4.3250   -0.4230   -3.4210 p5        1 DHG      1.426800
     25 OG1        -5.9470   -0.4580   -3.4840 os        1 DHG     -0.568200
     26 CG1        -6.5830    0.3610   -4.4300 c3        1 DHG      0.128400
     27 CG2        -7.5330   -0.5030   -5.2600 c3        1 DHG      0.119400
     28 OG2        -8.4930   -1.1510   -4.4510 oh        1 DHG     -0.614800
     29 H21         1.8910    1.9310   -0.7940 hc        1 DHG      0.100200
     30 H22         0.9430    0.4490   -0.3170 hc        1 DHG      0.100200
     31 H31         1.1500    1.0670    2.0960 hc        1 DHG      0.067700
     32 H32         2.0320    2.5830    1.6630 hc        1 DHG      0.067700
     33 H41         3.8420    1.2130    0.5550 hc        1 DHG      0.047200
     34 H42         2.9560   -0.3030    0.9870 hc        1 DHG      0.047200
     35 H51         3.1170    0.2970    3.4270 hc        1 DHG      0.046200
     36 H52         4.0000    1.8130    2.9970 hc        1 DHG      0.046200
     37 H61         4.9230   -1.0680    2.3210 hc        1 DHG      0.042200
     38 H62         5.8060    0.4470    1.8910 hc        1 DHG      0.042200
     39 H71         5.0840   -0.4690    4.7620 hc        1 DHG      0.041700
     40 H72         5.9670    1.0460    4.3330 hc        1 DHG      0.041700
     41 H81         6.8900   -1.8340    3.6570 hc        1 DHG      0.040700
     42 H82         7.7720   -0.3190    3.2270 hc        1 DHG      0.040700
     43 H91         7.9340    0.2800    5.6690 hc        1 DHG      0.040200
     44 H92         7.0510   -1.2350    6.0980 hc        1 DHG      0.040200
     45 H101        9.7400   -1.0860    4.5640 hc        1 DHG      0.040200
     46 H102        8.8570   -2.6000    4.9940 hc        1 DHG      0.040200
     47 H111        9.0170   -2.0020    7.4340 hc        1 DHG      0.038700
     48 H112        9.9000   -0.4870    7.0040 hc        1 DHG      0.038700
     49 H121       11.7250   -1.8510    5.9330 hc        1 DHG      0.033367
     50 H122       11.4830   -2.2950    7.6720 hc        1 DHG      0.033367
     51 H123       10.8400   -3.3700    6.3640 hc        1 DHG      0.033367
     52 HN         -0.3320    1.9110   -2.0440 hn        1 DHG      0.449300
     53 HH11       -2.4190    1.2950   -3.3400 h1        1 DHG      0.041700
     54 HH12       -3.2820    2.6710   -2.4630 h1        1 DHG      0.041700
     55 HH2        -2.7010    1.7450   -0.2430 hx        1 DHG      0.111700
     56 HH31       -2.6020   -0.7180   -1.3760 hc        1 DHG      0.118700
     57 HH32       -0.8330   -0.3720   -1.5100 hc        1 DHG      0.118700
     58 HH41       -0.8860    0.2420    1.0420 hc        1 DHG      0.031200
     59 HH42       -2.5940   -0.3430    1.0420 hc        1 DHG      0.031200
     60 HH51       -1.8260   -2.5670    0.1330 hc        1 DHG      0.054700
     61 HH52       -0.1140   -1.9900    0.1860 hc        1 DHG      0.054700
     62 HH61       -0.6570   -3.3360    2.2090 hc        1 DHG      0.034700
     63 HH62       -0.3200   -1.6180    2.6770 hc        1 DHG      0.034700
     64 HH63       -2.0260   -2.2210    2.6160 hc        1 DHG      0.034700
     65 HG11       -7.1840    1.1350   -3.8740 h1        1 DHG      0.052200
     66 HG12       -5.8270    0.8600   -5.0950 h1        1 DHG      0.052200
     67 HG21       -8.1230    0.1380   -5.9660 h1        1 DHG      0.039700
     68 HG22       -6.9540   -1.2700   -5.8410 h1        1 DHG      0.039700
     69 HOG2       -8.0150   -1.5260   -3.6980 ho        1 DHG      0.421000
     70 HN3        -1.2380    3.2040   -1.5020 hn        1 DHG      0.449300
@<TRIPOS>BOND
     1    1    2 1   
     2    1   13 2   
     3    1   14 1   
     4    2    3 1   
     5    2   29 1   
     6    2   30 1   
     7    3    4 1   
     8    3   31 1   
     9    3   32 1   
    10    4    5 1   
    11    4   33 1   
    12    4   34 1   
    13    5    6 1   
    14    5   35 1   
    15    5   36 1   
    16    6    7 1   
    17    6   37 1   
    18    6   38 1   
    19    7    8 1   
    20    7   39 1   
    21    7   40 1   
    22    8    9 1   
    23    8   41 1   
    24    8   42 1   
    25    9   10 1   
    26    9   43 1   
    27    9   44 1   
    28   10   11 1   
    29   10   45 1   
    30   10   46 1   
    31   11   12 1   
    32   11   47 1   
    33   11   48 1   
    34   12   49 1   
    35   12   50 1   
    36   12   51 1   
    37   14   16 1   
    38   14   52 1   
    39   14   70 1   
    40   15   16 1   
    41   15   23 1   
    42   15   53 1   
    43   15   54 1   
    44   16   17 1   
    45   16   55 1   
    46   17   18 1   
    47   17   56 1   
    48   17   57 1   
    49   18   19 1   
    50   18   58 1   
    51   18   59 1   
    52   19   20 1   
    53   19   60 1   
    54   19   61 1   
    55   20   62 1   
    56   20   63 1   
    57   20   64 1   
    58   21   24 1   
    59   22   24 1   
    60   23   24 1   
    61   24   25 1   
    62   25   26 1   
    63   26   27 1   
    64   26   65 1   
    65   26   66 1   
    66   27   28 1   
    67   27   67 1   
    68   27   68 1   
    69   28   69 1   
@<TRIPOS>SUBSTRUCTURE
     1 DHG         1 TEMP              0 ****  ****    0 ROOT
