@<TRIPOS>MOLECULE
DHG
   69    67     1     0     0
SMALL
bcc


@<TRIPOS>ATOM
      1 C1         -0.6950   -2.0730   -0.0470 c1        1 DHG      0.299000
      2 C2          0.8480   -1.9990    0.2880 c2        1 DHG     -0.184000
      3 C3          1.1130   -0.8150    1.3190 c3        1 DHG     -0.151000
      4 C4          2.6370   -0.4670    1.3380 c3        1 DHG     -0.158000
      5 C5          2.9010    0.6150    2.3980 c3        1 DHG     -0.157000
      6 C6          4.2160    1.3640    2.0540 c3        1 DHG     -0.157000
      7 C7          4.4780    2.4640    3.1050 c3        1 DHG     -0.158000
      8 C8          5.6390    3.3810    2.6180 c3        1 DHG     -0.157000
      9 C9          5.6090    4.7330    3.4160 c3        1 DHG     -0.158000
     10 C10         6.6750    5.6800    2.8600 c3        1 DHG     -0.158000
     11 C11         6.4520    7.0750    3.4140 c3        1 DHG     -0.159000
     12 C12         7.5340    7.9950    2.9070 c3        1 DHG     -0.210000
     13 O1         -1.4650   -1.2620    0.4420 o         1 DHG     -0.387000
     14 N          -1.2060   -3.1470   -0.8710 n3        1 DHG     -0.369000
     15 CH1        -2.6240   -2.8740   -2.8070 c3        1 DHG      0.026000
     16 CH2        -2.5740   -3.1260   -1.3090 c3        1 DHG     -0.002000
     17 CH3        -3.2310   -4.4630   -0.9940 c3        1 DHG     -0.175000
     18 CH4        -4.3100   -4.2640    0.1270 c3        1 DHG     -0.154000
     19 CH5        -4.9730   -5.6290    0.4540 c3        1 DHG     -0.162000
     20 CH6        -5.8900   -5.4760    1.7080 c3        1 DHG     -0.206000
     21 O1P        -3.4160   -2.5450   -5.5860 o         1 DHG     -0.819500
     22 O2P        -3.0540   -0.2500   -4.6900 o         1 DHG     -0.819500
     23 O3P        -3.7590   -2.1020   -3.1140 os        1 DHG     -0.731000
     24 P          -3.8980   -1.5130   -4.5710 p5        1 DHG      1.889000
     25 OG1        -5.4140   -1.1630   -4.8540 os        1 DHG     -0.734000
     26 CG1        -5.7280   -0.4530   -6.0190 c3        1 DHG     -0.003000
     27 CG2        -7.2050    0.0250   -5.9520 c3        1 DHG     -0.054000
     28 OG2        -7.5910    0.5730   -7.2240 oh        1 DHG     -0.351000
     29 H21         1.3550   -1.8340   -0.5380 ha        1 DHG      0.094000
     30 H22         1.1370   -2.8490    0.6860 ha        1 DHG      0.094000
     31 H31         0.8320   -1.0920    2.2130 hc        1 DHG      0.097500
     32 H32         0.6020   -0.0240    1.0460 hc        1 DHG      0.097500
     33 H41         2.9070   -0.1350    0.4600 hc        1 DHG      0.074000
     34 H42         3.1430   -1.2560    1.5520 hc        1 DHG      0.074000
     35 H51         2.9850    0.1960    3.2780 hc        1 DHG      0.081500
     36 H52         2.1520    1.2550    2.4090 hc        1 DHG      0.081500
     37 H61         4.1340    1.7780    1.1580 hc        1 DHG      0.076500
     38 H62         4.9580    0.7330    2.0530 hc        1 DHG      0.076500
     39 H71         4.7210    2.0550    3.9440 hc        1 DHG      0.079000
     40 H72         3.6650    3.0020    3.2250 hc        1 DHG      0.079000
     41 H81         5.5310    3.5650    1.6500 hc        1 DHG      0.077500
     42 H82         6.4850    2.9370    2.7690 hc        1 DHG      0.077500
     43 H91         5.7880    4.5600    4.3520 hc        1 DHG      0.078500
     44 H92         4.7140    5.1510    3.3220 hc        1 DHG      0.078500
     45 H101        6.6140    5.7040    1.8770 hc        1 DHG      0.078000
     46 H102        7.5530    5.3670    3.1210 hc        1 DHG      0.078000
     47 H111        5.5710    7.4090    3.1200 hc        1 DHG      0.077500
     48 H112        6.4800    7.0460    4.3800 hc        1 DHG      0.077500
     49 H121        7.2250    8.9220    2.9580 hc        1 DHG      0.070333
     50 H122        8.3310    7.8890    3.4530 hc        1 DHG      0.070333
     51 H123        7.7450    7.7690    1.9690 hc        1 DHG      0.070333
     52 HN         -0.6850   -3.8620   -1.0540 hn        1 DHG      0.213000
     53 HH11       -2.6740   -3.7290   -3.2800 h1        1 DHG      0.072000
     54 HH12       -1.8170   -2.3930   -3.0840 h1        1 DHG      0.072000
     55 HH2        -3.0580   -2.4040   -0.8390 h1        1 DHG      0.132000
     56 HH31       -2.5530   -5.0950   -0.6850 hc        1 DHG      0.102500
     57 HH32       -3.6600   -4.8140   -1.7990 hc        1 DHG      0.102500
     58 HH41       -3.8850   -3.9110    0.9270 hc        1 DHG      0.076000
     59 HH42       -4.9920   -3.6350   -0.1850 hc        1 DHG      0.076000
     60 HH51       -4.2860   -6.2870    0.6360 hc        1 DHG      0.080000
     61 HH52       -5.5100   -5.9220   -0.3090 hc        1 DHG      0.080000
     62 HH61       -6.5270   -6.2450    1.7510 hc        1 DHG      0.063667
     63 HH62       -5.3360   -5.4650    2.5210 hc        1 DHG      0.063667
     64 HH63       -6.3930   -4.6400    1.6450 hc        1 DHG      0.063667
     65 HG11       -5.1450    0.3140   -6.0970 h1        1 DHG      0.077500
     66 HG12       -5.6090   -1.0310   -6.7950 h1        1 DHG      0.077500
     67 HG21       -7.7920   -0.7440   -5.7310 h1        1 DHG      0.085500
     68 HG22       -7.2960    0.7210   -5.2520 h1        1 DHG      0.085500
     69 HOG2       -8.4810    0.7110   -7.2350 ho        1 DHG      0.194000
@<TRIPOS>BOND
     1    1   13 1   
     2    1   14 1   
     3    2    3 1   
     4    2   29 1   
     5    2   30 1   
     6    3    4 1   
     7    3   31 1   
     8    3   32 1   
     9    4    5 1   
    10    4   33 1   
    11    4   34 1   
    12    5    6 1   
    13    5   35 1   
    14    5   36 1   
    15    6    7 1   
    16    6   37 1   
    17    6   38 1   
    18    7    8 1   
    19    7   39 1   
    20    7   40 1   
    21    8    9 1   
    22    8   41 1   
    23    8   42 1   
    24    9   10 1   
    25    9   43 1   
    26    9   44 1   
    27   10   11 1   
    28   10   45 1   
    29   10   46 1   
    30   11   12 1   
    31   11   47 1   
    32   11   48 1   
    33   12   49 1   
    34   12   50 1   
    35   12   51 1   
    36   14   16 1   
    37   14   52 1   
    38   15   16 1   
    39   15   23 1   
    40   15   53 1   
    41   15   54 1   
    42   16   17 1   
    43   16   55 1   
    44   17   18 1   
    45   17   56 1   
    46   17   57 1   
    47   18   19 1   
    48   18   58 1   
    49   18   59 1   
    50   19   20 1   
    51   19   60 1   
    52   19   61 1   
    53   20   62 1   
    54   20   63 1   
    55   20   64 1   
    56   21   24 1   
    57   22   24 1   
    58   23   24 1   
    59   24   25 1   
    60   25   26 1   
    61   26   27 1   
    62   26   65 1   
    63   26   66 1   
    64   27   28 1   
    65   27   67 1   
    66   27   68 1   
    67   28   69 1   
@<TRIPOS>SUBSTRUCTURE
     1 DHG         1 TEMP              0 ****  ****    0 ROOT
