@<TRIPOS>MOLECULE
DHG
   70    69     1     0     0
SMALL
bcc


@<TRIPOS>ATOM
      1 C1         -0.2750    2.1880    0.1300 c         1 DHG      0.552100
      2 C2          1.0670    1.5150    0.0860 c3        1 DHG     -0.156400
      3 C3          1.6700    1.4300    1.4750 c3        1 DHG     -0.080400
      4 C4          3.0530    0.8170    1.4130 c3        1 DHG     -0.080400
      5 C5          3.6620    0.7220    2.7960 c3        1 DHG     -0.078400
      6 C6          5.0460    0.1120    2.7410 c3        1 DHG     -0.079400
      7 C7          5.6570    0.0180    4.1230 c3        1 DHG     -0.079400
      8 C8          7.0420   -0.5920    4.0690 c3        1 DHG     -0.079400
      9 C9          7.6540   -0.6840    5.4500 c3        1 DHG     -0.079400
     10 C10         9.0390   -1.2930    5.3970 c3        1 DHG     -0.079400
     11 C11         9.6530   -1.3860    6.7770 c3        1 DHG     -0.080400
     12 C12        11.0320   -1.9920    6.7290 c3        1 DHG     -0.093100
     13 O1         -0.8000    2.7610    1.0750 o         1 DHG     -0.433100
     14 N          -1.0480    2.1890   -1.1580 n4        1 DHG     -0.680800
     15 CH1        -3.0150    1.4280   -2.4860 c3        1 DHG      0.195400
     16 CH2        -2.1640    1.1570   -1.1980 c3        1 DHG      0.089500
     17 CH3        -1.6380   -0.2680   -1.1530 c3        1 DHG     -0.153400
     18 CH4        -1.5010   -0.7930    0.2580 c3        1 DHG     -0.076400
     19 CH5        -0.8670   -2.1690    0.2560 c3        1 DHG     -0.083400
     20 CH6        -0.7790   -2.7370    1.6480 c3        1 DHG     -0.093100
     21 O1P        -3.5290    0.2280   -4.8970 o         1 DHG     -0.812000
     22 O2P        -3.4510   -1.7570   -3.1820 o         1 DHG     -0.812000
     23 O3P        -4.0720    0.5560   -2.5080 os        1 DHG     -0.543200
     24 P          -4.0730   -0.5650   -3.7810 p5        1 DHG      1.422800
     25 OG1        -5.6800   -0.7430   -3.9260 os        1 DHG     -0.561200
     26 CG1        -6.3050    0.3350   -4.5790 c3        1 DHG      0.123400
     27 CG2        -7.7750   -0.0170   -4.7670 c3        1 DHG      0.134400
     28 OG2        -8.4100   -0.2960   -3.5360 oh        1 DHG     -0.614800
     29 H21         0.9550    0.4800   -0.3450 hc        1 DHG      0.100200
     30 H22         1.7430    2.1050   -0.5920 hc        1 DHG      0.100200
     31 H31         1.7230    2.4540    1.9300 hc        1 DHG      0.067700
     32 H32         1.0050    0.8080    2.1330 hc        1 DHG      0.067700
     33 H41         3.7150    1.4390    0.7530 hc        1 DHG      0.047200
     34 H42         2.9940   -0.2060    0.9570 hc        1 DHG      0.047200
     35 H51         3.0020    0.0990    3.4560 hc        1 DHG      0.046200
     36 H52         3.7190    1.7450    3.2540 hc        1 DHG      0.046200
     37 H61         4.9880   -0.9120    2.2850 hc        1 DHG      0.042200
     38 H62         5.7060    0.7320    2.0790 hc        1 DHG      0.042200
     39 H71         5.7140    1.0410    4.5790 hc        1 DHG      0.041700
     40 H72         4.9980   -0.6040    4.7840 hc        1 DHG      0.041700
     41 H81         6.9850   -1.6160    3.6130 hc        1 DHG      0.040700
     42 H82         7.7010    0.0290    3.4060 hc        1 DHG      0.040700
     43 H91         7.7100    0.3390    5.9060 hc        1 DHG      0.040200
     44 H92         6.9950   -1.3060    6.1130 hc        1 DHG      0.040200
     45 H101        9.6980   -0.6720    4.7340 hc        1 DHG      0.040200
     46 H102        8.9830   -2.3170    4.9410 hc        1 DHG      0.040200
     47 H111        9.7070   -0.3620    7.2320 hc        1 DHG      0.038700
     48 H112        8.9920   -2.0060    7.4390 hc        1 DHG      0.038700
     49 H121       10.9950   -3.0230    6.3020 hc        1 DHG      0.033367
     50 H122       11.4660   -2.0510    7.7570 hc        1 DHG      0.033367
     51 H123       11.7120   -1.3740    6.0950 hc        1 DHG      0.033367
     52 HN         -1.4830    3.1090   -1.2920 hn        1 DHG      0.449300
     53 HH11       -2.3710    1.3210   -3.4060 h1        1 DHG      0.042200
     54 HH12       -3.4100    2.4840   -2.4190 h1        1 DHG      0.042200
     55 HH2        -2.8160    1.3530   -0.2960 hx        1 DHG      0.111700
     56 HH31       -0.6730   -0.3730   -1.7140 hc        1 DHG      0.118200
     57 HH32       -2.3950   -0.9220   -1.7100 hc        1 DHG      0.118200
     58 HH41       -0.8840   -0.0950    0.8870 hc        1 DHG      0.031700
     59 HH42       -2.5160   -0.8530    0.7330 hc        1 DHG      0.031700
     60 HH51       -1.4740   -2.8510   -0.3990 hc        1 DHG      0.054700
     61 HH52        0.1600   -2.1070   -0.1940 hc        1 DHG      0.054700
     62 HH61       -1.7980   -2.8430    2.0950 hc        1 DHG      0.034700
     63 HH62       -0.3010   -3.7460    1.6230 hc        1 DHG      0.034700
     64 HH63       -0.1720   -2.0750    2.3110 hc        1 DHG      0.034700
     65 HG11       -5.8000    0.5110   -5.5680 h1        1 DHG      0.045200
     66 HG12       -6.1880    1.2470   -3.9330 h1        1 DHG      0.045200
     67 HG21       -7.8710   -0.9040   -5.4480 h1        1 DHG      0.040700
     68 HG22       -8.3320    0.8570   -5.1970 h1        1 DHG      0.040700
     69 HOG2       -7.8360   -0.9130   -3.0610 ho        1 DHG      0.422000
     70 HN3        -0.4170    2.0020   -1.9420 hn        1 DHG      0.449300
@<TRIPOS>BOND
     1    1    2 1   
     2    1   13 2   
     3    1   14 1   
     4    2    3 1   
     5    2   29 1   
     6    2   30 1   
     7    3    4 1   
     8    3   31 1   
     9    3   32 1   
    10    4    5 1   
    11    4   33 1   
    12    4   34 1   
    13    5    6 1   
    14    5   35 1   
    15    5   36 1   
    16    6    7 1   
    17    6   37 1   
    18    6   38 1   
    19    7    8 1   
    20    7   39 1   
    21    7   40 1   
    22    8    9 1   
    23    8   41 1   
    24    8   42 1   
    25    9   10 1   
    26    9   43 1   
    27    9   44 1   
    28   10   11 1   
    29   10   45 1   
    30   10   46 1   
    31   11   12 1   
    32   11   47 1   
    33   11   48 1   
    34   12   49 1   
    35   12   50 1   
    36   12   51 1   
    37   14   16 1   
    38   14   52 1   
    39   14   70 1   
    40   15   16 1   
    41   15   23 1   
    42   15   53 1   
    43   15   54 1   
    44   16   17 1   
    45   16   55 1   
    46   17   18 1   
    47   17   56 1   
    48   17   57 1   
    49   18   19 1   
    50   18   58 1   
    51   18   59 1   
    52   19   20 1   
    53   19   60 1   
    54   19   61 1   
    55   20   62 1   
    56   20   63 1   
    57   20   64 1   
    58   21   24 1   
    59   22   24 1   
    60   23   24 1   
    61   24   25 1   
    62   25   26 1   
    63   26   27 1   
    64   26   65 1   
    65   26   66 1   
    66   27   28 1   
    67   27   67 1   
    68   27   68 1   
    69   28   69 1   
@<TRIPOS>SUBSTRUCTURE
     1 DHG         1 TEMP              0 ****  ****    0 ROOT
