@<TRIPOS>MOLECULE
DHG
   69    68     1     0     0
SMALL
bcc


@<TRIPOS>ATOM
      1 C1         -0.5130    0.0810    0.1310 c         1 DHG      0.656100
      2 C2         -0.1960   -0.7070    1.3960 c3        1 DHG     -0.155400
      3 C3         -0.1400    0.2040    2.6020 c3        1 DHG     -0.072400
      4 C4          0.1810   -0.5750    3.8590 c3        1 DHG     -0.079400
      5 C5          0.2360    0.3360    5.0670 c3        1 DHG     -0.078400
      6 C6          0.5580   -0.4390    6.3270 c3        1 DHG     -0.078400
      7 C7          0.6130    0.4730    7.5340 c3        1 DHG     -0.079400
      8 C8          0.9340   -0.3010    8.7940 c3        1 DHG     -0.078400
      9 C9          0.9900    0.6110   10.0010 c3        1 DHG     -0.079400
     10 C10         1.3100   -0.1630   11.2610 c3        1 DHG     -0.079400
     11 C11         1.3660    0.7480   12.4690 c3        1 DHG     -0.080400
     12 C12         1.6860   -0.0180   13.7260 c3        1 DHG     -0.092100
     13 O1         -0.6700    1.3200    0.1630 o         1 DHG     -0.627100
     14 N          -0.6160   -0.6490   -1.0270 n         1 DHG     -0.559900
     15 CH1         0.2900   -0.3650   -3.3140 c3        1 DHG      0.181400
     16 CH2        -0.8880   -0.0820   -2.3330 c3        1 DHG      0.064700
     17 CH3        -2.1890   -0.6170   -2.9470 c3        1 DHG     -0.118400
     18 CH4        -3.4160   -0.0060   -2.3110 c3        1 DHG     -0.065400
     19 CH5        -4.6770   -0.4990   -2.9910 c3        1 DHG     -0.085400
     20 CH6        -5.9100    0.1300   -2.3960 c3        1 DHG     -0.087100
     21 O1P         0.7770   -1.6550   -5.7890 o         1 DHG     -0.825000
     22 O2P        -1.5750   -0.5350   -6.1410 o         1 DHG     -0.825000
     23 O3P         0.1150    0.3720   -4.4780 os        1 DHG     -0.573200
     24 P          -0.1270   -0.4900   -5.8770 p5        1 DHG      1.426800
     25 OG1         0.5530    0.6030   -6.9050 os        1 DHG     -0.569200
     26 CG1         1.9470    0.6600   -6.9310 c3        1 DHG      0.145400
     27 CG2         2.4250    0.4580   -8.3700 c3        1 DHG      0.116400
     28 OG2         1.8090    1.3670   -9.2640 oh        1 DHG     -0.632800
     29 H21         0.7900   -1.2270    1.2670 hc        1 DHG      0.054200
     30 H22        -0.9810   -1.4930    1.5500 hc        1 DHG      0.054200
     31 H31        -1.1240    0.7320    2.7150 hc        1 DHG      0.058700
     32 H32         0.6330    0.9990    2.4320 hc        1 DHG      0.058700
     33 H41         1.1660   -1.0980    3.7380 hc        1 DHG      0.034700
     34 H42        -0.5960   -1.3670    4.0220 hc        1 DHG      0.034700
     35 H51        -0.7490    0.8600    5.1870 hc        1 DHG      0.042200
     36 H52         1.0130    1.1290    4.9030 hc        1 DHG      0.042200
     37 H61         1.5420   -0.9620    6.2050 hc        1 DHG      0.037700
     38 H62        -0.2200   -1.2310    6.4890 hc        1 DHG      0.037700
     39 H71        -0.3720    0.9970    7.6540 hc        1 DHG      0.039700
     40 H72         1.3900    1.2660    7.3700 hc        1 DHG      0.039700
     41 H81         1.9190   -0.8250    8.6730 hc        1 DHG      0.038700
     42 H82         0.1570   -1.0940    8.9570 hc        1 DHG      0.038700
     43 H91         0.0050    1.1350   10.1210 hc        1 DHG      0.039200
     44 H92         1.7670    1.4030    9.8380 hc        1 DHG      0.039200
     45 H101        2.2950   -0.6870   11.1400 hc        1 DHG      0.038700
     46 H102        0.5330   -0.9560   11.4240 hc        1 DHG      0.038700
     47 H111        0.3810    1.2720   12.5870 hc        1 DHG      0.038200
     48 H112        2.1430    1.5400   12.3030 hc        1 DHG      0.038200
     49 H121        1.7220    0.6720   14.6030 hc        1 DHG      0.031033
     50 H122        0.9090   -0.7970   13.9220 hc        1 DHG      0.031033
     51 H123        2.6760   -0.5280   13.6370 hc        1 DHG      0.031033
     52 HN         -0.4840   -1.6300   -0.9900 hn        1 DHG      0.298500
     53 HH11        1.2520   -0.0320   -2.8300 h1        1 DHG      0.028700
     54 HH12        0.3550   -1.4650   -3.5430 h1        1 DHG      0.028700
     55 HH2        -0.9740    1.0390   -2.2190 h1        1 DHG      0.095700
     56 HH31       -2.1610   -0.3690   -4.0520 hc        1 DHG      0.075700
     57 HH32       -2.2330   -1.7340   -2.8640 hc        1 DHG      0.075700
     58 HH41       -3.4540   -0.2590   -1.2190 hc        1 DHG      0.031200
     59 HH42       -3.3620    1.1120   -2.3900 hc        1 DHG      0.031200
     60 HH51       -4.6200   -0.2650   -4.0880 hc        1 DHG      0.047700
     61 HH52       -4.7410   -1.6150   -2.8970 hc        1 DHG      0.047700
     62 HH61       -6.8270   -0.2480   -2.9080 hc        1 DHG      0.022367
     63 HH62       -5.9900   -0.1070   -1.3070 hc        1 DHG      0.022367
     64 HH63       -5.8770    1.2410   -2.5080 hc        1 DHG      0.022367
     65 HG11        2.2670    1.6830   -6.5820 h1        1 DHG      0.039700
     66 HG12        2.3910   -0.1300   -6.2660 h1        1 DHG      0.039700
     67 HG21        3.5250    0.6590   -8.4500 h1        1 DHG      0.030200
     68 HG22        2.2080   -0.5910   -8.7080 h1        1 DHG      0.030200
     69 HOG2        0.8840    1.4410   -8.9880 ho        1 DHG      0.426000
@<TRIPOS>BOND
     1    1    2 1   
     2    1   13 2   
     3    1   14 1   
     4    2    3 1   
     5    2   29 1   
     6    2   30 1   
     7    3    4 1   
     8    3   31 1   
     9    3   32 1   
    10    4    5 1   
    11    4   33 1   
    12    4   34 1   
    13    5    6 1   
    14    5   35 1   
    15    5   36 1   
    16    6    7 1   
    17    6   37 1   
    18    6   38 1   
    19    7    8 1   
    20    7   39 1   
    21    7   40 1   
    22    8    9 1   
    23    8   41 1   
    24    8   42 1   
    25    9   10 1   
    26    9   43 1   
    27    9   44 1   
    28   10   11 1   
    29   10   45 1   
    30   10   46 1   
    31   11   12 1   
    32   11   47 1   
    33   11   48 1   
    34   12   49 1   
    35   12   50 1   
    36   12   51 1   
    37   14   16 1   
    38   14   52 1   
    39   15   16 1   
    40   15   23 1   
    41   15   53 1   
    42   15   54 1   
    43   16   17 1   
    44   16   55 1   
    45   17   18 1   
    46   17   56 1   
    47   17   57 1   
    48   18   19 1   
    49   18   58 1   
    50   18   59 1   
    51   19   20 1   
    52   19   60 1   
    53   19   61 1   
    54   20   62 1   
    55   20   63 1   
    56   20   64 1   
    57   21   24 1   
    58   22   24 1   
    59   23   24 1   
    60   24   25 1   
    61   25   26 1   
    62   26   27 1   
    63   26   65 1   
    64   26   66 1   
    65   27   28 1   
    66   27   67 1   
    67   27   68 1   
    68   28   69 1   
@<TRIPOS>SUBSTRUCTURE
     1 DHG         1 TEMP              0 ****  ****    0 ROOT
