@<TRIPOS>MOLECULE
DHH
   27    26     1     0     0
SMALL
bcc


@<TRIPOS>ATOM
      1 NP1        -0.0320   -0.1400    0.0770 n4        1 DHH     -0.837600
      2 C02         1.4510   -0.0040   -0.0680 c3        1 DHH     -0.073500
      3 C03         2.1270   -0.0690    1.3910 c         1 DHH      0.936600
      4 O04         3.3580    0.0830    1.4090 o         1 DHH     -0.754800
      5 O05         1.3180   -0.2870    2.3320 o         1 DHH     -0.754800
      6 C06         1.8690    1.2760   -0.7650 c3        1 DHH     -0.097400
      7 C07         1.4940    1.2990   -2.2300 c3        1 DHH     -0.086400
      8 C08         2.0120    2.5530   -2.9010 c3        1 DHH     -0.080400
      9 C09         1.6210    2.5900   -4.3610 c3        1 DHH     -0.105400
     10 C10         2.2220    3.8150   -5.0450 c3        1 DHH      0.331900
     11 O1          3.6230    3.7790   -5.1720 oh        1 DHH     -0.632300
     12 O2          1.7330    3.8410   -6.3700 oh        1 DHH     -0.632300
     13 HP11       -0.4980    0.7340   -0.1560 hn        1 DHH      0.443133
     14 HP12       -0.3950   -0.8870   -0.5040 hn        1 DHH      0.443133
     15 H02         1.8240   -0.9000   -0.6360 hx        1 DHH      0.089700
     16 H061        2.9900    1.3360   -0.6500 hc        1 DHH      0.087700
     17 H062        1.4440    2.1710   -0.2400 hc        1 DHH      0.087700
     18 H071        0.3780    1.2520   -2.3480 hc        1 DHH      0.029200
     19 H072        1.9190    0.3970   -2.7440 hc        1 DHH      0.029200
     20 H081        3.1310    2.5950   -2.8150 hc        1 DHH      0.056700
     21 H082        1.6070    3.4580   -2.3770 hc        1 DHH      0.056700
     22 H091        1.9760    1.6640   -4.8840 hc        1 DHH      0.058700
     23 H092        0.5070    2.6340   -4.4710 hc        1 DHH      0.058700
     24 H10         1.9960    4.7690   -4.4900 h2        1 DHH      0.072700
     25 HO1         3.8690    2.9380   -5.5770 ho        1 DHH      0.417000
     26 HO2         2.1400    4.5960   -6.8130 ho        1 DHH      0.417000
     27 HP13       -0.1990   -0.3600    1.0910 hn        1 DHH      0.443133
@<TRIPOS>BOND
     1    1    2 1   
     2    1   13 1   
     3    1   14 1   
     4    1   27 1   
     5    2    3 1   
     6    2    6 1   
     7    2   15 1   
     8    3    4 1   
     9    3    5 1   
    10    6    7 1   
    11    6   16 1   
    12    6   17 1   
    13    7    8 1   
    14    7   18 1   
    15    7   19 1   
    16    8    9 1   
    17    8   20 1   
    18    8   21 1   
    19    9   10 1   
    20    9   22 1   
    21    9   23 1   
    22   10   11 1   
    23   10   12 1   
    24   10   24 1   
    25   11   25 1   
    26   12   26 1   
@<TRIPOS>SUBSTRUCTURE
     1 DHH         1 TEMP              0 ****  ****    0 ROOT
