@<TRIPOS>MOLECULE
DHH
   26    25     1     0     0
SMALL
bcc


@<TRIPOS>ATOM
      1 NP1        -2.6470   -1.2660    2.2740 n3        1 DHH     -0.892800
      2 C02        -1.2330   -1.4020    2.1760 c3        1 DHH      0.018500
      3 C03        -0.6420   -1.5520    3.5640 c         1 DHH      0.887600
      4 O04         0.1170   -2.4960    3.8140 o         1 DHH     -0.844800
      5 O05        -0.8540   -0.6770    4.4290 o         1 DHH     -0.844800
      6 C06        -0.6500   -0.1720    1.5080 c3        1 DHH     -0.063400
      7 C07        -0.1990   -0.5320    0.0570 c3        1 DHH     -0.074400
      8 C08         0.4500    0.7020   -0.6060 c3        1 DHH     -0.078400
      9 C09         0.8890    0.3360   -2.0730 c3        1 DHH     -0.102400
     10 C10         1.4600    1.5730   -2.7640 c3        1 DHH      0.325900
     11 O1          2.8600    1.4070   -2.9420 oh        1 DHH     -0.636800
     12 O2          0.8310    1.7380   -4.0450 oh        1 DHH     -0.636800
     13 HP11       -2.9040   -1.3720    3.1470 hn        1 DHH      0.329800
     14 HP12       -3.0390   -1.8840    1.7740 hn        1 DHH      0.329800
     15 H02        -1.0210   -2.1880    1.6470 h1        1 DHH      0.040700
     16 H061       -1.3470    0.5520    1.4730 hc        1 DHH      0.046700
     17 H062        0.1310    0.1460    2.0260 hc        1 DHH      0.046700
     18 H071        0.4560   -1.2690    0.0910 hc        1 DHH      0.037200
     19 H072       -0.9840   -0.8150   -0.4710 hc        1 DHH      0.037200
     20 H081        1.2310    0.9740   -0.0900 hc        1 DHH      0.040700
     21 H082       -0.1900    1.4290   -0.6310 hc        1 DHH      0.040700
     22 H091        0.1110    0.0130   -2.5750 hc        1 DHH      0.056700
     23 H092        1.5770   -0.3710   -2.0440 hc        1 DHH      0.056700
     24 H10         1.2860    2.3900   -2.1950 h2        1 DHH      0.069700
     25 HO1         3.2310    2.1950   -3.1390 ho        1 DHH      0.405500
     26 HO2         1.0800    2.5390   -4.4060 ho        1 DHH      0.405500
@<TRIPOS>BOND
     1    1    2 1   
     2    1   13 1   
     3    1   14 1   
     4    2    3 1   
     5    2    6 1   
     6    2   15 1   
     7    3    4 1   
     8    3    5 1   
     9    6    7 1   
    10    6   16 1   
    11    6   17 1   
    12    7    8 1   
    13    7   18 1   
    14    7   19 1   
    15    8    9 1   
    16    8   20 1   
    17    8   21 1   
    18    9   10 1   
    19    9   22 1   
    20    9   23 1   
    21   10   11 1   
    22   10   12 1   
    23   10   24 1   
    24   11   25 1   
    25   12   26 1   
@<TRIPOS>SUBSTRUCTURE
     1 DHH         1 TEMP              0 ****  ****    0 ROOT
