@<TRIPOS>MOLECULE
DHH
   26    25     1     0     0
SMALL
bcc


@<TRIPOS>ATOM
      1 NP1         2.5150    1.8950    0.1800 n3        1 DHH     -0.891800
      2 C02         2.2950    0.4690    0.3930 c3        1 DHH      0.017500
      3 C03         3.4930   -0.4420   -0.0400 c         1 DHH      0.887600
      4 O04         3.3680   -1.6860    0.1280 o         1 DHH     -0.844300
      5 O05         4.5240    0.1170   -0.5120 o         1 DHH     -0.844300
      6 C06         1.0290   -0.0560   -0.2850 c3        1 DHH     -0.063400
      7 C07        -0.2310    0.5310    0.3130 c3        1 DHH     -0.074400
      8 C08        -1.4690   -0.0670   -0.3230 c3        1 DHH     -0.082400
      9 C09        -2.7280    0.5110    0.2840 c3        1 DHH     -0.103400
     10 C10        -3.9680   -0.1470   -0.3080 c3        1 DHH      0.328900
     11 O1         -4.1110   -1.5180   -0.0170 oh        1 DHH     -0.638800
     12 O2         -5.1060    0.4550    0.2820 oh        1 DHH     -0.638800
     13 HP11        3.4650    2.0910    0.4530 hn        1 DHH      0.330300
     14 HP12        2.4660    2.0790   -0.8070 hn        1 DHH      0.330300
     15 H02         2.1800    0.3300    1.5080 h1        1 DHH      0.040700
     16 H061        1.0620    0.1610   -1.3840 hc        1 DHH      0.046700
     17 H062        1.0290   -1.1730   -0.1620 hc        1 DHH      0.046700
     18 H071       -0.2460    0.3370    1.4180 hc        1 DHH      0.037700
     19 H072       -0.2380    1.6440    0.1740 hc        1 DHH      0.037700
     20 H081       -1.4570    0.1300   -1.4270 hc        1 DHH      0.041200
     21 H082       -1.4670   -1.1810   -0.1870 hc        1 DHH      0.041200
     22 H091       -2.7270    0.3650    1.3950 hc        1 DHH      0.057200
     23 H092       -2.7860    1.6130    0.0920 hc        1 DHH      0.057200
     24 H10        -4.0010   -0.0720   -1.4310 h2        1 DHH      0.063700
     25 HO1        -3.7940   -1.6740    0.8800 ho        1 DHH      0.410500
     26 HO2        -5.8750   -0.0570    0.0050 ho        1 DHH      0.410500
@<TRIPOS>BOND
     1    1    2 1   
     2    1   13 1   
     3    1   14 1   
     4    2    3 1   
     5    2    6 1   
     6    2   15 1   
     7    3    4 1   
     8    3    5 1   
     9    6    7 1   
    10    6   16 1   
    11    6   17 1   
    12    7    8 1   
    13    7   18 1   
    14    7   19 1   
    15    8    9 1   
    16    8   20 1   
    17    8   21 1   
    18    9   10 1   
    19    9   22 1   
    20    9   23 1   
    21   10   11 1   
    22   10   12 1   
    23   10   24 1   
    24   11   25 1   
    25   12   26 1   
@<TRIPOS>SUBSTRUCTURE
     1 DHH         1 TEMP              0 ****  ****    0 ROOT
