@<TRIPOS>MOLECULE
DHH
   27    26     1     0     0
SMALL
bcc


@<TRIPOS>ATOM
      1 NP1        -0.0470   -0.1830    0.0220 nz        1 DHH     -0.837600
      2 C02         1.4350    0.0040   -0.0480 c3        1 DHH     -0.072500
      3 C03         2.0340   -0.0140    1.4460 c         1 DHH      0.936600
      4 O04         3.2540    0.1930    1.5280 o         1 DHH     -0.755300
      5 O05         1.1850   -0.2580    2.3450 o         1 DHH     -0.755300
      6 C06         1.8440    1.2870   -0.7430 c3        1 DHH     -0.097400
      7 C07         1.5240    1.2880   -2.2210 c3        1 DHH     -0.087400
      8 C08         2.0570    2.5380   -2.8880 c3        1 DHH     -0.077400
      9 C09         1.6960    2.5710   -4.3560 c3        1 DHH     -0.105400
     10 C10         2.2810    3.8080   -5.0340 c3        1 DHH      0.330900
     11 O1          3.6420    3.5550   -5.3110 oh        1 DHH     -0.631300
     12 O2          1.6980    4.0790   -6.2870 oh        1 DHH     -0.631300
     13 HP11       -0.3550   -0.9440   -0.5750 hn        1 DHH      0.442800
     14 HP12       -0.2590   -0.4080    1.0260 hn        1 DHH      0.442800
     15 H02         1.8690   -0.8860   -0.5800 hx        1 DHH      0.089700
     16 H061        2.9570    1.3810   -0.5860 hc        1 DHH      0.087200
     17 H062        1.3730    2.1750   -0.2440 hc        1 DHH      0.087200
     18 H071        1.9790    0.3840   -2.7080 hc        1 DHH      0.028700
     19 H072        0.4150    1.2280   -2.3810 hc        1 DHH      0.028700
     20 H081        1.6410    3.4450   -2.3750 hc        1 DHH      0.056700
     21 H082        3.1740    2.5760   -2.7820 hc        1 DHH      0.056700
     22 H091        2.0870    1.6520   -4.8670 hc        1 DHH      0.057700
     23 H092        0.5840    2.5980   -4.4880 hc        1 DHH      0.057700
     24 H10         2.1320    4.7420   -4.4240 h2        1 DHH      0.072700
     25 HO1         4.0110    4.3530   -5.7070 ho        1 DHH      0.415500
     26 HO2         1.8010    3.2960   -6.8410 ho        1 DHH      0.415500
     27 HP13       -0.5310    0.6730   -0.2370 hn        1 DHH      0.442800
@<TRIPOS>BOND
     1    1    2 1   
     2    1   13 1   
     3    1   14 1   
     4    1   27 1   
     5    2    3 1   
     6    2    6 1   
     7    2   15 1   
     8    3    4 1   
     9    3    5 1   
    10    6    7 1   
    11    6   16 1   
    12    6   17 1   
    13    7    8 1   
    14    7   18 1   
    15    7   19 1   
    16    8    9 1   
    17    8   20 1   
    18    8   21 1   
    19    9   10 1   
    20    9   22 1   
    21    9   23 1   
    22   10   11 1   
    23   10   12 1   
    24   10   24 1   
    25   11   25 1   
    26   12   26 1   
@<TRIPOS>SUBSTRUCTURE
     1 DHH         1 TEMP              0 ****  ****    0 ROOT
