@<TRIPOS>MOLECULE
DHH
   27    26     1     0     0
SMALL
bcc


@<TRIPOS>ATOM
      1 NP1        -0.0130   -0.1780    0.0600 n4        1 DHH     -0.837600
      2 C02         1.4670   -0.0040   -0.0660 c3        1 DHH     -0.073500
      3 C03         2.1260   -0.0480    1.4010 c         1 DHH      0.936600
      4 O04         3.3520    0.1350    1.4340 o         1 DHH     -0.754800
      5 O05         1.3100   -0.2840    2.3330 o         1 DHH     -0.754800
      6 C06         1.8610    1.2840   -0.7620 c3        1 DHH     -0.097400
      7 C07         1.5040    1.2940   -2.2320 c3        1 DHH     -0.086400
      8 C08         1.9970    2.5600   -2.9000 c3        1 DHH     -0.080400
      9 C09         1.6260    2.5810   -4.3650 c3        1 DHH     -0.105400
     10 C10         2.2010    3.8210   -5.0450 c3        1 DHH      0.331900
     11 O1          3.6040    3.8270   -5.1490 oh        1 DHH     -0.632300
     12 O2          1.7330    3.8280   -6.3770 oh        1 DHH     -0.632300
     13 HP11       -0.3500   -0.9360   -0.5230 hn        1 DHH      0.443133
     14 HP12       -0.1880   -0.4000    1.0720 hn        1 DHH      0.443133
     15 H02         1.8710   -0.8910   -0.6270 hx        1 DHH      0.089700
     16 H061        1.4050    2.1700   -0.2450 hc        1 DHH      0.087700
     17 H062        2.9780    1.3750   -0.6330 hc        1 DHH      0.087700
     18 H071        1.9610    0.4020   -2.7370 hc        1 DHH      0.029200
     19 H072        0.3930    1.2160   -2.3650 hc        1 DHH      0.029200
     20 H081        1.5590    3.4540   -2.3840 hc        1 DHH      0.056700
     21 H082        3.1130    2.6340   -2.7970 hc        1 DHH      0.056700
     22 H091        0.5130    2.5920   -4.4920 hc        1 DHH      0.058700
     23 H092        2.0150    1.6650   -4.8800 hc        1 DHH      0.058700
     24 H10         1.9380    4.7700   -4.4970 h2        1 DHH      0.071700
     25 HO1         3.8820    2.9920   -5.5460 ho        1 DHH      0.417000
     26 HO2         2.1250    4.5930   -6.8160 ho        1 DHH      0.417000
     27 HP13       -0.4990    0.6820   -0.1810 hn        1 DHH      0.443133
@<TRIPOS>BOND
     1    1    2 1   
     2    1   13 1   
     3    1   14 1   
     4    1   27 1   
     5    2    3 1   
     6    2    6 1   
     7    2   15 1   
     8    3    4 1   
     9    3    5 1   
    10    6    7 1   
    11    6   16 1   
    12    6   17 1   
    13    7    8 1   
    14    7   18 1   
    15    7   19 1   
    16    8    9 1   
    17    8   20 1   
    18    8   21 1   
    19    9   10 1   
    20    9   22 1   
    21    9   23 1   
    22   10   11 1   
    23   10   12 1   
    24   10   24 1   
    25   11   25 1   
    26   12   26 1   
@<TRIPOS>SUBSTRUCTURE
     1 DHH         1 TEMP              0 ****  ****    0 ROOT
