@<TRIPOS>MOLECULE
DHI
   20    16     1     0     0
SMALL
bcc


@<TRIPOS>ATOM
      1 N          -1.5230    0.4790    2.0710 n3        1 DHI     -0.893800
      2 CA         -0.2030    0.6020    1.4860 c3        1 DHI      0.021500
      3 C           0.7950    0.8310    2.5590 c         1 DHI      0.892600
      4 O           0.9670   -0.0020    3.4100 o         1 DHI     -0.824300
      5 CB          0.1320   -0.6660    0.7320 c3        1 DHI     -0.023200
      6 CG          0.1340   -0.3660   -0.7870 ce        1 DHI      0.423400
      7 ND1        -0.7990   -0.7760   -1.6640 n1        1 DHI     -0.948500
      8 CD2         1.1580    0.1500   -1.4880 c1        1 DHI      0.216500
      9 CE1        -0.3530   -0.5150   -2.9000 cg        1 DHI      0.328800
     10 NE2         0.8570    0.0580   -2.7950 ne        1 DHI     -0.401400
     11 OXT         1.4600    1.8850    2.5730 o         1 DHI     -0.824300
     12 H          -2.1660    0.7740    1.4610 hn        1 DHI      0.352800
     13 H2         -1.6820   -0.3830    2.2800 hn        1 DHI      0.352800
     14 HA         -0.1910    1.3230    0.8950 h1        1 DHI      0.039700
     15 HB2         1.0020   -0.9870    1.0050 hc        1 DHI      0.081700
     16 HB3        -0.5150   -1.3200    0.9180 hc        1 DHI      0.081700
     17 HD1        -1.5480   -1.2130   -1.4630 DU        1 DHI      0.281000
     18 HD2         1.9670    0.5220   -1.1180 DU        1 DHI      0.281000
     19 HE1        -0.8330   -0.7100   -3.7390 DU        1 DHI      0.281000
     20 HE2         1.3430    0.3130   -3.4370 DU        1 DHI      0.281000
@<TRIPOS>BOND
     1    1    2 1   
     2    1   12 1   
     3    1   13 1   
     4    2    3 1   
     5    2    5 1   
     6    2   14 1   
     7    3    4 1   
     8    3   11 1   
     9    5    6 1   
    10    5   15 1   
    11    5   16 1   
    12    6    7 1   
    13    6    8 2   
    14    7    9 3   
    15    8   10 2   
    16    9   10 1   
@<TRIPOS>SUBSTRUCTURE
     1 DHI         1 TEMP              0 ****  ****    0 ROOT
