@<TRIPOS>MOLECULE
DHI
   20    20     1     0     0
SMALL
bcc


@<TRIPOS>ATOM
      1 N          19.1450   -6.0160   34.7880 n3        1 DHI     -0.914800
      2 CA         19.6620   -5.0570   35.7490 c3        1 DHI     -0.000500
      3 C          21.1180   -4.5080   35.4660 c         1 DHI      0.906600
      4 O          21.7420   -5.0190   34.5060 o         1 DHI     -0.802800
      5 CB         18.7560   -3.8210   35.8700 c3        1 DHI     -0.039100
      6 CG         17.5120   -4.1770   36.5760 cc        1 DHI      0.005400
      7 ND1        17.2000   -3.7830   37.8920 na        1 DHI     -0.136100
      8 CD2        16.4590   -5.0160   36.1530 cd        1 DHI     -0.142300
      9 CE1        16.0120   -4.3600   38.2650 cc        1 DHI     -0.077600
     10 NE2        15.5480   -5.1080   37.2110 na        1 DHI     -0.128100
     11 OXT        21.5140   -3.6070   36.2500 o         1 DHI     -0.802800
     12 H          19.6530   -6.8750   34.9060 hn        1 DHI      0.352800
     13 H2         19.3640   -5.6830   33.8640 hn        1 DHI      0.352800
     14 HA         19.7160   -5.5610   36.7560 h1        1 DHI      0.040700
     15 HB2        19.3440   -3.0300   36.4180 hc        1 DHI      0.102200
     16 HB3        18.4980   -3.4180   34.8530 hc        1 DHI      0.102200
     17 HD1        17.7830   -3.2180   38.4690 hn        1 DHI      0.355700
     18 HD2        16.3530   -5.5590   35.2080 h4        1 DHI      0.243000
     19 HE1        15.5150   -4.2400   39.2380 h5        1 DHI      0.240000
     20 HE2        14.7110   -5.6410   37.2110 hn        1 DHI      0.341700
@<TRIPOS>BOND
     1    1    2 1   
     2    1   12 1   
     3    1   13 1   
     4    2    3 1   
     5    2    5 1   
     6    2   14 1   
     7    3    4 1   
     8    3   11 1   
     9    5    6 1   
    10    5   15 1   
    11    5   16 1   
    12    6    7 1   
    13    6    8 2   
    14    7    9 2   
    15    7   17 1   
    16    8   10 1   
    17    8   18 1   
    18    9   10 1   
    19    9   19 1   
    20   10   20 1   
@<TRIPOS>SUBSTRUCTURE
     1 DHI         1 TEMP              0 ****  ****    0 ROOT
