@<TRIPOS>MOLECULE
DHJ
   24    23     1     0     0
SMALL
bcc


@<TRIPOS>ATOM
      1 O2          0.9430   -6.8490    0.7660 o         1 DHJ     -0.861300
      2 C3          0.5200   -7.3660   -0.3100 c         1 DHJ      0.909600
      3 O4          0.6820   -8.5890   -0.6000 o         1 DHJ     -0.861300
      4 C1         -0.2080   -6.4830   -1.3380 c3        1 DHJ     -0.177400
      5 C7         -0.9100   -5.3000   -0.7170 c3        1 DHJ     -0.434600
      6 P1         -0.8890   -3.9880   -1.6910 p5        1 DHJ      1.520100
      7 O6          0.1480   -3.8560   -2.7200 o         1 DHJ     -0.899300
      8 O7         -2.3090   -4.0970   -2.4650 oh        1 DHJ     -0.802400
      9 C6         -0.9790   -2.7040   -0.6440 c3        1 DHJ     -0.534600
     10 C5         -1.3270   -1.4740   -1.4150 c         1 DHJ      0.646100
     11 O5         -1.6830   -1.6410   -2.5970 o         1 DHJ     -0.630100
     12 C4         -1.2400   -0.1580   -0.7430 c3        1 DHJ     -0.300400
     13 C2         -2.3690    0.0770    0.2960 c         1 DHJ      0.928600
     14 O1         -2.7950   -0.9000    0.9700 o         1 DHJ     -0.835800
     15 O3         -2.7710    1.2670    0.4260 o         1 DHJ     -0.835800
     16 H2          0.5580   -6.1180   -2.0720 hc        1 DHJ      0.042700
     17 H3         -1.9520   -5.6070   -0.4410 hc        1 DHJ      0.113200
     18 HO7        -2.3820   -3.5500   -3.2410 ho        1 DHJ      0.464000
     19 H61        -0.0260   -2.5420   -0.0800 hc        1 DHJ      0.143200
     20 H62        -1.7720   -2.7850    0.1590 hc        1 DHJ      0.143200
     21 H41        -0.2740   -0.0890   -0.1820 hc        1 DHJ      0.053700
     22 H42        -1.2820    0.6670   -1.4970 hc        1 DHJ      0.053700
     23 H1         -0.9320   -7.1390   -1.8880 hc        1 DHJ      0.042700
     24 H7         -0.3980   -5.1220    0.2760 hc        1 DHJ      0.113200
@<TRIPOS>BOND
     1    1    2 1   
     2    2    3 1   
     3    2    4 1   
     4    4    5 1   
     5    4   16 1   
     6    4   23 1   
     7    5    6 1   
     8    5   17 1   
     9    5   24 1   
    10    6    7 2   
    11    6    8 1   
    12    6    9 1   
    13    8   18 1   
    14    9   10 1   
    15    9   19 1   
    16    9   20 1   
    17   10   11 2   
    18   10   12 1   
    19   12   13 1   
    20   12   21 1   
    21   12   22 1   
    22   13   14 1   
    23   13   15 1   
@<TRIPOS>SUBSTRUCTURE
     1 DHJ         1 TEMP              0 ****  ****    0 ROOT
