@<TRIPOS>MOLECULE
DHJ
   23    22     1     0     0
SMALL
bcc


@<TRIPOS>ATOM
      1 O2          0.7940   -1.2770   -0.0040 o         1 DHJ     -0.896300
      2 C3          1.7530   -0.4630   -0.1820 c         1 DHJ      0.904600
      3 O4          2.6080   -0.2580    0.7410 o         1 DHJ     -0.896300
      4 C1          1.8790    0.3330   -1.4790 c3        1 DHJ     -0.154400
      5 C7          1.5520   -0.4130   -2.7430 c3        1 DHJ     -0.342600
      6 P1          1.5940    0.6880   -4.0240 p5        1 DHJ      1.268400
      7 O6          0.5980    1.7830   -3.8200 o         1 DHJ     -0.903500
      8 O7          2.9930    1.0830   -4.3460 o         1 DHJ     -0.903500
      9 C6          0.9210   -0.3000   -5.3080 c3        1 DHJ     -0.422600
     10 C5          1.7840   -0.6980   -6.4460 c         1 DHJ      0.665100
     11 O5          2.4040   -1.7790   -6.4550 o         1 DHJ     -0.637100
     12 C4          1.8650    0.2350   -7.6250 c3        1 DHJ     -0.277400
     13 C2          1.3500   -0.3300   -8.9580 c         1 DHJ      0.922600
     14 O1          0.1800   -0.8080   -9.0430 o         1 DHJ     -0.878800
     15 O3          2.1040   -0.2290   -9.9770 o         1 DHJ     -0.878800
     16 H2          2.9220    0.7350   -1.5650 hc        1 DHJ      0.036200
     17 H3          2.2860   -1.2420   -2.8890 hc        1 DHJ      0.059200
     18 H61         0.5040   -1.2320   -4.8520 hc        1 DHJ      0.072200
     19 H62         0.0530    0.2840   -5.7080 hc        1 DHJ      0.072200
     20 H41         1.2800    1.1690   -7.4260 hc        1 DHJ      0.049200
     21 H42         2.9420    0.5190   -7.7570 hc        1 DHJ      0.049200
     22 H1          1.1820    1.2110   -1.4090 hc        1 DHJ      0.036200
     23 H7          0.5550   -0.8980   -2.6120 hc        1 DHJ      0.059200
@<TRIPOS>BOND
     1    1    2 1   
     2    2    3 1   
     3    2    4 1   
     4    4    5 1   
     5    4   16 1   
     6    4   22 1   
     7    5    6 1   
     8    5   17 1   
     9    5   23 1   
    10    6    7 1   
    11    6    8 1   
    12    6    9 1   
    13    9   10 1   
    14    9   18 1   
    15    9   19 1   
    16   10   11 2   
    17   10   12 1   
    18   12   13 1   
    19   12   20 1   
    20   12   21 1   
    21   13   14 1   
    22   13   15 1   
@<TRIPOS>SUBSTRUCTURE
     1 DHJ         1 TEMP              0 ****  ****    0 ROOT
