@<TRIPOS>MOLECULE
DHJ
   24    22     1     0     0
SMALL
bcc


@<TRIPOS>ATOM
      1 O2         -2.9300   -2.0670    3.6430 o         1 DHJ     -0.597000
      2 C3         -1.6710   -2.0670    3.6430 c1        1 DHJ      0.331000
      3 O4         -1.0410   -2.0670    4.7330 o         1 DHJ     -0.597000
      4 C1         -0.9140   -2.0690    2.3330 c2        1 DHJ     -0.207000
      5 C7         -0.5860   -0.6450    1.9380 c3        1 DHJ     -0.910000
      6 P1          0.1520   -0.6320    0.2800 p5        1 DHJ      2.837000
      7 O6         -0.7050   -1.4040   -0.6480 o         1 DHJ     -1.164000
      8 O7          1.5900   -1.2880    0.3370 oh        1 DHJ     -0.832000
      9 C6          0.2910    1.0800   -0.3070 c3        1 DHJ     -0.974000
     10 C5          0.5520    1.0830   -1.7970 c2        1 DHJ      0.303000
     11 O5          0.4530    0.0530   -2.4330 o         1 DHJ     -0.388000
     12 C4          0.9370    2.3690   -2.4960 c3        1 DHJ     -0.279000
     13 C2          0.8630    2.1710   -3.9940 c2        1 DHJ      0.348000
     14 O1         -0.2220    2.3630   -4.6020 o         1 DHJ     -0.569500
     15 O3          1.8880    1.8160   -4.6330 o         1 DHJ     -0.569500
     16 H2         -1.4650   -2.4800    1.6400 ha        1 DHJ      0.080500
     17 H3          0.0470   -0.2680    2.5790 hc        1 DHJ      0.145500
     18 HO7         1.5940   -2.0350   -0.1420 ho        1 DHJ      0.261000
     19 H61        -0.5410    1.5560   -0.1220 hc        1 DHJ      0.185000
     20 H62         1.0290    1.5230    0.1530 hc        1 DHJ      0.185000
     21 H41         1.8470    2.6160   -2.2450 hc        1 DHJ      0.092500
     22 H42         0.3220    3.0790   -2.2310 hc        1 DHJ      0.092500
     23 H1         -0.0870   -2.5770    2.4350 ha        1 DHJ      0.080500
     24 H7         -1.4030   -0.1120    1.9350 hc        1 DHJ      0.145500
@<TRIPOS>BOND
     1    1    2 1   
     2    2    3 1   
     3    4    5 1   
     4    4   16 1   
     5    4   23 1   
     6    5    6 1   
     7    5   17 1   
     8    5   24 1   
     9    6    7 1   
    10    6    8 1   
    11    6    9 1   
    12    8   18 1   
    13    9   10 1   
    14    9   19 1   
    15    9   20 1   
    16   10   11 1   
    17   10   12 1   
    18   12   13 1   
    19   12   21 1   
    20   12   22 1   
    21   13   14 1   
    22   13   15 1   
@<TRIPOS>SUBSTRUCTURE
     1 DHJ         1 TEMP              0 ****  ****    0 ROOT
