@<TRIPOS>MOLECULE
DHJ
   24    23     1     0     0
SMALL
bcc


@<TRIPOS>ATOM
      1 O2         -0.3190   -0.0650   -0.7980 o         1 DHJ     -0.861300
      2 C3          0.8810   -0.1040   -0.3940 c         1 DHJ      0.909600
      3 O4          1.1960   -0.1610    0.8320 o         1 DHJ     -0.861300
      4 C1          2.0260   -0.0610   -1.4210 c3        1 DHJ     -0.177400
      5 C7          1.6410   -0.6240   -2.7670 c3        1 DHJ     -0.434600
      6 P1          2.3810    0.1570   -3.9980 p5        1 DHJ      1.520100
      7 O6          2.8630    1.5300   -3.8100 o         1 DHJ     -0.899300
      8 O7          3.6840   -0.7670   -4.2710 oh        1 DHJ     -0.802400
      9 C6          1.3450   -0.0340   -5.2800 c3        1 DHJ     -0.534600
     10 C5          2.0640    0.3190   -6.5390 c         1 DHJ      0.646100
     11 O5          3.2970    0.4740   -6.4520 o         1 DHJ     -0.630100
     12 C4          1.2900    0.4510   -7.7950 c3        1 DHJ     -0.300400
     13 C2          0.8000   -0.9100   -8.3600 c         1 DHJ      0.928600
     14 O1          0.4680   -1.8230   -7.5570 o         1 DHJ     -0.835800
     15 O3          0.7330   -1.0010   -9.6170 o         1 DHJ     -0.835800
     16 H2          2.3310    1.0120   -1.5400 hc        1 DHJ      0.042700
     17 H3          0.5130   -0.5610   -2.8190 hc        1 DHJ      0.113200
     18 HO7         4.3610   -0.3540   -4.7990 ho        1 DHJ      0.464000
     19 H61         0.9600   -1.0850   -5.4430 hc        1 DHJ      0.143200
     20 H62         0.4210    0.5890   -5.1820 hc        1 DHJ      0.143200
     21 H41         0.3730    1.0640   -7.6040 hc        1 DHJ      0.053700
     22 H42         1.9060    0.9550   -8.5800 hc        1 DHJ      0.053700
     23 H1          2.8910   -0.6220   -0.9800 hc        1 DHJ      0.042700
     24 H7          1.8580   -1.7240   -2.7710 hc        1 DHJ      0.113200
@<TRIPOS>BOND
     1    1    2 1   
     2    2    3 1   
     3    2    4 1   
     4    4    5 1   
     5    4   16 1   
     6    4   23 1   
     7    5    6 1   
     8    5   17 1   
     9    5   24 1   
    10    6    7 2   
    11    6    8 1   
    12    6    9 1   
    13    8   18 1   
    14    9   10 1   
    15    9   19 1   
    16    9   20 1   
    17   10   11 2   
    18   10   12 1   
    19   12   13 1   
    20   12   21 1   
    21   12   22 1   
    22   13   14 1   
    23   13   15 1   
@<TRIPOS>SUBSTRUCTURE
     1 DHJ         1 TEMP              0 ****  ****    0 ROOT
