@<TRIPOS>MOLECULE
DHK
   21    21     1     0     0
SMALL
bcc


@<TRIPOS>ATOM
      1 C2         -1.1410   -0.2710   -0.4410 c2        1 DHK     -0.150200
      2 C3         -1.2610    0.1040    0.8430 c2        1 DHK     -0.058100
      3 O3         -2.4740    0.3610    1.4720 oh        1 DHK     -0.548100
      4 C4         -0.1050    0.3370    1.7660 c3        1 DHK      0.171300
      5 O4         -0.3060   -0.2010    3.0690 oh        1 DHK     -0.629800
      6 C5          1.1660   -0.3330    1.2030 c3        1 DHK      0.142100
      7 C1          0.1670   -0.5470   -1.0780 c3        1 DHK     -0.164500
      8 C6          1.3310    0.0000   -0.2750 c3        1 DHK     -0.053400
      9 C           0.1750   -0.0080   -2.5420 c         1 DHK      0.923600
     10 O1          1.2180    0.5610   -2.9610 o         1 DHK     -0.834800
     11 O2         -0.8660   -0.2030   -3.2290 o         1 DHK     -0.834800
     12 O5          2.3110    0.1430    1.8980 oh        1 DHK     -0.606800
     13 H2         -2.0110   -0.3780   -1.1110 ha        1 DHK      0.153000
     14 H3         -3.1650    0.2860    0.8010 ho        1 DHK      0.412000
     15 H4          0.0660    1.4480    1.8720 h1        1 DHK      0.050700
     16 HA         -1.2340   -0.0670    3.2930 ho        1 DHK      0.416000
     17 H5          1.0840   -1.4460    1.3530 h1        1 DHK      0.035700
     18 H1          0.2730   -1.6660   -1.1710 hc        1 DHK      0.048700
     19 H6C1        1.3990    1.1100   -0.4130 hc        1 DHK      0.064700
     20 H6C2        2.2900   -0.4340   -0.6550 hc        1 DHK      0.064700
     21 HB          2.1330    0.0000    2.8350 ho        1 DHK      0.397000
@<TRIPOS>BOND
     1    1    2 2   
     2    1    7 1   
     3    1   13 1   
     4    2    3 1   
     5    2    4 1   
     6    3   14 1   
     7    4    5 1   
     8    4    6 1   
     9    4   15 1   
    10    5   16 1   
    11    6    8 1   
    12    6   12 1   
    13    6   17 1   
    14    7    8 1   
    15    7    9 1   
    16    7   18 1   
    17    8   19 1   
    18    8   20 1   
    19    9   10 1   
    20    9   11 1   
    21   12   21 1   
@<TRIPOS>SUBSTRUCTURE
     1 DHK         1 TEMP              0 ****  ****    0 ROOT
