@<TRIPOS>MOLECULE
DHK
   21    21     1     0     0
SMALL
bcc


@<TRIPOS>ATOM
      1 C2          0.0450    0.0330    0.0250 c2        1 DHK     -0.155200
      2 C3          1.3870    0.0180    0.0730 c2        1 DHK     -0.056100
      3 O3          2.2020   -0.0880   -1.0480 oh        1 DHK     -0.547100
      4 C4          2.2070    0.0860    1.3270 c3        1 DHK      0.183300
      5 O4          3.2580    1.0390    1.2250 oh        1 DHK     -0.604800
      6 C5          1.3410    0.4960    2.5370 c3        1 DHK      0.138100
      7 C1         -0.7940    0.1420    1.2390 c3        1 DHK     -0.160500
      8 C6         -0.0180   -0.1930    2.4950 c3        1 DHK     -0.088400
      9 C          -2.0580   -0.7610    1.0990 c         1 DHK      0.923600
     10 O1         -2.3910   -1.4750    2.0830 o         1 DHK     -0.834800
     11 O2         -2.6860   -0.7010    0.0050 o         1 DHK     -0.834800
     12 O5          2.0250    0.1970    3.7460 oh        1 DHK     -0.603800
     13 H2         -0.5170   -0.0570   -0.9200 ha        1 DHK      0.152000
     14 H3          1.6230   -0.1660   -1.8170 ho        1 DHK      0.411000
     15 H4          2.6680   -0.9280    1.5160 h1        1 DHK      0.032700
     16 HA          3.6440    0.9370    0.3470 ho        1 DHK      0.406000
     17 H5          1.2350    1.6160    2.5530 h1        1 DHK      0.080700
     18 H1         -1.1780    1.1990    1.3040 hc        1 DHK      0.051700
     19 H6C1       -0.6160    0.1110    3.3930 hc        1 DHK      0.058700
     20 H6C2        0.1160   -1.3050    2.5560 hc        1 DHK      0.058700
     21 HB          2.0150   -0.7620    3.8460 ho        1 DHK      0.389000
@<TRIPOS>BOND
     1    1    2 2   
     2    1    7 1   
     3    1   13 1   
     4    2    3 1   
     5    2    4 1   
     6    3   14 1   
     7    4    5 1   
     8    4    6 1   
     9    4   15 1   
    10    5   16 1   
    11    6    8 1   
    12    6   12 1   
    13    6   17 1   
    14    7    8 1   
    15    7    9 1   
    16    7   18 1   
    17    8   19 1   
    18    8   20 1   
    19    9   10 1   
    20    9   11 1   
    21   12   21 1   
@<TRIPOS>SUBSTRUCTURE
     1 DHK         1 TEMP              0 ****  ****    0 ROOT
