@<TRIPOS>MOLECULE
DHK
   21    19     1     0     0
SMALL
bcc


@<TRIPOS>ATOM
      1 C2         -0.9450    0.6270   -1.2520 c1        1 DHK     -0.157000
      2 C3          0.7590    0.6270   -1.2520 c1        1 DHK     -0.077000
      3 O3          1.4660    1.1040   -2.3800 o         1 DHK     -0.299000
      4 C4          1.4030    0.6270    0.0750 c3        1 DHK      0.061000
      5 O4          1.6600    1.9630    0.5040 oh        1 DHK     -0.342000
      6 C5          0.5310   -0.2250    1.2000 c3        1 DHK      0.060000
      7 C1         -1.5800   -0.0620   -0.1340 c2        1 DHK     -0.156000
      8 C6         -0.6910    0.0770    1.2870 c3        1 DHK     -0.164000
      9 C          -1.8820   -1.5380   -0.4740 c2        1 DHK      0.342000
     10 O1         -2.6480   -2.2120    0.2690 o         1 DHK     -0.568000
     11 O2         -1.4230   -2.0480   -1.5320 o         1 DHK     -0.568000
     12 O5          0.6290   -1.6980    0.8520 oh        1 DHK     -0.370000
     13 H2         -1.4330    1.3160   -1.7420 ha        1 DHK      0.128000
     14 H3          1.5050    0.4670   -2.9970 ho        1 DHK      0.204000
     15 H4          2.3110    0.2730    0.0180 h1        1 DHK      0.093000
     16 HA          2.5360    2.1050    0.5210 ho        1 DHK      0.200000
     17 H5          0.9430   -0.0870    2.0740 h1        1 DHK      0.092000
     18 H1         -2.4840    0.2820    0.0020 ha        1 DHK      0.092000
     19 H6C1       -1.1000   -0.5010    1.9590 hc        1 DHK      0.083500
     20 H6C2       -0.7550    1.0000    1.5970 hc        1 DHK      0.083500
     21 HB          1.2000   -2.0950    1.4030 ho        1 DHK      0.262000
@<TRIPOS>BOND
     1    1    2 1   
     2    1   13 1   
     3    2    4 1   
     4    3   14 1   
     5    4    5 1   
     6    4    6 1   
     7    4   15 1   
     8    5   16 1   
     9    6    8 1   
    10    6   12 1   
    11    6   17 1   
    12    7    8 1   
    13    7    9 1   
    14    7   18 1   
    15    8   19 1   
    16    8   20 1   
    17    9   10 1   
    18    9   11 1   
    19   12   21 1   
@<TRIPOS>SUBSTRUCTURE
     1 DHK         1 TEMP              0 ****  ****    0 ROOT
