@<TRIPOS>MOLECULE
DHK
   21    21     1     0     0
SMALL
bcc


@<TRIPOS>ATOM
      1 C2          0.0760   -0.0110    0.0090 c2        1 DHK     -0.155200
      2 C3          1.4160    0.0260    0.0910 c2        1 DHK     -0.055100
      3 O3          2.2630   -0.0660   -1.0070 oh        1 DHK     -0.547100
      4 C4          2.2000    0.1460    1.3650 c3        1 DHK      0.183300
      5 O4          3.2160    1.1370    1.2730 oh        1 DHK     -0.604800
      6 C5          1.2880    0.5420    2.5450 c3        1 DHK      0.138100
      7 C1         -0.7980    0.0850    1.1990 c3        1 DHK     -0.160500
      8 C6         -0.0430   -0.1990    2.4800 c3        1 DHK     -0.088400
      9 C          -2.0230   -0.8680    1.0420 c         1 DHK      0.923600
     10 O1         -2.3530   -1.5790    2.0290 o         1 DHK     -0.834800
     11 O2         -2.6240   -0.8490   -0.0680 o         1 DHK     -0.834800
     12 O5          1.9500    0.2890    3.7760 oh        1 DHK     -0.603800
     13 H2         -0.4570   -0.1370   -0.9490 ha        1 DHK      0.152000
     14 H3          1.7080   -0.1790   -1.7900 ho        1 DHK      0.411000
     15 H4          2.6930   -0.8460    1.5820 h1        1 DHK      0.032700
     16 HA          3.6290    1.0360    0.4060 ho        1 DHK      0.406000
     17 H5          1.1390    1.6570    2.5380 h1        1 DHK      0.080700
     18 H1         -1.2240    1.1270    1.2360 hc        1 DHK      0.051700
     19 H6C1        0.1320   -1.3040    2.5630 hc        1 DHK      0.058700
     20 H6C2       -0.6750    0.0960    3.3570 hc        1 DHK      0.058700
     21 HB          1.9740   -0.6680    3.8920 ho        1 DHK      0.389000
@<TRIPOS>BOND
     1    1    2 2   
     2    1    7 1   
     3    1   13 1   
     4    2    3 1   
     5    2    4 1   
     6    3   14 1   
     7    4    5 1   
     8    4    6 1   
     9    4   15 1   
    10    5   16 1   
    11    6    8 1   
    12    6   12 1   
    13    6   17 1   
    14    7    8 1   
    15    7    9 1   
    16    7   18 1   
    17    8   19 1   
    18    8   20 1   
    19    9   10 1   
    20    9   11 1   
    21   12   21 1   
@<TRIPOS>SUBSTRUCTURE
     1 DHK         1 TEMP              0 ****  ****    0 ROOT
