@<TRIPOS>MOLECULE
DHL
   11    10     1     0     0
SMALL
bcc


@<TRIPOS>ATOM
      1 N          -1.5690    0.0000   -0.6710 n3        1 DHL     -0.934800
      2 CA         -0.1430    0.0000   -0.6710 c3        1 DHL      0.176800
      3 CB          0.3610    0.0000    0.7550 c3        1 DHL      0.009700
      4 SG          2.1340   -0.0000    0.7550 sh        1 DHL     -0.395900
      5 HN1        -1.8730   -0.7450   -1.1010 hn        1 DHL      0.358800
      6 HN2        -1.8730    0.7450   -1.1010 hn        1 DHL      0.358800
      7 HA2         0.1820   -0.7970   -1.1310 h1        1 DHL      0.041700
      8 HA3         0.1820    0.7970   -1.1310 h1        1 DHL      0.041700
      9 HB2         0.0360    0.7970    1.2150 h1        1 DHL      0.067700
     10 HB3         0.0360   -0.7970    1.2150 h1        1 DHL      0.067700
     11 HS          2.5270   -0.0000    1.8660 hs        1 DHL      0.206800
@<TRIPOS>BOND
     1    1    2 1   
     2    1    5 1   
     3    1    6 1   
     4    2    3 1   
     5    2    7 1   
     6    2    8 1   
     7    3    4 1   
     8    3    9 1   
     9    3   10 1   
    10    4   11 1   
@<TRIPOS>SUBSTRUCTURE
     1 DHL         1 TEMP              0 ****  ****    0 ROOT
