@<TRIPOS>MOLECULE
DHM
   31    30     1     0     0
SMALL
bcc


@<TRIPOS>ATOM
      1 C7         -0.1420   -0.1200    0.3200 c2        1 DHM     -0.224000
      2 C6          1.1760   -0.1190    0.1350 c2        1 DHM     -0.161200
      3 C5          2.1720    0.0990    1.2240 c3        1 DHM     -0.038500
      4 C4          3.0760   -1.1240    1.3430 c3        1 DHM     -0.073400
      5 C3          3.8050   -1.1650    2.6690 c3        1 DHM     -0.078400
      6 C2          4.7010   -2.3810    2.7550 c3        1 DHM     -0.064400
      7 C1          5.3300   -2.5620    4.1400 c3        1 DHM      0.147800
      8 C8          6.2250   -3.7990    4.1350 c3        1 DHM     -0.123100
      9 C9          6.1410   -1.3410    4.5570 c3        1 DHM     -0.123100
     10 C10         2.9760    1.3530    0.9390 c3        1 DHM     -0.086100
     11 O1          4.2430   -2.7600    5.0470 oh        1 DHM     -0.597800
     12 H72        -0.6060    0.0410    1.3020 ha        1 DHM      0.110500
     13 H71        -0.8480   -0.2820   -0.5050 ha        1 DHM      0.110500
     14 H61         1.6150   -0.2840   -0.8630 ha        1 DHM      0.118000
     15 H5          1.6330    0.2380    2.2050 hc        1 DHM      0.053700
     16 H42         2.4520   -2.0510    1.2390 hc        1 DHM      0.041200
     17 H41         3.8170   -1.1250    0.5020 hc        1 DHM      0.041200
     18 H32         4.4190   -0.2340    2.7920 hc        1 DHM      0.049200
     19 H31         3.0660   -1.1930    3.5130 hc        1 DHM      0.049200
     20 H22         5.5280   -2.3040    2.0030 hc        1 DHM      0.047200
     21 H21         4.1020   -3.3000    2.5210 hc        1 DHM      0.047200
     22 H83         5.6270   -4.7000    3.8590 hc        1 DHM      0.042367
     23 H82         6.6660   -3.9620    5.1470 hc        1 DHM      0.042367
     24 H81         7.0510   -3.6700    3.3980 hc        1 DHM      0.042367
     25 H93         6.8590   -1.0650    3.7510 hc        1 DHM      0.042367
     26 H92         5.4590   -0.4780    4.7500 hc        1 DHM      0.042367
     27 H91         6.7120   -1.5560    5.4920 hc        1 DHM      0.042367
     28 H103        2.2970    2.2360    0.8560 hc        1 DHM      0.034367
     29 H102        3.5410    1.2500   -0.0190 hc        1 DHM      0.034367
     30 H101        3.7060    1.5420    1.7620 hc        1 DHM      0.034367
     31 H1          4.6310   -2.8790    5.9210 ho        1 DHM      0.397000
@<TRIPOS>BOND
     1    1    2 2   
     2    1   12 1   
     3    1   13 1   
     4    2    3 1   
     5    2   14 1   
     6    3    4 1   
     7    3   10 1   
     8    3   15 1   
     9    4    5 1   
    10    4   16 1   
    11    4   17 1   
    12    5    6 1   
    13    5   18 1   
    14    5   19 1   
    15    6    7 1   
    16    6   20 1   
    17    6   21 1   
    18    7    8 1   
    19    7    9 1   
    20    7   11 1   
    21    8   22 1   
    22    8   23 1   
    23    8   24 1   
    24    9   25 1   
    25    9   26 1   
    26    9   27 1   
    27   10   28 1   
    28   10   29 1   
    29   10   30 1   
    30   11   31 1   
@<TRIPOS>SUBSTRUCTURE
     1 DHM         1 TEMP              0 ****  ****    0 ROOT
