@<TRIPOS>MOLECULE
DHM
   31    28     1     0     0
SMALL
bcc


@<TRIPOS>ATOM
      1 C7         -3.4910    1.8390   -1.9300 c1        1 DHM     -0.190500
      2 C6         -2.1440    1.8390   -1.9300 c1        1 DHM     -0.190500
      3 C5         -1.3870    1.8390   -0.6200 c2        1 DHM     -0.082000
      4 C4         -0.0840    1.0900   -0.7900 c3        1 DHM     -0.152000
      5 C3         -0.0350   -0.0650    0.1850 c3        1 DHM     -0.157000
      6 C2          1.2770   -0.8010    0.0300 c3        1 DHM     -0.143000
      7 C1          1.3260   -1.9570    1.0050 c3        1 DHM      0.076000
      8 C8          1.5570   -3.2460    0.2480 c3        1 DHM     -0.241000
      9 C9          2.4560   -1.7400    1.9880 c3        1 DHM     -0.241000
     10 C10        -1.0990    3.2650   -0.2040 c3        1 DHM     -0.204000
     11 O1          0.1070   -2.0340    1.7020 oh        1 DHM     -0.325000
     12 H72        -3.9800    1.8390   -1.0850 DU        1 DHM      0.111000
     13 H71        -3.9800    1.8390   -2.7750 ha        1 DHM      0.114000
     14 H61        -1.6560    1.8390   -2.7750 ha        1 DHM      0.114000
     15 H5         -1.9260    1.4020    0.0670 ha        1 DHM      0.093000
     16 H42         0.6630    1.6940   -0.6170 hc        1 DHM      0.080500
     17 H41        -0.0220    0.7490   -1.7020 hc        1 DHM      0.080500
     18 H32        -0.7740   -0.6760    0.0030 hc        1 DHM      0.088500
     19 H31        -0.1120    0.2750    1.0970 hc        1 DHM      0.088500
     20 H22         1.3540   -1.1420   -0.8820 hc        1 DHM      0.086500
     21 H21         2.0170   -0.1900    0.2120 hc        1 DHM      0.086500
     22 H83         0.8000   -3.4160   -0.3440 hc        1 DHM      0.081667
     23 H82         1.6460   -3.9840    0.8810 hc        1 DHM      0.081667
     24 H81         2.3740   -3.1710   -0.2810 hc        1 DHM      0.081667
     25 H93         2.5160   -2.5060    2.5890 hc        1 DHM      0.081667
     26 H92         3.2960   -1.6420    1.5010 hc        1 DHM      0.081667
     27 H91         2.2850   -0.9310    2.5070 hc        1 DHM      0.081667
     28 H103       -0.4120    3.2690    0.4890 hc        1 DHM      0.073667
     29 H102       -1.9150    3.6730    0.1450 hc        1 DHM      0.073667
     30 H101       -0.7860    3.7720   -0.9770 hc        1 DHM      0.073667
     31 H1          0.1290   -2.7220    2.2620 ho        1 DHM      0.196000
@<TRIPOS>BOND
     1    1    2 1   
     2    1   13 1   
     3    2   14 1   
     4    3    4 1   
     5    3   10 1   
     6    3   15 1   
     7    4    5 1   
     8    4   16 1   
     9    4   17 1   
    10    5    6 1   
    11    5   18 1   
    12    5   19 1   
    13    6    7 1   
    14    6   20 1   
    15    6   21 1   
    16    7    8 1   
    17    7    9 1   
    18    7   11 1   
    19    8   22 1   
    20    8   23 1   
    21    8   24 1   
    22    9   25 1   
    23    9   26 1   
    24    9   27 1   
    25   10   28 1   
    26   10   29 1   
    27   10   30 1   
    28   11   31 1   
@<TRIPOS>SUBSTRUCTURE
     1 DHM         1 TEMP              0 ****  ****    0 ROOT
