@<TRIPOS>MOLECULE
DHM
   31    30     1     0     0
SMALL
bcc


@<TRIPOS>ATOM
      1 C7         -0.1380   -0.1190    0.3130 c2        1 DHM     -0.224000
      2 C6          1.1800   -0.1160    0.1310 c2        1 DHM     -0.161200
      3 C5          2.1740    0.1000    1.2240 c3        1 DHM     -0.038500
      4 C4          3.0780   -1.1220    1.3420 c3        1 DHM     -0.073400
      5 C3          3.8050   -1.1650    2.6700 c3        1 DHM     -0.078400
      6 C2          4.7020   -2.3810    2.7540 c3        1 DHM     -0.064400
      7 C1          5.3280   -2.5650    4.1400 c3        1 DHM      0.147800
      8 C8          6.2230   -3.8010    4.1350 c3        1 DHM     -0.123100
      9 C9          6.1360   -1.3440    4.5620 c3        1 DHM     -0.123100
     10 C10         2.9770    1.3570    0.9440 c3        1 DHM     -0.086100
     11 O1          4.2390   -2.7650    5.0440 oh        1 DHM     -0.597800
     12 H72        -0.6050    0.0380    1.2940 ha        1 DHM      0.110500
     13 H71        -0.8420   -0.2800   -0.5140 ha        1 DHM      0.110500
     14 H61         1.6230   -0.2770   -0.8660 ha        1 DHM      0.118000
     15 H5          1.6310    0.2360    2.2030 hc        1 DHM      0.053700
     16 H42         2.4560   -2.0500    1.2330 hc        1 DHM      0.041200
     17 H41         3.8220   -1.1190    0.5020 hc        1 DHM      0.041200
     18 H32         4.4170   -0.2340    2.7960 hc        1 DHM      0.049200
     19 H31         3.0630   -1.1960    3.5120 hc        1 DHM      0.049200
     20 H22         5.5300   -2.3000    2.0040 hc        1 DHM      0.047200
     21 H21         4.1050   -3.3000    2.5160 hc        1 DHM      0.047200
     22 H83         5.6270   -4.7020    3.8550 hc        1 DHM      0.042367
     23 H82         7.0520   -3.6700    3.4000 hc        1 DHM      0.042367
     24 H81         6.6620   -3.9660    5.1470 hc        1 DHM      0.042367
     25 H93         6.8570   -1.0650    3.7590 hc        1 DHM      0.042367
     26 H92         6.7060   -1.5610    5.4980 hc        1 DHM      0.042367
     27 H91         5.4530   -0.4820    4.7550 hc        1 DHM      0.042367
     28 H103        3.7040    1.5440    1.7690 hc        1 DHM      0.034367
     29 H102        3.5430    1.2570   -0.0130 hc        1 DHM      0.034367
     30 H101        2.2970    2.2390    0.8620 hc        1 DHM      0.034367
     31 H1          4.6240   -2.8860    5.9190 ho        1 DHM      0.397000
@<TRIPOS>BOND
     1    1    2 2   
     2    1   12 1   
     3    1   13 1   
     4    2    3 1   
     5    2   14 1   
     6    3    4 1   
     7    3   10 1   
     8    3   15 1   
     9    4    5 1   
    10    4   16 1   
    11    4   17 1   
    12    5    6 1   
    13    5   18 1   
    14    5   19 1   
    15    6    7 1   
    16    6   20 1   
    17    6   21 1   
    18    7    8 1   
    19    7    9 1   
    20    7   11 1   
    21    8   22 1   
    22    8   23 1   
    23    8   24 1   
    24    9   25 1   
    25    9   26 1   
    26    9   27 1   
    27   10   28 1   
    28   10   29 1   
    29   10   30 1   
    30   11   31 1   
@<TRIPOS>SUBSTRUCTURE
     1 DHM         1 TEMP              0 ****  ****    0 ROOT
