@<TRIPOS>MOLECULE
DHM
   31    30     1     0     0
SMALL
bcc


@<TRIPOS>ATOM
      1 C7         -1.0940    0.6890   -4.3660 c2        1 DHM     -0.223000
      2 C6         -0.4690   -0.2140   -3.6150 c2        1 DHM     -0.162200
      3 C5          0.3290    0.1200   -2.3980 c3        1 DHM     -0.038500
      4 C4         -0.2690   -0.5860   -1.1860 c3        1 DHM     -0.073400
      5 C3          0.1950    0.0320    0.1160 c3        1 DHM     -0.080400
      6 C2         -0.3990   -0.6940    1.3040 c3        1 DHM     -0.104400
      7 C1         -0.1400    0.0310    2.6300 c3        1 DHM      0.147800
      8 C8         -0.8400   -0.7220    3.7580 c3        1 DHM     -0.103600
      9 C9          1.3510    0.1490    2.9220 c3        1 DHM     -0.103600
     10 C10         1.7770   -0.2790   -2.6110 c3        1 DHM     -0.087100
     11 O1         -0.6280    1.3720    2.5720 oh        1 DHM     -0.596800
     12 H72        -1.0730    1.7650   -4.1460 ha        1 DHM      0.111000
     13 H71        -1.6710    0.4110   -5.2570 ha        1 DHM      0.111000
     14 H61        -0.5060   -1.2880   -3.8590 ha        1 DHM      0.119000
     15 H5          0.2900    1.2320   -2.2170 hc        1 DHM      0.053700
     16 H42        -1.3880   -0.5290   -1.2430 hc        1 DHM      0.040700
     17 H41         0.0100   -1.6720   -1.2100 hc        1 DHM      0.040700
     18 H32         1.3150   -0.0040    0.1760 hc        1 DHM      0.050200
     19 H31        -0.1040    1.1130    0.1570 hc        1 DHM      0.050200
     20 H22        -1.5080   -0.7950    1.1620 hc        1 DHM      0.042700
     21 H21         0.0280   -1.7280    1.3720 hc        1 DHM      0.042700
     22 H83        -0.7250   -0.1600    4.7150 hc        1 DHM      0.043200
     23 H82        -1.9280   -0.8300    3.5380 hc        1 DHM      0.043200
     24 H81        -0.3930   -1.7360    3.8740 hc        1 DHM      0.043200
     25 H93         1.8260   -0.8570    2.8580 hc        1 DHM      0.043200
     26 H92         1.8320    0.8360    2.1850 hc        1 DHM      0.043200
     27 H91         1.5050    0.5670    3.9460 hc        1 DHM      0.043200
     28 H103        1.8620   -1.3800   -2.7810 hc        1 DHM      0.035367
     29 H102        2.1970    0.2500   -3.5000 hc        1 DHM      0.035367
     30 H101        2.3890   -0.0110   -1.7160 hc        1 DHM      0.035367
     31 H1         -1.5670    1.3170    2.3620 ho        1 DHM      0.397000
@<TRIPOS>BOND
     1    1    2 2   
     2    1   12 1   
     3    1   13 1   
     4    2    3 1   
     5    2   14 1   
     6    3    4 1   
     7    3   10 1   
     8    3   15 1   
     9    4    5 1   
    10    4   16 1   
    11    4   17 1   
    12    5    6 1   
    13    5   18 1   
    14    5   19 1   
    15    6    7 1   
    16    6   20 1   
    17    6   21 1   
    18    7    8 1   
    19    7    9 1   
    20    7   11 1   
    21    8   22 1   
    22    8   23 1   
    23    8   24 1   
    24    9   25 1   
    25    9   26 1   
    26    9   27 1   
    27   10   28 1   
    28   10   29 1   
    29   10   30 1   
    30   11   31 1   
@<TRIPOS>SUBSTRUCTURE
     1 DHM         1 TEMP              0 ****  ****    0 ROOT
