@<TRIPOS>MOLECULE
DHN
   19    18     1     0     0
SMALL
bcc


@<TRIPOS>ATOM
      1 N          -1.9580   -0.6790   -1.3280 n3        1 DHN     -0.890800
      2 CA         -0.5500   -0.4860   -1.2650 c3        1 DHN      0.020500
      3 CB         -0.1080   -0.4730    0.1800 c3        1 DHN     -0.065400
      4 CG          0.4220    0.8990    0.5330 c3        1 DHN     -0.076400
      5 CD          0.8340    0.9220    1.9890 c3        1 DHN      0.126400
      6 OG          1.3290    2.2010    2.3180 oh        1 DHN     -0.610800
      7 C           0.1460   -1.6120   -1.9950 c         1 DHN      0.886600
      8 O          -0.0700   -2.8070   -1.6620 o         1 DHN     -0.845300
      9 OXT         0.9420   -1.3550   -2.9360 o         1 DHN     -0.845300
     10 HN1        -2.1720   -1.1190   -2.1020 hn        1 DHN      0.329800
     11 HN2        -2.3790    0.1350   -1.3130 hn        1 DHN      0.329800
     12 HA         -0.3190    0.3660   -1.6840 h1        1 DHN      0.041700
     13 HB1        -0.8690   -0.6870    0.7560 hc        1 DHN      0.045700
     14 HB2         0.5970   -1.1380    0.3110 hc        1 DHN      0.045700
     15 HG1        -0.2760    1.5670    0.3820 hc        1 DHN      0.050200
     16 HG2         1.1970    1.1040   -0.0280 hc        1 DHN      0.050200
     17 HD1         0.0580    0.7170    2.5510 h1        1 DHN      0.013200
     18 HD2         1.5330    0.2520    2.1410 h1        1 DHN      0.013200
     19 HOG         1.6420    2.1930    3.1500 ho        1 DHN      0.380000
@<TRIPOS>BOND
     1    1    2 1   
     2    1   10 1   
     3    1   11 1   
     4    2    3 1   
     5    2    7 1   
     6    2   12 1   
     7    3    4 1   
     8    3   13 1   
     9    3   14 1   
    10    4    5 1   
    11    4   15 1   
    12    4   16 1   
    13    5    6 1   
    14    5   17 1   
    15    5   18 1   
    16    6   19 1   
    17    7    8 1   
    18    7    9 1   
@<TRIPOS>SUBSTRUCTURE
     1 DHN         1 TEMP              0 ****  ****    0 ROOT
