@<TRIPOS>MOLECULE
DHN
   19    18     1     0     0
SMALL
bcc


@<TRIPOS>ATOM
      1 N           1.8890    0.2890    0.7150 n3        1 DHN     -0.890800
      2 CA          0.4350    0.3940    0.7330 c3        1 DHN      0.020500
      3 CB         -0.2390   -0.3080   -0.4460 c3        1 DHN     -0.065400
      4 CG          0.1020    0.3300   -1.7750 c3        1 DHN     -0.076400
      5 CD         -0.6930   -0.3300   -2.8880 c3        1 DHN      0.126400
      6 OG         -0.3230    0.2880   -4.1150 oh        1 DHN     -0.610800
      7 C          -0.2350   -0.1220    2.0510 c         1 DHN      0.886600
      8 O           0.5190   -0.5340    2.9790 o         1 DHN     -0.845300
      9 OXT        -1.4940   -0.0800    2.1210 o         1 DHN     -0.845300
     10 HN1         2.1360   -0.6790    0.6030 hn        1 DHN      0.329800
     11 HN2         2.2160    0.5570    1.6290 hn        1 DHN      0.329800
     12 HA          0.1970    1.4960    0.6690 h1        1 DHN      0.041700
     13 HB1         0.0490   -1.3910   -0.4630 hc        1 DHN      0.045700
     14 HB2        -1.3470   -0.2580   -0.2660 hc        1 DHN      0.045700
     15 HG1        -0.1350    1.4250   -1.7500 hc        1 DHN      0.050200
     16 HG2         1.1960    0.2330   -1.9900 hc        1 DHN      0.050200
     17 HD1        -0.4650   -1.4290   -2.9390 h1        1 DHN      0.013200
     18 HD2        -1.7960   -0.2000   -2.7170 h1        1 DHN      0.013200
     19 HOG        -0.8620   -0.1260   -4.7980 ho        1 DHN      0.380000
@<TRIPOS>BOND
     1    1    2 1   
     2    1   10 1   
     3    1   11 1   
     4    2    3 1   
     5    2    7 1   
     6    2   12 1   
     7    3    4 1   
     8    3   13 1   
     9    3   14 1   
    10    4    5 1   
    11    4   15 1   
    12    4   16 1   
    13    5    6 1   
    14    5   17 1   
    15    5   18 1   
    16    6   19 1   
    17    7    8 1   
    18    7    9 1   
@<TRIPOS>SUBSTRUCTURE
     1 DHN         1 TEMP              0 ****  ****    0 ROOT
