@<TRIPOS>MOLECULE
DHO
   67    70     1     0     0
SMALL
bcc


@<TRIPOS>ATOM
      1 C1          1.3620    0.9970   -4.3520 c3        1 DHO     -0.068400
      2 C2          1.7760   -0.4000   -4.7500 c3        1 DHO     -0.112400
      3 C3          0.6820   -1.0490   -5.5890 c3        1 DHO      0.142100
      4 O3          0.9930   -2.4020   -5.9040 oh        1 DHO     -0.601800
      5 C4         -0.6320   -1.0690   -4.8190 c3        1 DHO     -0.074400
      6 C5         -1.0440    0.3310   -4.3900 c3        1 DHO     -0.049700
      7 C6         -2.3680    0.2720   -3.6410 c3        1 DHO     -0.071400
      8 C7         -2.2290   -0.3360   -2.2640 c3        1 DHO     -0.074400
      9 C8         -1.1790    0.3920   -1.4410 c3        1 DHO     -0.045700
     10 C9          0.1700    0.4110   -2.1800 c3        1 DHO     -0.043700
     11 C10         0.0430    1.0580   -3.5700 c3        1 DHO     -0.035000
     12 C11         1.2620    1.0480   -1.3280 c3        1 DHO     -0.103400
     13 C12         1.3810    0.4580    0.0840 c3        1 DHO      0.151100
     14 O12         1.8440   -0.8880    0.0260 oh        1 DHO     -0.590800
     15 C13         0.0250    0.4750    0.7960 c3        1 DHO     -0.038000
     16 C14        -0.9700   -0.2940   -0.1060 c3        1 DHO     -0.069700
     17 C15        -2.1730   -0.5360    0.7930 c3        1 DHO     -0.072400
     18 C16        -1.5790   -0.6950    2.1950 c3        1 DHO     -0.079400
     19 C17        -0.0820   -0.3330    2.1140 c3        1 DHO     -0.048700
     20 C18        -0.3900    1.9170    1.0410 c3        1 DHO     -0.086100
     21 C19        -0.3260    2.5360   -3.4630 c3        1 DHO     -0.088100
     22 C20         0.4130    0.3440    3.3870 c3        1 DHO     -0.060700
     23 C21         1.8830    0.7050    3.2850 c3        1 DHO     -0.087100
     24 C22         0.1900   -0.5690    4.5930 c3        1 DHO     -0.067400
     25 C23         0.2780    0.1670    5.9090 c3        1 DHO     -0.195400
     26 O25        -1.3820   -1.2850    6.8960 o         1 DHO     -0.852300
     27 C24        -0.2810   -0.6850    7.0640 c         1 DHO      0.907600
     28 O26         0.3840   -0.7220    8.1400 o         1 DHO     -0.852300
     29 H11         2.1790    1.4740   -3.7510 hc        1 DHO      0.038200
     30 H12A        1.2420    1.6140   -5.2850 hc        1 DHO      0.038200
     31 H21         1.9710   -1.0270   -3.8420 hc        1 DHO      0.046200
     32 H22         2.7280   -0.3570   -5.3410 hc        1 DHO      0.046200
     33 H3          0.5560   -0.4780   -6.5530 h1        1 DHO      0.025700
     34 HO3         1.9070   -2.4130   -6.2100 ho        1 DHO      0.395000
     35 H41        -0.5210   -1.7400   -3.9280 hc        1 DHO      0.057200
     36 H42        -1.4300   -1.5110   -5.4710 hc        1 DHO      0.057200
     37 H5         -1.2070    0.9360   -5.3290 hc        1 DHO      0.035700
     38 H61        -3.1030   -0.3270   -4.2400 hc        1 DHO      0.035700
     39 H62        -2.7800    1.3120   -3.5500 hc        1 DHO      0.035700
     40 HC7        -1.9560   -1.4210   -2.3490 hc        1 DHO      0.044200
     41 H7         -3.2130   -0.2830   -1.7280 hc        1 DHO      0.044200
     42 H8         -1.5350    1.4440   -1.2710 hc        1 DHO      0.049700
     43 H9          0.4720   -0.6670   -2.3370 hc        1 DHO      0.058700
     44 H111        2.2510    0.9040   -1.8380 hc        1 DHO      0.036200
     45 H112        1.0830    2.1490   -1.2350 hc        1 DHO      0.036200
     46 H12         2.1250    1.0740    0.6660 h1        1 DHO      0.036700
     47 HO12        2.7460   -0.8480   -0.3120 ho        1 DHO      0.388000
     48 H14        -0.5040   -1.3030   -0.3170 hc        1 DHO      0.065700
     49 H151       -2.7340   -1.4490    0.4790 hc        1 DHO      0.032200
     50 H152       -2.8820    0.3290    0.7540 hc        1 DHO      0.032200
     51 H161       -1.6980   -1.7450    2.5580 hc        1 DHO      0.056200
     52 H162       -2.1050   -0.0250    2.9190 hc        1 DHO      0.056200
     53 H17         0.5140   -1.2780    1.9740 hc        1 DHO      0.064700
     54 H181       -0.4850    2.4930    0.0900 hc        1 DHO      0.035367
     55 H182       -1.3760    1.9400    1.5670 hc        1 DHO      0.035367
     56 H183        0.3660    2.4330    1.6820 hc        1 DHO      0.035367
     57 H191       -0.5380    2.9550   -4.4770 hc        1 DHO      0.033700
     58 H192       -1.2300    2.6840   -2.8280 hc        1 DHO      0.033700
     59 H193        0.5180    3.1150   -3.0170 hc        1 DHO      0.033700
     60 H20        -0.1800    1.2870    3.5510 hc        1 DHO      0.040700
     61 H211        2.4580   -0.1220    2.8030 hc        1 DHO      0.025033
     62 H212        2.0290    1.6350    2.6840 hc        1 DHO      0.025033
     63 H213        2.3060    0.8850    4.3040 hc        1 DHO      0.025033
     64 H221       -0.8270   -1.0440    4.5380 hc        1 DHO      0.048700
     65 H222        0.9450   -1.3970    4.5720 hc        1 DHO      0.048700
     66 H231        1.3360    0.4460    6.1410 hc        1 DHO      0.018700
     67 H232       -0.3240    1.1100    5.8640 hc        1 DHO      0.018700
@<TRIPOS>BOND
     1    1    2 1   
     2    1   11 1   
     3    1   29 1   
     4    1   30 1   
     5    2    3 1   
     6    2   31 1   
     7    2   32 1   
     8    3    4 1   
     9    3    5 1   
    10    3   33 1   
    11    4   34 1   
    12    5    6 1   
    13    5   35 1   
    14    5   36 1   
    15    6    7 1   
    16    6   11 1   
    17    6   37 1   
    18    7    8 1   
    19    7   38 1   
    20    7   39 1   
    21    8    9 1   
    22    8   40 1   
    23    8   41 1   
    24    9   10 1   
    25    9   16 1   
    26    9   42 1   
    27   10   11 1   
    28   10   12 1   
    29   10   43 1   
    30   11   21 1   
    31   12   13 1   
    32   12   44 1   
    33   12   45 1   
    34   13   14 1   
    35   13   15 1   
    36   13   46 1   
    37   14   47 1   
    38   15   16 1   
    39   15   19 1   
    40   15   20 1   
    41   16   17 1   
    42   16   48 1   
    43   17   18 1   
    44   17   49 1   
    45   17   50 1   
    46   18   19 1   
    47   18   51 1   
    48   18   52 1   
    49   19   22 1   
    50   19   53 1   
    51   20   54 1   
    52   20   55 1   
    53   20   56 1   
    54   21   57 1   
    55   21   58 1   
    56   21   59 1   
    57   22   23 1   
    58   22   24 1   
    59   22   60 1   
    60   23   61 1   
    61   23   62 1   
    62   23   63 1   
    63   24   25 1   
    64   24   64 1   
    65   24   65 1   
    66   25   27 1   
    67   25   66 1   
    68   25   67 1   
    69   26   27 1   
    70   27   28 1   
@<TRIPOS>SUBSTRUCTURE
     1 DHO         1 TEMP              0 ****  ****    0 ROOT
