@<TRIPOS>MOLECULE
DHO
   67    70     1     0     0
SMALL
bcc


@<TRIPOS>ATOM
      1 C1          0.1520   -0.0580    0.1730 c3        1 DHO     -0.068400
      2 C2          1.6610   -0.0980    0.1500 c3        1 DHO     -0.112400
      3 C3          2.2070   -0.0110    1.5710 c3        1 DHO      0.142100
      4 O3          3.6290    0.0510    1.5850 oh        1 DHO     -0.601800
      5 C4          1.7060    1.2560    2.2520 c3        1 DHO     -0.074400
      6 C5          0.1860    1.3190    2.2560 c3        1 DHO     -0.049700
      7 C6         -0.2760    2.5870    2.9600 c3        1 DHO     -0.071400
      8 C7         -0.0170    3.8320    2.1420 c3        1 DHO     -0.074400
      9 C8         -0.6430    3.7270    0.7620 c3        1 DHO     -0.045700
     10 C9         -0.1400    2.4680    0.0340 c3        1 DHO     -0.043700
     11 C10        -0.4290    1.1940    0.8460 c3        1 DHO     -0.035000
     12 C11        -0.6780    2.3970   -1.3900 c3        1 DHO     -0.103400
     13 C12        -0.4500    3.6740   -2.2120 c3        1 DHO      0.151100
     14 O12         0.9390    3.8640   -2.4640 oh        1 DHO     -0.590800
     15 C13        -0.9820    4.9020   -1.4670 c3        1 DHO     -0.038000
     16 C14        -0.2840    4.9300   -0.0860 c3        1 DHO     -0.069700
     17 C15        -0.5820    6.3230    0.4500 c3        1 DHO     -0.072400
     18 C16        -0.6360    7.2100   -0.7960 c3        1 DHO     -0.079400
     19 C17        -0.5820    6.2880   -2.0320 c3        1 DHO     -0.048700
     20 C18        -2.4960    4.8040   -1.3640 c3        1 DHO     -0.086100
     21 C19        -1.9310    0.9500    0.9830 c3        1 DHO     -0.088100
     22 C20        -1.4110    6.8330   -3.1900 c3        1 DHO     -0.060700
     23 C21        -1.3580    5.9080   -4.3910 c3        1 DHO     -0.087100
     24 C22        -0.9150    8.2230   -3.5880 c3        1 DHO     -0.067400
     25 C23        -1.9110    8.9810   -4.4330 c3        1 DHO     -0.195400
     26 O25        -1.2120   11.0840   -3.4710 o         1 DHO     -0.852300
     27 C24        -1.5420   10.4730   -4.5290 c         1 DHO      0.907600
     28 O26        -1.6110   11.0220   -5.6660 o         1 DHO     -0.852300
     29 H11        -0.2220   -0.9580    0.7330 hc        1 DHO      0.038200
     30 H12A       -0.2420   -0.1400   -0.8730 hc        1 DHO      0.038200
     31 H21         2.0060   -1.0510   -0.3280 hc        1 DHO      0.046200
     32 H22         2.0690    0.7510   -0.4580 hc        1 DHO      0.046200
     33 H3          1.8820   -0.9190    2.1560 h1        1 DHO      0.025700
     34 HO3         3.9430   -0.6380    0.9890 ho        1 DHO      0.395000
     35 H41         2.0840    1.2760    3.3070 hc        1 DHO      0.057200
     36 H42         2.1390    2.1470    1.7260 hc        1 DHO      0.057200
     37 H5         -0.1850    0.4370    2.8560 hc        1 DHO      0.035700
     38 H61        -1.3740    2.5030    3.1750 hc        1 DHO      0.035700
     39 H62         0.2520    2.6720    3.9460 hc        1 DHO      0.035700
     40 HC7        -0.4450    4.7250    2.6700 hc        1 DHO      0.044200
     41 H7          1.0870    4.0030    2.0440 hc        1 DHO      0.044200
     42 H8         -1.7590    3.6740    0.8860 hc        1 DHO      0.049700
     43 H9          0.9820    2.5660   -0.0500 hc        1 DHO      0.058700
     44 H111       -1.7760    2.1800   -1.3760 hc        1 DHO      0.036200
     45 H112       -0.1700    1.5540   -1.9300 hc        1 DHO      0.036200
     46 H12        -0.9880    3.5640   -3.1980 h1        1 DHO      0.036700
     47 HO12        1.2110    3.1390   -3.0380 ho        1 DHO      0.388000
     48 H14         0.8290    4.8810   -0.2830 hc        1 DHO      0.065700
     49 H151       -1.5570    6.3410    0.9970 hc        1 DHO      0.032200
     50 H152        0.2120    6.6600    1.1600 hc        1 DHO      0.032200
     51 H161       -1.5750    7.8170   -0.8010 hc        1 DHO      0.056200
     52 H162        0.2260    7.9210   -0.8140 hc        1 DHO      0.056200
     53 H17         0.4850    6.2100   -2.3810 hc        1 DHO      0.064700
     54 H181       -2.8190    3.8900   -0.8120 hc        1 DHO      0.035367
     55 H182       -2.9510    4.7700   -2.3840 hc        1 DHO      0.035367
     56 H183       -2.8940    5.7000   -0.8270 hc        1 DHO      0.035367
     57 H191       -2.4530    1.8510    1.3820 hc        1 DHO      0.033700
     58 H192       -2.3740    0.6960   -0.0100 hc        1 DHO      0.033700
     59 H193       -2.1220    0.0970    1.6790 hc        1 DHO      0.033700
     60 H20        -2.4820    6.9300   -2.8540 hc        1 DHO      0.040700
     61 H211       -2.0410    5.0340   -4.2570 hc        1 DHO      0.025033
     62 H212       -1.6760    6.4560   -5.3110 hc        1 DHO      0.025033
     63 H213       -0.3200    5.5250   -4.5460 hc        1 DHO      0.025033
     64 H221        0.0530    8.1220   -4.1440 hc        1 DHO      0.048700
     65 H222       -0.7090    8.8400   -2.6710 hc        1 DHO      0.048700
     66 H231       -2.9320    8.9150   -3.9770 hc        1 DHO      0.018700
     67 H232       -1.9680    8.5530   -5.4640 hc        1 DHO      0.018700
@<TRIPOS>BOND
     1    1    2 1   
     2    1   11 1   
     3    1   29 1   
     4    1   30 1   
     5    2    3 1   
     6    2   31 1   
     7    2   32 1   
     8    3    4 1   
     9    3    5 1   
    10    3   33 1   
    11    4   34 1   
    12    5    6 1   
    13    5   35 1   
    14    5   36 1   
    15    6    7 1   
    16    6   11 1   
    17    6   37 1   
    18    7    8 1   
    19    7   38 1   
    20    7   39 1   
    21    8    9 1   
    22    8   40 1   
    23    8   41 1   
    24    9   10 1   
    25    9   16 1   
    26    9   42 1   
    27   10   11 1   
    28   10   12 1   
    29   10   43 1   
    30   11   21 1   
    31   12   13 1   
    32   12   44 1   
    33   12   45 1   
    34   13   14 1   
    35   13   15 1   
    36   13   46 1   
    37   14   47 1   
    38   15   16 1   
    39   15   19 1   
    40   15   20 1   
    41   16   17 1   
    42   16   48 1   
    43   17   18 1   
    44   17   49 1   
    45   17   50 1   
    46   18   19 1   
    47   18   51 1   
    48   18   52 1   
    49   19   22 1   
    50   19   53 1   
    51   20   54 1   
    52   20   55 1   
    53   20   56 1   
    54   21   57 1   
    55   21   58 1   
    56   21   59 1   
    57   22   23 1   
    58   22   24 1   
    59   22   60 1   
    60   23   61 1   
    61   23   62 1   
    62   23   63 1   
    63   24   25 1   
    64   24   64 1   
    65   24   65 1   
    66   25   27 1   
    67   25   66 1   
    68   25   67 1   
    69   26   27 1   
    70   27   28 1   
@<TRIPOS>SUBSTRUCTURE
     1 DHO         1 TEMP              0 ****  ****    0 ROOT
