@<TRIPOS>MOLECULE
DHO
   67    70     1     0     0
SMALL
bcc


@<TRIPOS>ATOM
      1 C1          2.0040    0.7310    1.4120 c3        1 DHO     -0.076400
      2 C2          2.4720    1.9800    2.1440 c3        1 DHO     -0.104400
      3 C3          2.0150    1.9180    3.5720 c3        1 DHO      0.143100
      4 O3          1.2890    3.1020    3.8920 oh        1 DHO     -0.608800
      5 C4          1.1290    0.7200    3.7620 c3        1 DHO     -0.108400
      6 C5         -0.0420    0.7460    2.7250 c3        1 DHO     -0.055700
      7 C6         -0.8410    1.9990    2.9070 c3        1 DHO     -0.074400
      8 C7         -2.0180    1.9830    1.9340 c3        1 DHO     -0.074400
      9 C8         -1.5170    2.0000    0.5350 c3        1 DHO     -0.039700
     10 C9         -0.0130    1.9820    0.5400 c3        1 DHO     -0.034700
     11 C10         0.5080    0.7100    1.3520 c3        1 DHO     -0.026000
     12 C11         0.4450    1.9210   -0.7600 c3        1 DHO     -0.070400
     13 C12         0.3560    0.6660   -1.1620 c3        1 DHO      0.159100
     14 O12         1.1770    0.4800   -2.3860 oh        1 DHO     -0.624800
     15 C13        -1.1620    0.3120   -1.4840 c3        1 DHO     -0.070000
     16 C14        -2.1000    0.7060   -0.2610 c3        1 DHO     -0.049700
     17 C15        -2.1900   -0.4150    0.6200 c3        1 DHO     -0.081400
     18 C16        -1.8000   -1.7190   -0.3510 c3        1 DHO     -0.082400
     19 C17        -1.2800   -1.0620   -1.6890 c3        1 DHO     -0.056700
     20 C18        -1.6120    1.0560   -2.7390 c3        1 DHO     -0.083100
     21 C19         0.0540   -0.5480    0.6610 c3        1 DHO     -0.096100
     22 C20         0.0930   -1.6590   -2.0560 c3        1 DHO     -0.066700
     23 C21         0.3910   -1.3910   -3.5100 c3        1 DHO     -0.097100
     24 C22         0.0700   -3.1530   -1.8110 c3        1 DHO     -0.068400
     25 C23         1.2760   -3.8160   -2.5220 c3        1 DHO     -0.198400
     26 O25         1.0840   -5.8770   -3.8280 o         1 DHO     -0.850300
     27 C24         1.0100   -5.3380   -2.6810 c         1 DHO      0.908600
     28 O26         0.6180   -6.0210   -1.6840 o         1 DHO     -0.850300
     29 H11         2.3630    0.7320    0.5090 hc        1 DHO      0.043700
     30 H12A        2.3200   -0.0560    1.8840 hc        1 DHO      0.043700
     31 H21         3.4530    2.0280    2.1160 hc        1 DHO      0.044200
     32 H22         2.0930    2.7720    1.7140 hc        1 DHO      0.044200
     33 H3          2.7960    1.8440    4.1630 h1        1 DHO      0.065700
     34 HO3         1.6410    3.4780    4.6050 ho        1 DHO      0.398000
     35 H41         0.7590    0.7310    4.6710 hc        1 DHO      0.050200
     36 H42         1.6550   -0.0950    3.6350 hc        1 DHO      0.050200
     37 H5         -0.6180   -0.0290    2.8660 hc        1 DHO      0.056700
     38 H61        -0.2790    2.7740    2.7260 hc        1 DHO      0.032700
     39 H62        -1.1730    2.0450    3.8210 hc        1 DHO      0.032700
     40 HC7        -2.5780    2.7710    2.0880 hc        1 DHO      0.039700
     41 H7         -2.5520    1.1710    2.0800 hc        1 DHO      0.039700
     42 H8         -1.8260    2.8120    0.0940 hc        1 DHO      0.033700
     43 H9          0.3200    2.7960    0.9640 hc        1 DHO      0.030700
     44 H111       -0.1090    2.4960   -1.3370 hc        1 DHO      0.048200
     45 H112        1.3790    2.2160   -0.7970 hc        1 DHO      0.048200
     46 H12         0.6810    0.0820   -0.4650 h1        1 DHO      0.048700
     47 HO12        1.7860    1.1230   -2.4350 ho        1 DHO      0.416000
     48 H14        -2.9940    0.9180   -0.6000 hc        1 DHO      0.036700
     49 H151       -3.1060   -0.5060    0.9710 hc        1 DHO      0.036200
     50 H152       -1.5550   -0.3300    1.3440 hc        1 DHO      0.036200
     51 H161       -2.5940   -2.2690   -0.5240 hc        1 DHO      0.058200
     52 H162       -1.0990   -2.2520    0.0620 hc        1 DHO      0.058200
     53 H17        -1.9190   -1.2350   -2.4100 hc        1 DHO      0.043700
     54 H181       -2.0340    1.9010   -2.4840 hc        1 DHO      0.034367
     55 H182       -2.2580    0.5010   -3.2350 hc        1 DHO      0.034367
     56 H183       -0.8360    1.2370   -3.3060 hc        1 DHO      0.034367
     57 H191        0.8300   -1.0200    0.2980 hc        1 DHO      0.042367
     58 H192       -0.4110   -1.1310    1.3090 hc        1 DHO      0.042367
     59 H193       -0.5500   -0.3200   -0.0600 hc        1 DHO      0.042367
     60 H20         0.7860   -1.2480   -1.5000 hc        1 DHO      0.036700
     61 H211       -0.0000   -0.5300   -3.7710 hc        1 DHO      0.031367
     62 H212        0.0030   -2.1110   -4.0640 hc        1 DHO      0.031367
     63 H213        1.3670   -1.3630   -3.6450 hc        1 DHO      0.031367
     64 H221        0.1230   -3.3260   -0.8560 hc        1 DHO      0.049700
     65 H222       -0.7680   -3.5300   -2.1670 hc        1 DHO      0.049700
     66 H231        1.3980   -3.4100   -3.4110 hc        1 DHO      0.021200
     67 H232        2.0900   -3.6780   -1.9840 hc        1 DHO      0.021200
@<TRIPOS>BOND
     1    1    2 1   
     2    1   11 1   
     3    1   29 1   
     4    1   30 1   
     5    2    3 1   
     6    2   31 1   
     7    2   32 1   
     8    3    4 1   
     9    3    5 1   
    10    3   33 1   
    11    4   34 1   
    12    5    6 1   
    13    5   35 1   
    14    5   36 1   
    15    6    7 1   
    16    6   11 1   
    17    6   37 1   
    18    7    8 1   
    19    7   38 1   
    20    7   39 1   
    21    8    9 1   
    22    8   40 1   
    23    8   41 1   
    24    9   10 1   
    25    9   16 1   
    26    9   42 1   
    27   10   11 1   
    28   10   12 1   
    29   10   43 1   
    30   11   21 1   
    31   12   13 1   
    32   12   44 1   
    33   12   45 1   
    34   13   14 1   
    35   13   15 1   
    36   13   46 1   
    37   14   47 1   
    38   15   16 1   
    39   15   19 1   
    40   15   20 1   
    41   16   17 1   
    42   16   48 1   
    43   17   18 1   
    44   17   49 1   
    45   17   50 1   
    46   18   19 1   
    47   18   51 1   
    48   18   52 1   
    49   19   22 1   
    50   19   53 1   
    51   20   54 1   
    52   20   55 1   
    53   20   56 1   
    54   21   57 1   
    55   21   58 1   
    56   21   59 1   
    57   22   23 1   
    58   22   24 1   
    59   22   60 1   
    60   23   61 1   
    61   23   62 1   
    62   23   63 1   
    63   24   25 1   
    64   24   64 1   
    65   24   65 1   
    66   25   27 1   
    67   25   66 1   
    68   25   67 1   
    69   26   27 1   
    70   27   28 1   
@<TRIPOS>SUBSTRUCTURE
     1 DHO         1 TEMP              0 ****  ****    0 ROOT
