@<TRIPOS>MOLECULE
DHO
   67    70     1     0     0
SMALL
bcc


@<TRIPOS>ATOM
      1 C1          0.1530   -0.0580    0.1700 c3        1 DHO     -0.068400
      2 C2          1.6630   -0.0960    0.1480 c3        1 DHO     -0.112400
      3 C3          2.2080   -0.0100    1.5690 c3        1 DHO      0.142100
      4 O3          3.6300    0.0520    1.5840 oh        1 DHO     -0.601800
      5 C4          1.7060    1.2560    2.2510 c3        1 DHO     -0.074400
      6 C5          0.1860    1.3170    2.2540 c3        1 DHO     -0.049700
      7 C6         -0.2770    2.5840    2.9590 c3        1 DHO     -0.071400
      8 C7         -0.0190    3.8300    2.1420 c3        1 DHO     -0.074400
      9 C8         -0.6440    3.7260    0.7610 c3        1 DHO     -0.045700
     10 C9         -0.1400    2.4680    0.0320 c3        1 DHO     -0.043700
     11 C10        -0.4280    1.1930    0.8440 c3        1 DHO     -0.035000
     12 C11        -0.6770    2.3980   -1.3920 c3        1 DHO     -0.103400
     13 C12        -0.4490    3.6750   -2.2130 c3        1 DHO      0.151100
     14 O12         0.9400    3.8660   -2.4640 oh        1 DHO     -0.590800
     15 C13        -0.9830    4.9020   -1.4670 c3        1 DHO     -0.038000
     16 C14        -0.2850    4.9300   -0.0860 c3        1 DHO     -0.069700
     17 C15        -0.5840    6.3220    0.4510 c3        1 DHO     -0.072400
     18 C16        -0.6380    7.2100   -0.7940 c3        1 DHO     -0.079400
     19 C17        -0.5830    6.2890   -2.0310 c3        1 DHO     -0.048700
     20 C18        -2.4960    4.8040   -1.3650 c3        1 DHO     -0.086100
     21 C19        -1.9300    0.9480    0.9790 c3        1 DHO     -0.088100
     22 C20        -1.4110    6.8350   -3.1890 c3        1 DHO     -0.060700
     23 C21        -1.3580    5.9100   -4.3900 c3        1 DHO     -0.087100
     24 C22        -0.9160    8.2250   -3.5860 c3        1 DHO     -0.067400
     25 C23        -1.9110    8.9830   -4.4310 c3        1 DHO     -0.195400
     26 O25        -1.2140   11.0850   -3.4670 o         1 DHO     -0.852300
     27 C24        -1.5430   10.4760   -4.5250 c         1 DHO      0.907600
     28 O26        -1.6110   11.0250   -5.6620 o         1 DHO     -0.852300
     29 H11        -0.2390   -0.1390   -0.8760 hc        1 DHO      0.038200
     30 H12A       -0.2200   -0.9590    0.7290 hc        1 DHO      0.038200
     31 H21         2.0710    0.7530   -0.4600 hc        1 DHO      0.046200
     32 H22         2.0080   -1.0500   -0.3310 hc        1 DHO      0.046200
     33 H3          1.8840   -0.9190    2.1530 h1        1 DHO      0.025700
     34 HO3         3.9450   -0.6360    0.9870 ho        1 DHO      0.395000
     35 H41         2.0840    1.2750    3.3060 hc        1 DHO      0.057200
     36 H42         2.1380    2.1470    1.7260 hc        1 DHO      0.057200
     37 H5         -0.1850    0.4350    2.8530 hc        1 DHO      0.035700
     38 H61         0.2500    2.6700    3.9450 hc        1 DHO      0.035700
     39 H62        -1.3750    2.5010    3.1730 hc        1 DHO      0.035700
     40 HC7        -0.4480    4.7230    2.6700 hc        1 DHO      0.044200
     41 H7          1.0850    4.0030    2.0440 hc        1 DHO      0.044200
     42 H8         -1.7600    3.6730    0.8840 hc        1 DHO      0.049700
     43 H9          0.9830    2.5660   -0.0510 hc        1 DHO      0.058700
     44 H111       -0.1690    1.5550   -1.9320 hc        1 DHO      0.036200
     45 H112       -1.7760    2.1800   -1.3790 hc        1 DHO      0.036200
     46 H12        -0.9870    3.5660   -3.1990 h1        1 DHO      0.036700
     47 HO12        1.2120    3.1420   -3.0380 ho        1 DHO      0.388000
     48 H14         0.8280    4.8810   -0.2820 hc        1 DHO      0.065700
     49 H151        0.2090    6.6590    1.1620 hc        1 DHO      0.032200
     50 H152       -1.5590    6.3390    0.9980 hc        1 DHO      0.032200
     51 H161        0.2240    7.9220   -0.8110 hc        1 DHO      0.056200
     52 H162       -1.5780    7.8170   -0.8000 hc        1 DHO      0.056200
     53 H17         0.4850    6.2120   -2.3800 hc        1 DHO      0.064700
     54 H181       -2.8950    5.6990   -0.8280 hc        1 DHO      0.035367
     55 H182       -2.9510    4.7710   -2.3850 hc        1 DHO      0.035367
     56 H183       -2.8200    3.8890   -0.8140 hc        1 DHO      0.035367
     57 H191       -2.1210    0.0950    1.6750 hc        1 DHO      0.033700
     58 H192       -2.3730    0.6940   -0.0140 hc        1 DHO      0.033700
     59 H193       -2.4530    1.8480    1.3790 hc        1 DHO      0.033700
     60 H20        -2.4830    6.9310   -2.8540 hc        1 DHO      0.040700
     61 H211       -1.6750    6.4580   -5.3110 hc        1 DHO      0.025033
     62 H212       -2.0410    5.0360   -4.2570 hc        1 DHO      0.025033
     63 H213       -0.3200    5.5280   -4.5450 hc        1 DHO      0.025033
     64 H221        0.0520    8.1250   -4.1410 hc        1 DHO      0.048700
     65 H222       -0.7100    8.8410   -2.6690 hc        1 DHO      0.048700
     66 H231       -1.9670    8.5560   -5.4630 hc        1 DHO      0.018700
     67 H232       -2.9330    8.9160   -3.9760 hc        1 DHO      0.018700
@<TRIPOS>BOND
     1    1    2 1   
     2    1   11 1   
     3    1   29 1   
     4    1   30 1   
     5    2    3 1   
     6    2   31 1   
     7    2   32 1   
     8    3    4 1   
     9    3    5 1   
    10    3   33 1   
    11    4   34 1   
    12    5    6 1   
    13    5   35 1   
    14    5   36 1   
    15    6    7 1   
    16    6   11 1   
    17    6   37 1   
    18    7    8 1   
    19    7   38 1   
    20    7   39 1   
    21    8    9 1   
    22    8   40 1   
    23    8   41 1   
    24    9   10 1   
    25    9   16 1   
    26    9   42 1   
    27   10   11 1   
    28   10   12 1   
    29   10   43 1   
    30   11   21 1   
    31   12   13 1   
    32   12   44 1   
    33   12   45 1   
    34   13   14 1   
    35   13   15 1   
    36   13   46 1   
    37   14   47 1   
    38   15   16 1   
    39   15   19 1   
    40   15   20 1   
    41   16   17 1   
    42   16   48 1   
    43   17   18 1   
    44   17   49 1   
    45   17   50 1   
    46   18   19 1   
    47   18   51 1   
    48   18   52 1   
    49   19   22 1   
    50   19   53 1   
    51   20   54 1   
    52   20   55 1   
    53   20   56 1   
    54   21   57 1   
    55   21   58 1   
    56   21   59 1   
    57   22   23 1   
    58   22   24 1   
    59   22   60 1   
    60   23   61 1   
    61   23   62 1   
    62   23   63 1   
    63   24   25 1   
    64   24   64 1   
    65   24   65 1   
    66   25   27 1   
    67   25   66 1   
    68   25   67 1   
    69   26   27 1   
    70   27   28 1   
@<TRIPOS>SUBSTRUCTURE
     1 DHO         1 TEMP              0 ****  ****    0 ROOT
