@<TRIPOS>MOLECULE
DHP
   41    40     1     0     0
SMALL
bcc


@<TRIPOS>ATOM
      1 N1         -3.1150    4.0030   -4.7490 n         1 DHP     -0.620500
      2 C1         -1.6660    2.2580   -5.0490 c1        1 DHP      0.085100
      3 O3         -0.5380    2.8220   -4.4070 o         1 DHP     -0.204000
      4 C2         -2.6520    3.3970   -5.8160 c2        1 DHP      0.649300
      5 O2         -3.5500    3.0300   -6.5720 o         1 DHP     -0.565300
      6 C3         -3.1290    2.7640   -3.6570 c         1 DHP      0.676300
      7 O1         -3.9330    2.5700   -2.7590 o         1 DHP     -0.519100
      8 C4         -2.2440    1.7850   -4.2920 ce        1 DHP     -0.246500
      9 C5         -1.6460    0.6490   -3.4730 c3        1 DHP     -0.019200
     10 C6         -1.1610    1.1930   -2.1050 c3        1 DHP     -0.079400
     11 C7         -1.1050    0.0360   -1.0850 c3        1 DHP     -0.078400
     12 C8          0.0630    0.2630   -0.1160 c3        1 DHP     -0.078400
     13 C9         -0.0980   -0.6610    1.1170 c3        1 DHP     -0.079400
     14 C10         1.2930   -0.9000    1.7730 c3        1 DHP     -0.078400
     15 C11         1.1030   -1.5760    3.1460 c3        1 DHP     -0.079400
     16 C12         2.4530   -2.0960    3.6540 c3        1 DHP     -0.079400
     17 C13         2.3100   -2.5420    5.1340 c3        1 DHP     -0.080400
     18 C14         3.6040   -3.2140    5.5920 c3        1 DHP     -0.092100
     19 HN1        -3.6740    4.7340   -4.7440 hn        1 DHP      0.353500
     20 HO3         0.0540    3.0760   -5.0170 ho        1 DHP      0.247000
     21 H51        -0.8880    0.2620   -3.9580 hc        1 DHP      0.066700
     22 H52        -2.3220   -0.0360   -3.3270 hc        1 DHP      0.066700
     23 H61        -1.7830    1.8790   -1.7870 hc        1 DHP      0.050200
     24 H62        -0.2670    1.5840   -2.2060 hc        1 DHP      0.050200
     25 H71        -1.9440    0.0040   -0.5810 hc        1 DHP      0.041200
     26 H72        -0.9770   -0.8050   -1.5550 hc        1 DHP      0.041200
     27 H81         0.9060    0.0590   -0.5690 hc        1 DHP      0.041200
     28 H82         0.0680    1.1970    0.1750 hc        1 DHP      0.041200
     29 H91        -0.7000   -0.2330    1.7720 hc        1 DHP      0.039700
     30 H92        -0.4780   -1.5200    0.8350 hc        1 DHP      0.039700
     31 H101        1.8310   -1.4780    1.1960 hc        1 DHP      0.039700
     32 H102        1.7530   -0.0360    1.8930 hc        1 DHP      0.039700
     33 H111        0.7420   -0.9220    3.7870 hc        1 DHP      0.039700
     34 H112        0.4900   -2.3110    3.0580 hc        1 DHP      0.039700
     35 H121        3.1260   -1.3800    3.5910 hc        1 DHP      0.039700
     36 H122        2.7340   -2.8530    3.1120 hc        1 DHP      0.039700
     37 H131        2.1310   -1.7490    5.7030 hc        1 DHP      0.038700
     38 H132        1.5660   -3.1780    5.2140 hc        1 DHP      0.038700
     39 H141        4.3590   -2.6140    5.4260 hc        1 DHP      0.032700
     40 H142        3.5480   -3.4120    6.5510 hc        1 DHP      0.032700
     41 H143        3.7330   -4.0490    5.0920 hc        1 DHP      0.032700
@<TRIPOS>BOND
     1    1    4 1   
     2    1    6 1   
     3    1   19 1   
     4    2    4 2   
     5    2    8 2   
     6    3   20 1   
     7    4    5 1   
     8    6    7 2   
     9    6    8 1   
    10    8    9 1   
    11    9   10 1   
    12    9   21 1   
    13    9   22 1   
    14   10   11 1   
    15   10   23 1   
    16   10   24 1   
    17   11   12 1   
    18   11   25 1   
    19   11   26 1   
    20   12   13 1   
    21   12   27 1   
    22   12   28 1   
    23   13   14 1   
    24   13   29 1   
    25   13   30 1   
    26   14   15 1   
    27   14   31 1   
    28   14   32 1   
    29   15   16 1   
    30   15   33 1   
    31   15   34 1   
    32   16   17 1   
    33   16   35 1   
    34   16   36 1   
    35   17   18 1   
    36   17   37 1   
    37   17   38 1   
    38   18   39 1   
    39   18   40 1   
    40   18   41 1   
@<TRIPOS>SUBSTRUCTURE
     1 DHP         1 TEMP              0 ****  ****    0 ROOT
