@<TRIPOS>MOLECULE
DHP
   41    41     1     0     0
SMALL
bcc


@<TRIPOS>ATOM
      1 N1          0.9040   -0.9430   -5.0520 n         1 DHP     -0.621500
      2 C1         -0.8530    0.4250   -4.3450 cc        1 DHP      0.044900
      3 O3         -2.0280    1.0920   -4.4010 oh        1 DHP     -0.450100
      4 C2         -0.3280   -0.4330   -5.4870 c         1 DHP      0.678700
      5 O2         -0.8830   -0.6320   -6.5700 o         1 DHP     -0.575500
      6 C3          1.1910   -0.4760   -3.7340 c         1 DHP      0.714700
      7 O1          2.2110   -0.7740   -3.1150 o         1 DHP     -0.554500
      8 C4          0.0360    0.4030   -3.3120 cd        1 DHP     -0.183400
      9 C5         -0.0150    1.0860   -2.0140 c3        1 DHP     -0.017200
     10 C6          0.0040    0.1110   -0.8500 c3        1 DHP     -0.080400
     11 C7         -0.0090    0.8500    0.4700 c3        1 DHP     -0.077400
     12 C8          0.0030   -0.1160    1.6360 c3        1 DHP     -0.079400
     13 C9         -0.0080    0.6210    2.9580 c3        1 DHP     -0.078400
     14 C10         0.0030   -0.3450    4.1240 c3        1 DHP     -0.079400
     15 C11        -0.0070    0.3910    5.4470 c3        1 DHP     -0.079400
     16 C12         0.0030   -0.5740    6.6130 c3        1 DHP     -0.079400
     17 C13        -0.0070    0.1600    7.9360 c3        1 DHP     -0.080400
     18 C14         0.0040   -0.7970    9.1000 c3        1 DHP     -0.092100
     19 HN1         1.4870   -1.5410   -5.5800 hn        1 DHP      0.352500
     20 HO3        -2.4250    0.9030   -5.2710 ho        1 DHP      0.449000
     21 H51        -0.9450    1.7170   -1.9650 hc        1 DHP      0.064200
     22 H52         0.8700    1.7760   -1.9310 hc        1 DHP      0.064200
     23 H61         0.9230   -0.5310   -0.9190 hc        1 DHP      0.051700
     24 H62        -0.8870   -0.5680   -0.9110 hc        1 DHP      0.051700
     25 H71        -0.9210    1.5010    0.5300 hc        1 DHP      0.040700
     26 H72         0.8850    1.5250    0.5330 hc        1 DHP      0.040700
     27 H81         0.9140   -0.7670    1.5750 hc        1 DHP      0.041700
     28 H82        -0.8910   -0.7910    1.5740 hc        1 DHP      0.041700
     29 H91        -0.9190    1.2730    3.0190 hc        1 DHP      0.039700
     30 H92         0.8860    1.2950    3.0200 hc        1 DHP      0.039700
     31 H101        0.9140   -0.9970    4.0640 hc        1 DHP      0.040200
     32 H102       -0.8910   -1.0200    4.0620 hc        1 DHP      0.040200
     33 H111       -0.9180    1.0430    5.5070 hc        1 DHP      0.039200
     34 H112        0.8870    1.0660    5.5090 hc        1 DHP      0.039200
     35 H121        0.9140   -1.2270    6.5530 hc        1 DHP      0.039700
     36 H122       -0.8910   -1.2490    6.5510 hc        1 DHP      0.039700
     37 H131       -0.9180    0.8130    7.9940 hc        1 DHP      0.038200
     38 H132        0.8870    0.8360    7.9960 hc        1 DHP      0.038200
     39 H141       -0.0040   -0.2350   10.0650 hc        1 DHP      0.032700
     40 H142       -0.8930   -1.4620    9.0720 hc        1 DHP      0.032700
     41 H143        0.9170   -1.4400    9.0740 hc        1 DHP      0.032700
@<TRIPOS>BOND
     1    1    4 1   
     2    1    6 1   
     3    1   19 1   
     4    2    3 1   
     5    2    4 1   
     6    2    8 2   
     7    3   20 1   
     8    4    5 2   
     9    6    7 2   
    10    6    8 1   
    11    8    9 1   
    12    9   10 1   
    13    9   21 1   
    14    9   22 1   
    15   10   11 1   
    16   10   23 1   
    17   10   24 1   
    18   11   12 1   
    19   11   25 1   
    20   11   26 1   
    21   12   13 1   
    22   12   27 1   
    23   12   28 1   
    24   13   14 1   
    25   13   29 1   
    26   13   30 1   
    27   14   15 1   
    28   14   31 1   
    29   14   32 1   
    30   15   16 1   
    31   15   33 1   
    32   15   34 1   
    33   16   17 1   
    34   16   35 1   
    35   16   36 1   
    36   17   18 1   
    37   17   37 1   
    38   17   38 1   
    39   18   39 1   
    40   18   40 1   
    41   18   41 1   
@<TRIPOS>SUBSTRUCTURE
     1 DHP         1 TEMP              0 ****  ****    0 ROOT
