@<TRIPOS>MOLECULE
DHQ
   23    24     1     0     0
SMALL
bcc


@<TRIPOS>ATOM
      1 C1         43.0000   23.8010   20.9340 c         1 DHQ      0.710100
      2 O          44.2100   23.9660   21.1940 o         1 DHQ     -0.646500
      3 N2         42.5040   24.2130   19.7110 n         1 DHQ     -0.572900
      4 C3         41.1000   24.2100   19.4230 c3        1 DHQ      0.104000
      5 C4         40.3300   23.0590   20.0730 c3        1 DHQ     -0.052100
      6 C4A        40.7610   22.7920   21.4700 ca        1 DHQ     -0.043300
      7 C5         39.9000   22.1550   22.3790 ca        1 DHQ     -0.089300
      8 C6         40.3430   21.8990   23.6820 ca        1 DHQ     -0.103000
      9 C7         41.6270   22.2600   24.0830 ca        1 DHQ     -0.142000
     10 C8         42.4900   22.8810   23.1820 ca        1 DHQ     -0.073000
     11 C8A        42.0570   23.1460   21.8800 ca        1 DHQ     -0.136600
     12 C9         38.5330   21.7540   21.9730 c3        1 DHQ     -0.053800
     13 HN2        43.1070   24.7100   19.0980 hn        1 DHQ      0.323500
     14 H31        40.6410   25.1860   19.7640 h1        1 DHQ      0.039200
     15 H32        40.9670   24.1480   18.3050 h1        1 DHQ      0.039200
     16 H41        39.2380   23.3170   20.0410 hc        1 DHQ      0.063700
     17 H42        40.4710   22.1190   19.4720 hc        1 DHQ      0.063700
     18 H6         39.6670   21.4040   24.3970 ha        1 DHQ      0.134000
     19 H7         41.9630   22.0520   25.1090 ha        1 DHQ      0.138000
     20 H8         43.5140   23.1640   23.4770 ha        1 DHQ      0.161000
     21 H91        38.0450   21.1270   22.7590 hc        1 DHQ      0.045367
     22 H92        37.8970   22.6600   21.8030 hc        1 DHQ      0.045367
     23 H93        38.5640   21.1650   21.0220 hc        1 DHQ      0.045367
@<TRIPOS>BOND
     1    1    2 2   
     2    1    3 1   
     3    1   11 1   
     4    3    4 1   
     5    3   13 1   
     6    4    5 1   
     7    4   14 1   
     8    4   15 1   
     9    5    6 1   
    10    5   16 1   
    11    5   17 1   
    12    6    7 ar  
    13    6   11 ar  
    14    7    8 ar  
    15    7   12 1   
    16    8    9 ar  
    17    8   18 1   
    18    9   10 ar  
    19    9   19 1   
    20   10   11 ar  
    21   10   20 1   
    22   12   21 1   
    23   12   22 1   
    24   12   23 1   
@<TRIPOS>SUBSTRUCTURE
     1 DHQ         1 TEMP              0 ****  ****    0 ROOT
