@<TRIPOS>MOLECULE
DHQ
   23    24     1     0     0
SMALL
bcc


@<TRIPOS>ATOM
      1 C1         -0.0380   -0.1210    0.0120 c         1 DHQ      0.710100
      2 O          -0.6380   -0.3160   -1.0660 o         1 DHQ     -0.646500
      3 N2          1.3300    0.0780    0.0030 n         1 DHQ     -0.572900
      4 C3          2.0950    0.1340    1.2140 c3        1 DHQ      0.104000
      5 C4          1.3600    0.7780    2.3900 c3        1 DHQ     -0.052100
      6 C4A        -0.0660    0.3630    2.4780 ca        1 DHQ     -0.043300
      7 C5         -0.7590    0.4270    3.6980 ca        1 DHQ     -0.089300
      8 C6         -2.1060    0.0500    3.7430 ca        1 DHQ     -0.103000
      9 C7         -2.7660   -0.3800    2.5940 ca        1 DHQ     -0.142000
     10 C8         -2.0860   -0.4350    1.3790 ca        1 DHQ     -0.073000
     11 C8A        -0.7400   -0.0640    1.3220 ca        1 DHQ     -0.136600
     12 C9         -0.0810    0.8900    4.9320 c3        1 DHQ     -0.053800
     13 HN2         1.8180   -0.0220   -0.8560 hn        1 DHQ      0.323500
     14 H31         2.4050   -0.9120    1.5140 h1        1 DHQ      0.039200
     15 H32         3.0370    0.7200    1.0120 h1        1 DHQ      0.039200
     16 H41         1.9080    0.5010    3.3300 hc        1 DHQ      0.063700
     17 H42         1.3980    1.8980    2.2960 hc        1 DHQ      0.063700
     18 H6         -2.6500    0.0960    4.7000 ha        1 DHQ      0.134000
     19 H7         -3.8250   -0.6720    2.6440 ha        1 DHQ      0.138000
     20 H8         -2.5940   -0.7610    0.4570 ha        1 DHQ      0.161000
     21 H91         0.4370    1.8660    4.7510 hc        1 DHQ      0.045367
     22 H92         0.6860    0.1420    5.2570 hc        1 DHQ      0.045367
     23 H93        -0.8100    1.0280    5.7670 hc        1 DHQ      0.045367
@<TRIPOS>BOND
     1    1    2 2   
     2    1    3 1   
     3    1   11 1   
     4    3    4 1   
     5    3   13 1   
     6    4    5 1   
     7    4   14 1   
     8    4   15 1   
     9    5    6 1   
    10    5   16 1   
    11    5   17 1   
    12    6    7 ar  
    13    6   11 ar  
    14    7    8 ar  
    15    7   12 1   
    16    8    9 ar  
    17    8   18 1   
    18    9   10 ar  
    19    9   19 1   
    20   10   11 ar  
    21   10   20 1   
    22   12   21 1   
    23   12   22 1   
    24   12   23 1   
@<TRIPOS>SUBSTRUCTURE
     1 DHQ         1 TEMP              0 ****  ****    0 ROOT
