@<TRIPOS>MOLECULE
DHQ
   23    24     1     0     0
SMALL
bcc


@<TRIPOS>ATOM
      1 C1         -0.0400   -0.1110    0.0100 c         1 DHQ      0.710100
      2 O          -0.6410   -0.3000   -1.0690 o         1 DHQ     -0.646500
      3 N2          1.3280    0.0850    0.0020 ns        1 DHQ     -0.572900
      4 C3          2.0940    0.1330    1.2120 c3        1 DHQ      0.104000
      5 C4          1.3610    0.7740    2.3920 c3        1 DHQ     -0.052100
      6 C4A        -0.0650    0.3620    2.4780 ca        1 DHQ     -0.043300
      7 C5         -0.7580    0.4230    3.6990 ca        1 DHQ     -0.089300
      8 C6         -2.1070    0.0480    3.7430 ca        1 DHQ     -0.103000
      9 C7         -2.7680   -0.3740    2.5920 ca        1 DHQ     -0.142000
     10 C8         -2.0880   -0.4250    1.3770 ca        1 DHQ     -0.073000
     11 C8A        -0.7410   -0.0580    1.3210 ca        1 DHQ     -0.136600
     12 C9         -0.0790    0.8780    4.9340 c3        1 DHQ     -0.053800
     13 HN2         1.8160   -0.0130   -0.8580 hn        1 DHQ      0.323500
     14 H31         2.4010   -0.9150    1.5080 h1        1 DHQ      0.039200
     15 H32         3.0380    0.7180    1.0130 h1        1 DHQ      0.039200
     16 H41         1.4020    1.8940    2.3030 hc        1 DHQ      0.063700
     17 H42         1.9090    0.4910    3.3300 hc        1 DHQ      0.063700
     18 H6         -2.6500    0.0910    4.7000 ha        1 DHQ      0.134000
     19 H7         -3.8280   -0.6640    2.6410 ha        1 DHQ      0.138000
     20 H8         -2.5970   -0.7460    0.4530 ha        1 DHQ      0.161000
     21 H91        -0.8070    1.0140    5.7710 hc        1 DHQ      0.045367
     22 H92         0.6870    0.1270    5.2560 hc        1 DHQ      0.045367
     23 H93         0.4410    1.8530    4.7580 hc        1 DHQ      0.045367
@<TRIPOS>BOND
     1    1    2 2   
     2    1    3 1   
     3    1   11 1   
     4    3    4 1   
     5    3   13 1   
     6    4    5 1   
     7    4   14 1   
     8    4   15 1   
     9    5    6 1   
    10    5   16 1   
    11    5   17 1   
    12    6    7 ar  
    13    6   11 ar  
    14    7    8 ar  
    15    7   12 1   
    16    8    9 ar  
    17    8   18 1   
    18    9   10 ar  
    19    9   19 1   
    20   10   11 ar  
    21   10   20 1   
    22   12   21 1   
    23   12   22 1   
    24   12   23 1   
@<TRIPOS>SUBSTRUCTURE
     1 DHQ         1 TEMP              0 ****  ****    0 ROOT
