@<TRIPOS>MOLECULE
DHQ
   23    21     1     0     0
SMALL
bcc


@<TRIPOS>ATOM
      1 C1         -0.0680    1.3900   -1.9170 c1        1 DHQ      0.347000
      2 O          -0.6760    1.7090   -2.9190 o         1 DHQ     -0.371000
      3 N2          1.2890    1.3900   -1.9170 n2        1 DHQ     -0.382000
      4 C3          1.9370    1.3900   -0.6830 c3        1 DHQ     -0.012000
      5 C4          1.5460    0.3730    0.2490 c3        1 DHQ     -0.138000
      6 C4A         0.0410   -0.0220    0.2400 c2        1 DHQ     -0.036000
      7 C5         -0.4840   -0.9890    1.0830 c2        1 DHQ     -0.082000
      8 C6         -1.8510   -1.3010    1.0280 c1        1 DHQ     -0.103000
      9 C7         -2.6980   -0.6280    0.1090 c1        1 DHQ     -0.107500
     10 C8         -2.1700    0.3510   -0.7470 c1        1 DHQ     -0.107500
     11 C8A        -0.7880    0.5520   -0.7930 c1        1 DHQ     -0.116000
     12 C9          0.4320   -1.7780    1.9920 c3        1 DHQ     -0.179000
     13 HN2         1.7450    1.6230   -2.6720 hn        1 DHQ      0.237000
     14 H31         2.8920    1.2770   -0.8540 h1        1 DHQ      0.078500
     15 H32         1.7640    2.2540   -0.2620 h1        1 DHQ      0.078500
     16 H41         1.7590    0.6970    1.1450 hc        1 DHQ      0.103000
     17 H42         2.0610   -0.4300    0.0410 hc        1 DHQ      0.103000
     18 H6         -2.2200   -1.9820    1.6220 ha        1 DHQ      0.134000
     19 H7         -3.6480   -0.8460    0.0710 ha        1 DHQ      0.149500
     20 H8         -2.7520    0.8140   -1.3790 ha        1 DHQ      0.149500
     21 H91         1.0580   -2.2980    1.4510 hc        1 DHQ      0.084667
     22 H92         0.9290   -1.1650    2.5650 hc        1 DHQ      0.084667
     23 H93        -0.0990   -2.3820    2.5450 hc        1 DHQ      0.084667
@<TRIPOS>BOND
     1    1    2 1   
     2    1   11 1   
     3    3    4 1   
     4    3   13 1   
     5    4    5 1   
     6    4   14 1   
     7    4   15 1   
     8    5    6 1   
     9    5   16 1   
    10    5   17 1   
    11    6    7 1   
    12    6   11 1   
    13    7    8 1   
    14    7   12 1   
    15    8   18 1   
    16    9   10 1   
    17    9   19 1   
    18   10   20 1   
    19   12   21 1   
    20   12   22 1   
    21   12   23 1   
@<TRIPOS>SUBSTRUCTURE
     1 DHQ         1 TEMP              0 ****  ****    0 ROOT
