@<TRIPOS>MOLECULE
DHQ
   23    24     1     0     0
SMALL
bcc


@<TRIPOS>ATOM
      1 C1         -0.0360   -0.1130    0.0100 c         1 DHQ      0.710100
      2 O          -0.6350   -0.3030   -1.0690 o         1 DHQ     -0.646500
      3 N2          1.3320    0.0840    0.0040 n         1 DHQ     -0.572900
      4 C3          2.0960    0.1330    1.2160 c3        1 DHQ      0.104000
      5 C4          1.3610    0.7750    2.3940 c3        1 DHQ     -0.052100
      6 C4A        -0.0660    0.3630    2.4780 ca        1 DHQ     -0.043300
      7 C5         -0.7600    0.4240    3.6980 ca        1 DHQ     -0.089300
      8 C6         -2.1090    0.0480    3.7400 ca        1 DHQ     -0.103000
      9 C7         -2.7680   -0.3760    2.5890 ca        1 DHQ     -0.142000
     10 C8         -2.0860   -0.4270    1.3740 ca        1 DHQ     -0.073000
     11 C8A        -0.7390   -0.0590    1.3200 ca        1 DHQ     -0.136600
     12 C9         -0.0830    0.8800    4.9340 c3        1 DHQ     -0.053800
     13 HN2         1.8210   -0.0140   -0.8540 hn        1 DHQ      0.323500
     14 H31         3.0390    0.7190    1.0170 h1        1 DHQ      0.039200
     15 H32         2.4040   -0.9140    1.5130 h1        1 DHQ      0.039200
     16 H41         1.4010    1.8950    2.3040 hc        1 DHQ      0.063700
     17 H42         1.9070    0.4930    3.3330 hc        1 DHQ      0.063700
     18 H6         -2.6530    0.0920    4.6960 ha        1 DHQ      0.134000
     19 H7         -3.8280   -0.6660    2.6360 ha        1 DHQ      0.138000
     20 H8         -2.5940   -0.7490    0.4500 ha        1 DHQ      0.161000
     21 H91        -0.8130    1.0160    5.7690 hc        1 DHQ      0.045367
     22 H92         0.6820    0.1290    5.2570 hc        1 DHQ      0.045367
     23 H93         0.4370    1.8550    4.7580 hc        1 DHQ      0.045367
@<TRIPOS>BOND
     1    1    2 2   
     2    1    3 1   
     3    1   11 1   
     4    3    4 1   
     5    3   13 1   
     6    4    5 1   
     7    4   14 1   
     8    4   15 1   
     9    5    6 1   
    10    5   16 1   
    11    5   17 1   
    12    6    7 ar  
    13    6   11 ar  
    14    7    8 ar  
    15    7   12 1   
    16    8    9 ar  
    17    8   18 1   
    18    9   10 ar  
    19    9   19 1   
    20   10   11 ar  
    21   10   20 1   
    22   12   21 1   
    23   12   22 1   
    24   12   23 1   
@<TRIPOS>SUBSTRUCTURE
     1 DHQ         1 TEMP              0 ****  ****    0 ROOT
