@<TRIPOS>MOLECULE
DHR
   18    18     1     0     0
SMALL
bcc


@<TRIPOS>ATOM
      1 N2         -0.4690   -1.7760    3.0980 n1        1 DHR     -0.353800
      2 C2         -0.2730   -0.7660    2.5570 c1        1 DHR      0.177700
      3 C3         -0.0440    0.3380    0.3940 ca        1 DHR     -0.171300
      4 C4         -0.8990    1.1140   -0.3980 ca        1 DHR     -0.070000
      5 C8          0.8130   -0.5870   -0.2100 ca        1 DHR     -0.070000
      6 C7          0.8240   -0.7420   -1.5930 ca        1 DHR     -0.185000
      7 C5         -0.9040    0.9740   -1.7810 ca        1 DHR     -0.185000
      8 C6         -0.0370    0.0410   -2.3760 ca        1 DHR      0.141100
      9 O6         -0.0860   -0.0520   -3.7460 oh        1 DHR     -0.492100
     10 C1         -0.0440    0.5170    1.8860 c3        1 DHR      0.265500
     11 O1          1.1490    1.1210    2.3560 oh        1 DHR     -0.571800
     12 H4         -1.5730    1.8460    0.0750 ha        1 DHR      0.139000
     13 H8          1.4800   -1.2040    0.4130 ha        1 DHR      0.139000
     14 H7          1.4970   -1.4710   -2.0660 ha        1 DHR      0.148500
     15 H5         -1.5710    1.5770   -2.4140 ha        1 DHR      0.148500
     16 H6          0.5470   -0.7310   -4.0240 ho        1 DHR      0.423000
     17 H1         -0.8560    1.2400    2.2060 h1        1 DHR      0.106700
     18 HO1         1.8950    0.6310    1.9880 ho        1 DHR      0.410000
@<TRIPOS>BOND
     1    1    2 3   
     2    2   10 1   
     3    3    4 ar  
     4    3    5 ar  
     5    3   10 1   
     6    4    7 ar  
     7    4   12 1   
     8    5    6 ar  
     9    5   13 1   
    10    6    8 ar  
    11    6   14 1   
    12    7    8 ar  
    13    7   15 1   
    14    8    9 1   
    15    9   16 1   
    16   10   11 1   
    17   10   17 1   
    18   11   18 1   
@<TRIPOS>SUBSTRUCTURE
     1 DHR         1 TEMP              0 ****  ****    0 ROOT
