@<TRIPOS>MOLECULE
DHR
   18    14     1     0     0
SMALL
bcc


@<TRIPOS>ATOM
      1 N2         -0.3170    1.5190    3.5280 n1        1 DHR     -0.023000
      2 C2         -0.5100    1.5940    2.4070 c1        1 DHR     -0.182000
      3 C3         -0.2790    0.4330    0.2410 c1        1 DHR     -0.130000
      4 C4         -1.1860   -0.4230   -0.3640 c1        1 DHR     -0.120000
      5 C8          1.0770    0.1510    0.1930 c1        1 DHR     -0.047000
      6 C7          1.5260   -0.9870   -0.4590 c1        1 DHR     -0.219000
      7 C5         -0.7380   -1.5610   -1.0160 c1        1 DHR     -0.120000
      8 C6          0.6190   -1.8430   -1.0640 c1        1 DHR      0.093000
      9 O6          1.0720   -3.0150   -1.6970 oh        1 DHR     -0.248000
     10 C1         -0.7650    1.6920    0.9200 c2        1 DHR      0.179000
     11 O1         -0.0760    2.8030    0.3990 oh        1 DHR     -0.306000
     12 H4         -2.1420   -0.2240   -0.3300 ha        1 DHR      0.145000
     13 H8          1.7170    0.7530    0.6190 ha        1 DHR      0.155000
     14 H7          2.4810   -1.1860   -0.4930 ha        1 DHR      0.138000
     15 H5         -1.3770   -2.1630   -1.4420 ha        1 DHR      0.145000
     16 H6          1.2490   -2.8420   -2.5510 ho        1 DHR      0.221000
     17 H1         -1.7240    1.7990    0.7610 h4        1 DHR      0.106000
     18 HO1        -0.6280    3.4990    0.3490 ho        1 DHR      0.212000
@<TRIPOS>BOND
     1    1    2 1   
     2    3    5 1   
     3    3   10 1   
     4    4    7 1   
     5    4   12 1   
     6    5   13 1   
     7    6    8 1   
     8    6   14 1   
     9    7   15 1   
    10    8    9 1   
    11    9   16 1   
    12   10   11 1   
    13   10   17 1   
    14   11   18 1   
@<TRIPOS>SUBSTRUCTURE
     1 DHR         1 TEMP              0 ****  ****    0 ROOT
