@<TRIPOS>MOLECULE
DHR
   18    18     1     0     0
SMALL
bcc


@<TRIPOS>ATOM
      1 N2         -1.0690    0.2800   -0.0490 n1        1 DHR     -0.348800
      2 C2          0.0860    0.1580   -0.0130 c1        1 DHR      0.170700
      3 C3          1.9730   -1.2290   -0.7180 ca        1 DHR     -0.137300
      4 C4          2.1600   -1.1620   -2.1050 ca        1 DHR     -0.063500
      5 C8          2.1900   -2.4310   -0.0410 ca        1 DHR     -0.063500
      6 C7          2.5910   -3.5680   -0.7390 ca        1 DHR     -0.189500
      7 C5          2.5560   -2.2870   -2.8180 ca        1 DHR     -0.189500
      8 C6          2.7710   -3.4920   -2.1270 ca        1 DHR      0.138100
      9 O6          3.1630   -4.5700   -2.8850 oh        1 DHR     -0.494100
     10 C1          1.5450    0.0060    0.0210 c3        1 DHR      0.270500
     11 O1          2.0080   -0.0920    1.3620 oh        1 DHR     -0.578800
     12 H4          1.9920   -0.2140   -2.6390 ha        1 DHR      0.145500
     13 H8          2.0510   -2.4730    1.0520 ha        1 DHR      0.145500
     14 H7          2.7640   -4.5130   -0.2060 ha        1 DHR      0.146000
     15 H5          2.7040   -2.2510   -3.9060 ha        1 DHR      0.146000
     16 H6          3.2710   -5.3290   -2.2940 ho        1 DHR      0.422000
     17 H1          2.0010    0.9220   -0.4660 h1        1 DHR      0.066700
     18 HO1         1.7550    0.7260    1.8090 ho        1 DHR      0.413000
@<TRIPOS>BOND
     1    1    2 3   
     2    2   10 1   
     3    3    4 ar  
     4    3    5 ar  
     5    3   10 1   
     6    4    7 ar  
     7    4   12 1   
     8    5    6 ar  
     9    5   13 1   
    10    6    8 ar  
    11    6   14 1   
    12    7    8 ar  
    13    7   15 1   
    14    8    9 1   
    15    9   16 1   
    16   10   11 1   
    17   10   17 1   
    18   11   18 1   
@<TRIPOS>SUBSTRUCTURE
     1 DHR         1 TEMP              0 ****  ****    0 ROOT
