@<TRIPOS>MOLECULE
DHR
   18    18     1     0     0
SMALL
bcc


@<TRIPOS>ATOM
      1 N2         -1.0760    0.2950   -0.1110 n1        1 DHR     -0.348800
      2 C2          0.0780    0.1700   -0.0560 c1        1 DHR      0.170700
      3 C3          1.9710   -1.2260   -0.7220 ca        1 DHR     -0.137300
      4 C4          2.1830   -1.1670   -2.1050 ca        1 DHR     -0.063500
      5 C8          2.1720   -2.4260   -0.0350 ca        1 DHR     -0.063500
      6 C7          2.5810   -3.5680   -0.7200 ca        1 DHR     -0.189500
      7 C5          2.5870   -2.2970   -2.8060 ca        1 DHR     -0.189500
      8 C6          2.7860   -3.5000   -2.1050 ca        1 DHR      0.138100
      9 O6          3.1870   -4.5820   -2.8510 oh        1 DHR     -0.494100
     10 C1          1.5350    0.0140    0.0040 c3        1 DHR      0.270500
     11 O1          1.9750   -0.0790    1.3540 oh        1 DHR     -0.578800
     12 H4          2.0290   -0.2210   -2.6460 ha        1 DHR      0.145500
     13 H8          2.0130   -2.4620    1.0550 ha        1 DHR      0.145500
     14 H7          2.7400   -4.5110   -0.1800 ha        1 DHR      0.146000
     15 H5          2.7550   -2.2670   -3.8920 ha        1 DHR      0.146000
     16 H6          3.2820   -5.3390   -2.2540 ho        1 DHR      0.422000
     17 H1          2.0020    0.9260   -0.4800 h1        1 DHR      0.066700
     18 HO1         1.7170    0.7420    1.7910 ho        1 DHR      0.413000
@<TRIPOS>BOND
     1    1    2 3   
     2    2   10 1   
     3    3    4 ar  
     4    3    5 ar  
     5    3   10 1   
     6    4    7 ar  
     7    4   12 1   
     8    5    6 ar  
     9    5   13 1   
    10    6    8 ar  
    11    6   14 1   
    12    7    8 ar  
    13    7   15 1   
    14    8    9 1   
    15    9   16 1   
    16   10   11 1   
    17   10   17 1   
    18   11   18 1   
@<TRIPOS>SUBSTRUCTURE
     1 DHR         1 TEMP              0 ****  ****    0 ROOT
