@<TRIPOS>MOLECULE
DHR
   18    18     1     0     0
SMALL
bcc


@<TRIPOS>ATOM
      1 N2         -1.0890    0.2310   -0.0430 n1        1 DHR     -0.348800
      2 C2          0.0690    0.1350   -0.0220 c1        1 DHR      0.170700
      3 C3          1.9710   -1.2540   -0.6760 ca        1 DHR     -0.137300
      4 C4          2.1080   -1.2770   -2.0680 ca        1 DHR     -0.064000
      5 C8          2.2490   -2.4030    0.0740 ca        1 DHR     -0.064000
      6 C7          2.6600   -3.5730   -0.5550 ca        1 DHR     -0.189500
      7 C5          2.5150   -2.4410   -2.7140 ca        1 DHR     -0.189500
      8 C6          2.7900   -3.5870   -1.9540 ca        1 DHR      0.138100
      9 O6          3.1980   -4.7710   -2.5210 oh        1 DHR     -0.494100
     10 C1          1.5300    0.0150   -0.0060 c3        1 DHR      0.270500
     11 O1          2.0200    0.0110    1.3290 oh        1 DHR     -0.577800
     12 H4          1.8940   -0.3740   -2.6590 ha        1 DHR      0.146000
     13 H8          2.1480   -2.3720    1.1710 ha        1 DHR      0.146000
     14 H7          2.8840   -4.4820    0.0210 ha        1 DHR      0.146000
     15 H5          2.6190   -2.4610   -3.8080 ha        1 DHR      0.146000
     16 H6          3.2370   -4.6470   -3.4800 ho        1 DHR      0.421000
     17 H1          1.9570    0.9080   -0.5580 h1        1 DHR      0.065700
     18 HO1         1.7530    0.8480    1.7310 ho        1 DHR      0.413000
@<TRIPOS>BOND
     1    1    2 3   
     2    2   10 1   
     3    3    4 ar  
     4    3    5 ar  
     5    3   10 1   
     6    4    7 ar  
     7    4   12 1   
     8    5    6 ar  
     9    5   13 1   
    10    6    8 ar  
    11    6   14 1   
    12    7    8 ar  
    13    7   15 1   
    14    8    9 1   
    15    9   16 1   
    16   10   11 1   
    17   10   17 1   
    18   11   18 1   
@<TRIPOS>SUBSTRUCTURE
     1 DHR         1 TEMP              0 ****  ****    0 ROOT
