@<TRIPOS>MOLECULE
DHS
   23    23     1     0     0
SMALL
bcc


@<TRIPOS>ATOM
      1 N          -0.0920    0.0360    0.0010 n4        1 DHS     -0.842600
      2 C1          3.0070    1.9140   -0.3070 ce        1 DHS     -0.054400
      3 C3          1.4240    0.0250   -0.0070 c3        1 DHS      0.192700
      4 C4          1.9440   -0.0140    1.4460 c3        1 DHS      0.085100
      5 C5          3.4740    0.1770    1.4230 c3        1 DHS      0.118100
      6 C6          3.8000    1.5670    0.8940 c3        1 DHS     -0.101200
      7 C7          3.4770    3.1550   -1.1020 c         1 DHS      0.908800
      8 C2          1.9390    1.2180   -0.7250 c2        1 DHS     -0.343200
      9 O2          1.5390   -1.2530    2.0000 oh        1 DHS     -0.639800
     10 O3          3.9700   -0.0780    2.7220 oh        1 DHS     -0.599800
     11 O4          4.6660    3.5100   -0.9220 o         1 DHS     -0.782300
     12 O5          2.6160    3.6900   -1.8430 o         1 DHS     -0.782300
     13 HN1        -0.4380   -0.0630   -0.9540 hn        1 DHS      0.449800
     14 HN2        -0.4180    0.9300    0.3780 hn        1 DHS      0.449800
     15 H3          1.7120   -0.9350   -0.5330 hx        1 DHS      0.098700
     16 H4          1.4800    0.8090    2.0610 h1        1 DHS      0.058700
     17 H5          3.9430   -0.6220    0.7810 h1        1 DHS      0.091700
     18 H61         4.8940    1.6390    0.6270 hc        1 DHS      0.101700
     19 H62         3.6140    2.3440    1.6860 hc        1 DHS      0.101700
     20 H2          1.4400    1.5180   -1.6630 ha        1 DHS      0.171000
     21 HO2         2.2470   -1.5580    2.5890 ho        1 DHS      0.451000
     22 HO3         3.9540    0.7490    3.2200 ho        1 DHS      0.417000
     23 HN3        -0.4310   -0.7300    0.5870 hn        1 DHS      0.449800
@<TRIPOS>BOND
     1    1    3 1   
     2    1   13 1   
     3    1   14 1   
     4    1   23 1   
     5    2    6 1   
     6    2    7 1   
     7    2    8 2   
     8    3    4 1   
     9    3    8 1   
    10    3   15 1   
    11    4    5 1   
    12    4    9 1   
    13    4   16 1   
    14    5    6 1   
    15    5   10 1   
    16    5   17 1   
    17    6   18 1   
    18    6   19 1   
    19    7   11 1   
    20    7   12 1   
    21    8   20 1   
    22    9   21 1   
    23   10   22 1   
@<TRIPOS>SUBSTRUCTURE
     1 DHS         1 TEMP              0 ****  ****    0 ROOT
