@<TRIPOS>MOLECULE
DHS
   22    21     1     0     0
SMALL
bcc


@<TRIPOS>ATOM
      1 N          -2.5330   -0.6800   -0.5640 n3        1 DHS     -0.346000
      2 C1          0.9480    0.9810   -1.0450 c1        1 DHS     -0.105000
      3 C3         -1.1270   -0.6620   -0.5830 c3        1 DHS     -0.034000
      4 C4         -0.4940   -0.6460    1.0240 c3        1 DHS      0.002000
      5 C5          0.6870   -0.5500    1.1120 c3        1 DHS      0.037000
      6 C6          1.3890    0.8400    0.3470 c2        1 DHS     -0.128000
      7 C7          1.6230    1.9840   -1.9540 c2        1 DHS      0.353000
      8 C2         -0.6350    0.4510   -1.3870 c2        1 DHS     -0.262000
      9 O2         -0.9160   -1.9490    1.7120 oh        1 DHS     -0.362000
     10 O3          1.0470   -0.5040    2.5980 oh        1 DHS     -0.338000
     11 O4          2.4610    1.5940   -2.8080 o         1 DHS     -0.564500
     12 O5          1.3170    3.2030   -1.8830 o         1 DHS     -0.564500
     13 HN1        -2.8290   -1.5350   -0.7060 hn        1 DHS      0.135500
     14 HN2        -2.8540   -0.1320   -1.2240 hn        1 DHS      0.135500
     15 H3         -0.9360   -1.5150   -1.0210 h1        1 DHS      0.095000
     16 H4         -0.9000    0.1020    1.5050 h1        1 DHS      0.084000
     17 H5          1.0900   -1.3510    0.7210 h1        1 DHS      0.077000
     18 H61         2.3420    0.8280    0.5690 ha        1 DHS      0.115500
     19 H62         1.1200    1.6790    0.7750 ha        1 DHS      0.115500
     20 H2         -1.0360    0.6390   -2.2570 ha        1 DHS      0.140000
     21 HO2        -1.5310   -1.7730    2.3270 ho        1 DHS      0.212000
     22 HO3         1.7680   -1.0030    2.7430 ho        1 DHS      0.201000
@<TRIPOS>BOND
     1    1    3 1   
     2    1   13 1   
     3    1   14 1   
     4    2    7 1   
     5    2    8 1   
     6    3    4 1   
     7    3    8 1   
     8    3   15 1   
     9    4    5 1   
    10    4    9 1   
    11    4   16 1   
    12    5    6 1   
    13    5   10 1   
    14    5   17 1   
    15    6   18 1   
    16    6   19 1   
    17    7   11 1   
    18    7   12 1   
    19    8   20 1   
    20    9   21 1   
    21   10   22 1   
@<TRIPOS>SUBSTRUCTURE
     1 DHS         1 TEMP              0 ****  ****    0 ROOT
