@<TRIPOS>MOLECULE
DHS
   22    22     1     0     0
SMALL
bcc


@<TRIPOS>ATOM
      1 N          -1.6270    2.5170    0.2550 n3        1 DHS     -0.910800
      2 C1          1.0510    0.0520   -0.1420 ce        1 DHS     -0.131400
      3 C3         -1.1150    1.3040   -0.3790 c3        1 DHS      0.159700
      4 C4         -1.8000    0.0480    0.2220 c3        1 DHS      0.157100
      5 C5         -1.0950   -1.2310   -0.2550 c3        1 DHS      0.142100
      6 C6          0.3730   -1.2300    0.1580 c3        1 DHS     -0.082200
      7 C7          2.5750    0.0040   -0.1910 c         1 DHS      0.902800
      8 C2          0.3790    1.1870   -0.3600 c2        1 DHS     -0.256200
      9 O2         -3.1470   -0.0350   -0.2270 oh        1 DHS     -0.602800
     10 O3         -1.7870   -2.3270    0.3420 oh        1 DHS     -0.605800
     11 O4          3.1220   -1.1300   -0.3080 o         1 DHS     -0.831300
     12 O5          3.2080    1.0940   -0.1150 o         1 DHS     -0.831300
     13 HN1        -1.3730    2.5220    1.2250 hn        1 DHS      0.339300
     14 HN2        -1.1980    3.3150   -0.1760 hn        1 DHS      0.339300
     15 H3         -1.4400    1.3570   -1.4650 h1        1 DHS      0.058700
     16 H4         -1.7840    0.0780    1.3470 h1        1 DHS      0.039700
     17 H5         -1.1950   -1.3120   -1.3730 h1        1 DHS      0.043700
     18 H61         0.9200   -2.0600   -0.3680 hc        1 DHS      0.068700
     19 H62         0.4510   -1.4320    1.2610 hc        1 DHS      0.068700
     20 H2          0.9430    2.1120   -0.5680 ha        1 DHS      0.141000
     21 HO2        -3.5680    0.7990    0.0110 ho        1 DHS      0.400000
     22 HO3        -1.2080   -3.0930    0.2460 ho        1 DHS      0.391000
@<TRIPOS>BOND
     1    1    3 1   
     2    1   13 1   
     3    1   14 1   
     4    2    6 1   
     5    2    7 1   
     6    2    8 2   
     7    3    4 1   
     8    3    8 1   
     9    3   15 1   
    10    4    5 1   
    11    4    9 1   
    12    4   16 1   
    13    5    6 1   
    14    5   10 1   
    15    5   17 1   
    16    6   18 1   
    17    6   19 1   
    18    7   11 1   
    19    7   12 1   
    20    8   20 1   
    21    9   21 1   
    22   10   22 1   
@<TRIPOS>SUBSTRUCTURE
     1 DHS         1 TEMP              0 ****  ****    0 ROOT
