@<TRIPOS>MOLECULE
DHS
   23    23     1     0     0
SMALL
bcc


@<TRIPOS>ATOM
      1 N          -0.0700    0.0070   -0.0440 nz        1 DHS     -0.842600
      2 C1          3.0220    1.9030   -0.3100 ce        1 DHS     -0.055400
      3 C3          1.4460    0.0060   -0.0200 c3        1 DHS      0.192700
      4 C4          1.9350   -0.0110    1.4450 c3        1 DHS      0.085100
      5 C5          3.4640    0.1920    1.4520 c3        1 DHS      0.118100
      6 C6          3.7920    1.5770    0.9120 c3        1 DHS     -0.101200
      7 C7          3.5000    3.1370   -1.1110 c         1 DHS      0.908800
      8 C2          1.9680    1.1940   -0.7420 c2        1 DHS     -0.343200
      9 O2          1.5270   -1.2450    2.0050 oh        1 DHS     -0.639800
     10 O3          3.9330   -0.0430    2.7640 oh        1 DHS     -0.599800
     11 O4          4.6830    3.5030   -0.9090 o         1 DHS     -0.782300
     12 O5          2.6520    3.6550   -1.8790 o         1 DHS     -0.782300
     13 HN1        -0.3940   -0.1080   -1.0050 hn        1 DHS      0.449800
     14 HN2        -0.4090    0.9030    0.3140 hn        1 DHS      0.449800
     15 H3          1.7530   -0.9580   -0.5270 hx        1 DHS      0.098700
     16 H4          1.4520    0.8170    2.0390 h1        1 DHS      0.058700
     17 H5          3.9520   -0.6120    0.8300 h1        1 DHS      0.091700
     18 H61         3.5830    2.3620    1.6900 hc        1 DHS      0.101700
     19 H62         4.8900    1.6530    0.6670 hc        1 DHS      0.101700
     20 H2          1.4880    1.4780   -1.6940 ha        1 DHS      0.171000
     21 HO2         2.2240   -1.5370    2.6130 ho        1 DHS      0.451000
     22 HO3         3.9020    0.7900    3.2510 ho        1 DHS      0.417000
     23 HN3        -0.4160   -0.7550    0.5440 hn        1 DHS      0.449800
@<TRIPOS>BOND
     1    1    3 1   
     2    1   13 1   
     3    1   14 1   
     4    1   23 1   
     5    2    6 1   
     6    2    7 1   
     7    2    8 2   
     8    3    4 1   
     9    3    8 1   
    10    3   15 1   
    11    4    5 1   
    12    4    9 1   
    13    4   16 1   
    14    5    6 1   
    15    5   10 1   
    16    5   17 1   
    17    6   18 1   
    18    6   19 1   
    19    7   11 1   
    20    7   12 1   
    21    8   20 1   
    22    9   21 1   
    23   10   22 1   
@<TRIPOS>SUBSTRUCTURE
     1 DHS         1 TEMP              0 ****  ****    0 ROOT
