@<TRIPOS>MOLECULE
DHS
   23    23     1     0     0
SMALL
bcc


@<TRIPOS>ATOM
      1 N          -0.0750    0.0130   -0.0330 n4        1 DHS     -0.842600
      2 C1          3.0200    1.9030   -0.3110 ce        1 DHS     -0.055400
      3 C3          1.4420    0.0100   -0.0170 c3        1 DHS      0.192700
      4 C4          1.9380   -0.0120    1.4450 c3        1 DHS      0.085100
      5 C5          3.4680    0.1880    1.4440 c3        1 DHS      0.118100
      6 C6          3.7950    1.5730    0.9060 c3        1 DHS     -0.101200
      7 C7          3.4960    3.1390   -1.1110 c         1 DHS      0.908800
      8 C2          1.9620    1.1970   -0.7390 c2        1 DHS     -0.343200
      9 O2          1.5310   -1.2470    2.0050 oh        1 DHS     -0.639800
     10 O3          3.9430   -0.0520    2.7540 oh        1 DHS     -0.599800
     11 O4          4.6800    3.5030   -0.9140 o         1 DHS     -0.782300
     12 O5          2.6450    3.6600   -1.8740 o         1 DHS     -0.782300
     13 HN1        -0.4100    0.9090    0.3300 hn        1 DHS      0.449800
     14 HN2        -0.4040   -0.0990   -0.9930 hn        1 DHS      0.449800
     15 H3          1.7430   -0.9540   -0.5280 hx        1 DHS      0.098700
     16 H4          1.4600    0.8160    2.0440 h1        1 DHS      0.058700
     17 H5          3.9510   -0.6160    0.8180 h1        1 DHS      0.091700
     18 H61         4.8930    1.6480    0.6560 hc        1 DHS      0.101700
     19 H62         3.5930    2.3570    1.6870 hc        1 DHS      0.101700
     20 H2          1.4770    1.4850   -1.6870 ha        1 DHS      0.171000
     21 HO2         2.2300   -1.5420    2.6080 ho        1 DHS      0.451000
     22 HO3         3.9170    0.7810    3.2430 ho        1 DHS      0.417000
     23 HN3        -0.4190   -0.7490    0.5550 hn        1 DHS      0.449800
@<TRIPOS>BOND
     1    1    3 1   
     2    1   13 1   
     3    1   14 1   
     4    1   23 1   
     5    2    6 1   
     6    2    7 1   
     7    2    8 2   
     8    3    4 1   
     9    3    8 1   
    10    3   15 1   
    11    4    5 1   
    12    4    9 1   
    13    4   16 1   
    14    5    6 1   
    15    5   10 1   
    16    5   17 1   
    17    6   18 1   
    18    6   19 1   
    19    7   11 1   
    20    7   12 1   
    21    8   20 1   
    22    9   21 1   
    23   10   22 1   
@<TRIPOS>SUBSTRUCTURE
     1 DHS         1 TEMP              0 ****  ****    0 ROOT
