@<TRIPOS>MOLECULE
DHT
   51    54     1     0     0
SMALL
bcc


@<TRIPOS>ATOM
      1 C1          0.0890   -0.0330   -0.0140 c3        1 DHT     -0.068400
      2 C2          1.5670    0.2270    0.1790 c3        1 DHT     -0.181400
      3 C3          1.9780    0.2260    1.6230 c         1 DHT      0.571100
      4 O3          2.7520    1.0720    2.0840 o         1 DHT     -0.535100
      5 C4          1.4250   -0.8890    2.4630 c3        1 DHT     -0.179400
      6 C5         -0.0640   -1.0740    2.2320 c3        1 DHT     -0.050700
      7 C6         -0.5980   -2.2080    3.0910 c3        1 DHT     -0.073400
      8 C7         -2.1030   -2.3040    2.9650 c3        1 DHT     -0.074400
      9 C8         -2.5230   -2.4690    1.5140 c3        1 DHT     -0.047700
     10 C9         -1.9540   -1.3350    0.6420 c3        1 DHT     -0.048700
     11 C10        -0.4150   -1.2680    0.7440 c3        1 DHT     -0.039000
     12 C11        -2.4450   -1.4260   -0.7980 c3        1 DHT     -0.075400
     13 C12        -3.9560   -1.5550   -0.9270 c3        1 DHT     -0.063400
     14 C13        -4.4710   -2.7040   -0.0780 c3        1 DHT     -0.044000
     15 C14        -4.0320   -2.4340    1.3800 c3        1 DHT     -0.067700
     16 C15        -4.8860   -3.3810    2.2130 c3        1 DHT     -0.068400
     17 C16        -6.2210   -3.4510    1.4670 c3        1 DHT     -0.117400
     18 C17        -6.0090   -2.7690    0.0970 c3        1 DHT      0.141100
     19 O17        -6.5850   -3.5050   -0.9670 oh        1 DHT     -0.591800
     20 C18        -3.9860   -4.0340   -0.6290 c3        1 DHT     -0.076100
     21 C19         0.2360   -2.5110    0.1590 c3        1 DHT     -0.086100
     22 H11        -0.1010   -0.1670   -1.1120 hc        1 DHT      0.048700
     23 H12        -0.4930    0.8640    0.3230 hc        1 DHT      0.048700
     24 H21         2.1680   -0.5660   -0.3430 hc        1 DHT      0.069200
     25 H22         1.8360    1.2130   -0.2870 hc        1 DHT      0.069200
     26 H41         1.6100   -0.6700    3.5490 hc        1 DHT      0.070200
     27 H42         1.9830   -1.8300    2.2130 hc        1 DHT      0.070200
     28 H5         -0.5770   -0.1230    2.5660 hc        1 DHT      0.052700
     29 H61        -0.3230   -2.0240    4.1630 hc        1 DHT      0.043200
     30 H62        -0.1230   -3.1760    2.7840 hc        1 DHT      0.043200
     31 H71        -2.5750   -1.3800    3.3900 hc        1 DHT      0.042700
     32 H72        -2.4790   -3.1770    3.5590 hc        1 DHT      0.042700
     33 H8         -2.1390   -3.4590    1.1430 hc        1 DHT      0.058700
     34 H9         -2.3490   -0.3650    1.0670 hc        1 DHT      0.045700
     35 H111       -1.9590   -2.2980   -1.3080 hc        1 DHT      0.042200
     36 H112       -2.1300   -0.4990   -1.3480 hc        1 DHT      0.042200
     37 H121       -4.4450   -0.5990   -0.6050 hc        1 DHT      0.044700
     38 H122       -4.2230   -1.7280   -2.0020 hc        1 DHT      0.044700
     39 H14        -4.3620   -1.3850    1.6430 hc        1 DHT      0.045700
     40 H151       -4.4130   -4.3920    2.2790 hc        1 DHT      0.045200
     41 H152       -5.0180   -2.9970    3.2530 hc        1 DHT      0.045200
     42 H161       -6.5340   -4.5140    1.3180 hc        1 DHT      0.047700
     43 H162       -7.0240   -2.9280    2.0380 hc        1 DHT      0.047700
     44 H17        -6.4400   -1.7300    0.1040 h1        1 DHT      0.034700
     45 HO7        -7.5260   -3.5810   -0.7660 ho        1 DHT      0.399000
     46 H181       -4.4080   -4.1860   -1.6530 hc        1 DHT      0.040367
     47 H182       -2.8730   -4.0710   -0.6940 hc        1 DHT      0.040367
     48 H183       -4.3350   -4.8700    0.0230 hc        1 DHT      0.040367
     49 H191        1.3390   -2.5000    0.3380 hc        1 DHT      0.037033
     50 H192       -0.1800   -3.4390    0.6160 hc        1 DHT      0.037033
     51 H193        0.0690   -2.5540   -0.9440 hc        1 DHT      0.037033
@<TRIPOS>BOND
     1    1    2 1   
     2    1   11 1   
     3    1   22 1   
     4    1   23 1   
     5    2    3 1   
     6    2   24 1   
     7    2   25 1   
     8    3    4 2   
     9    3    5 1   
    10    5    6 1   
    11    5   26 1   
    12    5   27 1   
    13    6    7 1   
    14    6   11 1   
    15    6   28 1   
    16    7    8 1   
    17    7   29 1   
    18    7   30 1   
    19    8    9 1   
    20    8   31 1   
    21    8   32 1   
    22    9   10 1   
    23    9   15 1   
    24    9   33 1   
    25   10   11 1   
    26   10   12 1   
    27   10   34 1   
    28   11   21 1   
    29   12   13 1   
    30   12   35 1   
    31   12   36 1   
    32   13   14 1   
    33   13   37 1   
    34   13   38 1   
    35   14   15 1   
    36   14   18 1   
    37   14   20 1   
    38   15   16 1   
    39   15   39 1   
    40   16   17 1   
    41   16   40 1   
    42   16   41 1   
    43   17   18 1   
    44   17   42 1   
    45   17   43 1   
    46   18   19 1   
    47   18   44 1   
    48   19   45 1   
    49   20   46 1   
    50   20   47 1   
    51   20   48 1   
    52   21   49 1   
    53   21   50 1   
    54   21   51 1   
@<TRIPOS>SUBSTRUCTURE
     1 DHT         1 TEMP              0 ****  ****    0 ROOT
