@<TRIPOS>MOLECULE
DHT
   51    54     1     0     0
SMALL
bcc


@<TRIPOS>ATOM
      1 C1          0.0940   -0.0380   -0.0230 c3        1 DHT     -0.068400
      2 C2          1.5720    0.2220    0.1700 c3        1 DHT     -0.181400
      3 C3          1.9830    0.2250    1.6140 c         1 DHT      0.571100
      4 O3          2.7570    1.0720    2.0720 o         1 DHT     -0.535100
      5 C4          1.4290   -0.8860    2.4580 c3        1 DHT     -0.179400
      6 C5         -0.0600   -1.0710    2.2280 c3        1 DHT     -0.050700
      7 C6         -0.5950   -2.2020    3.0900 c3        1 DHT     -0.073400
      8 C7         -2.0990   -2.2970    2.9640 c3        1 DHT     -0.074400
      9 C8         -2.5200   -2.4670    1.5130 c3        1 DHT     -0.047700
     10 C9         -1.9500   -1.3360    0.6380 c3        1 DHT     -0.048700
     11 C10        -0.4110   -1.2700    0.7400 c3        1 DHT     -0.039000
     12 C11        -2.4410   -1.4320   -0.8020 c3        1 DHT     -0.075400
     13 C12        -3.9520   -1.5610   -0.9310 c3        1 DHT     -0.063400
     14 C13        -4.4680   -2.7060   -0.0780 c3        1 DHT     -0.044000
     15 C14        -4.0290   -2.4310    1.3790 c3        1 DHT     -0.067700
     16 C15        -4.8840   -3.3750    2.2160 c3        1 DHT     -0.068400
     17 C16        -6.2180   -3.4460    1.4700 c3        1 DHT     -0.117400
     18 C17        -6.0060   -2.7690    0.0970 c3        1 DHT      0.141100
     19 O17        -6.5830   -3.5080   -0.9640 oh        1 DHT     -0.591800
     20 C18        -3.9840   -4.0380   -0.6240 c3        1 DHT     -0.076100
     21 C19         0.2400   -2.5150    0.1590 c3        1 DHT     -0.086100
     22 H11        -0.0960   -0.1760   -1.1200 hc        1 DHT      0.048700
     23 H12        -0.4880    0.8610    0.3110 hc        1 DHT      0.048700
     24 H21         2.1730   -0.5740   -0.3500 hc        1 DHT      0.069200
     25 H22         1.8420    1.2050   -0.3000 hc        1 DHT      0.069200
     26 H41         1.6140   -0.6640    3.5430 hc        1 DHT      0.070200
     27 H42         1.9870   -1.8290    2.2110 hc        1 DHT      0.070200
     28 H5         -0.5720   -0.1190    2.5580 hc        1 DHT      0.052700
     29 H61        -0.1200   -3.1710    2.7870 hc        1 DHT      0.043200
     30 H62        -0.3200   -2.0150    4.1610 hc        1 DHT      0.043200
     31 H71        -2.5720   -1.3710    3.3860 hc        1 DHT      0.042700
     32 H72        -2.4770   -3.1680    3.5610 hc        1 DHT      0.042700
     33 H8         -2.1370   -3.4580    1.1460 hc        1 DHT      0.058700
     34 H9         -2.3450   -0.3650    1.0590 hc        1 DHT      0.045700
     35 H111       -1.9560   -2.3070   -1.3080 hc        1 DHT      0.042200
     36 H112       -2.1250   -0.5080   -1.3550 hc        1 DHT      0.042200
     37 H121       -4.2190   -1.7370   -2.0050 hc        1 DHT      0.044700
     38 H122       -4.4410   -0.6030   -0.6120 hc        1 DHT      0.044700
     39 H14        -4.3580   -1.3810    1.6390 hc        1 DHT      0.045700
     40 H151       -4.4110   -4.3860    2.2850 hc        1 DHT      0.045200
     41 H152       -5.0160   -2.9870    3.2550 hc        1 DHT      0.045200
     42 H161       -7.0220   -2.9200    2.0390 hc        1 DHT      0.047700
     43 H162       -6.5330   -4.5090    1.3250 hc        1 DHT      0.047700
     44 H17        -6.4360   -1.7300    0.1010 h1        1 DHT      0.034700
     45 HO7        -7.5230   -3.5830   -0.7630 ho        1 DHT      0.399000
     46 H181       -4.3350   -4.8720    0.0310 hc        1 DHT      0.040367
     47 H182       -4.4070   -4.1940   -1.6470 hc        1 DHT      0.040367
     48 H183       -2.8710   -4.0770   -0.6890 hc        1 DHT      0.040367
     49 H191        1.3420   -2.5050    0.3390 hc        1 DHT      0.037033
     50 H192       -0.1780   -3.4420    0.6190 hc        1 DHT      0.037033
     51 H193        0.0720   -2.5620   -0.9440 hc        1 DHT      0.037033
@<TRIPOS>BOND
     1    1    2 1   
     2    1   11 1   
     3    1   22 1   
     4    1   23 1   
     5    2    3 1   
     6    2   24 1   
     7    2   25 1   
     8    3    4 2   
     9    3    5 1   
    10    5    6 1   
    11    5   26 1   
    12    5   27 1   
    13    6    7 1   
    14    6   11 1   
    15    6   28 1   
    16    7    8 1   
    17    7   29 1   
    18    7   30 1   
    19    8    9 1   
    20    8   31 1   
    21    8   32 1   
    22    9   10 1   
    23    9   15 1   
    24    9   33 1   
    25   10   11 1   
    26   10   12 1   
    27   10   34 1   
    28   11   21 1   
    29   12   13 1   
    30   12   35 1   
    31   12   36 1   
    32   13   14 1   
    33   13   37 1   
    34   13   38 1   
    35   14   15 1   
    36   14   18 1   
    37   14   20 1   
    38   15   16 1   
    39   15   39 1   
    40   16   17 1   
    41   16   40 1   
    42   16   41 1   
    43   17   18 1   
    44   17   42 1   
    45   17   43 1   
    46   18   19 1   
    47   18   44 1   
    48   19   45 1   
    49   20   46 1   
    50   20   47 1   
    51   20   48 1   
    52   21   49 1   
    53   21   50 1   
    54   21   51 1   
@<TRIPOS>SUBSTRUCTURE
     1 DHT         1 TEMP              0 ****  ****    0 ROOT
