@<TRIPOS>MOLECULE
DHT
   51    54     1     0     0
SMALL
bcc


@<TRIPOS>ATOM
      1 C1          1.4750   -0.4860   -2.4770 c3        1 DHT     -0.068400
      2 C2          1.4330   -0.1460   -3.9510 c3        1 DHT     -0.181400
      3 C3          0.0680   -0.3170   -4.5520 c         1 DHT      0.571100
      4 O3         -0.1000   -0.8480   -5.6540 o         1 DHT     -0.535100
      5 C4         -1.0770    0.2330   -3.7510 c3        1 DHT     -0.179400
      6 C5         -0.9780   -0.1690   -2.2900 c3        1 DHT     -0.050700
      7 C6         -2.1450    0.4020   -1.5020 c3        1 DHT     -0.073400
      8 C7         -2.1210   -0.1090   -0.0780 c3        1 DHT     -0.074400
      9 C8         -0.7970    0.2050    0.5980 c3        1 DHT     -0.047700
     10 C9          0.3840   -0.3480   -0.2210 c3        1 DHT     -0.048700
     11 C10         0.3780    0.2090   -1.6610 c3        1 DHT     -0.039000
     12 C11         1.7160   -0.1300    0.4890 c3        1 DHT     -0.075400
     13 C12         1.7320   -0.6130    1.9310 c3        1 DHT     -0.063400
     14 C13         0.5710   -0.0200    2.7090 c3        1 DHT     -0.044000
     15 C14        -0.7300   -0.4210    1.9760 c3        1 DHT     -0.067700
     16 C15        -1.8350   -0.1420    2.9860 c3        1 DHT     -0.068400
     17 C16        -1.2020   -0.4580    4.3440 c3        1 DHT     -0.117400
     18 C17         0.3130   -0.6440    4.1040 c3        1 DHT      0.141100
     19 O17         1.0980    0.0150    5.0810 oh        1 DHT     -0.591800
     20 C18         0.7480    1.4800    2.8710 c3        1 DHT     -0.076100
     21 C19         0.6190    1.7100   -1.6790 c3        1 DHT     -0.086100
     22 H11         1.3770   -1.5960   -2.3480 hc        1 DHT      0.048700
     23 H12         2.4810   -0.1870   -2.0780 hc        1 DHT      0.048700
     24 H21         2.1700   -0.7890   -4.5030 hc        1 DHT      0.069200
     25 H22         1.7390    0.9240   -4.1070 hc        1 DHT      0.069200
     26 H41        -2.0480   -0.1410   -4.1750 hc        1 DHT      0.070200
     27 H42        -1.0760    1.3500   -3.8540 hc        1 DHT      0.070200
     28 H5         -1.0550   -1.2960   -2.2450 hc        1 DHT      0.052700
     29 H61        -3.1070    0.1000   -1.9920 hc        1 DHT      0.043200
     30 H62        -2.1010    1.5220   -1.5100 hc        1 DHT      0.043200
     31 H71        -2.2920   -1.2180   -0.0730 hc        1 DHT      0.042700
     32 H72        -2.9540    0.3600    0.5080 hc        1 DHT      0.042700
     33 H8         -0.7020    1.3220    0.6900 hc        1 DHT      0.058700
     34 H9          0.2320   -1.4640   -0.3040 hc        1 DHT      0.045700
     35 H111        1.9820    0.9590    0.4650 hc        1 DHT      0.042200
     36 H112        2.5180   -0.6820   -0.0690 hc        1 DHT      0.042200
     37 H121        2.7010   -0.3180    2.4110 hc        1 DHT      0.044700
     38 H122        1.6690   -1.7330    1.9550 hc        1 DHT      0.044700
     39 H14        -0.7020   -1.5420    1.8280 hc        1 DHT      0.045700
     40 H151       -2.1600    0.9270    2.9380 hc        1 DHT      0.045200
     41 H152       -2.7300   -0.7810    2.7930 hc        1 DHT      0.045200
     42 H161       -1.3730    0.3800    5.0640 hc        1 DHT      0.047700
     43 H162       -1.6400   -1.3870    4.7810 hc        1 DHT      0.047700
     44 H17         0.5780   -1.7370    4.0920 h1        1 DHT      0.034700
     45 HO7         0.8400   -0.3560    5.9330 ho        1 DHT      0.399000
     46 H181        0.8520    1.9900    1.8850 hc        1 DHT      0.040367
     47 H182       -0.1290    1.9140    3.4090 hc        1 DHT      0.040367
     48 H183        1.6660    1.6810    3.4760 hc        1 DHT      0.040367
     49 H191        0.5020    2.1160   -2.7130 hc        1 DHT      0.037033
     50 H192       -0.0990    2.2440   -1.0130 hc        1 DHT      0.037033
     51 H193        1.6570    1.9390   -1.3360 hc        1 DHT      0.037033
@<TRIPOS>BOND
     1    1    2 1   
     2    1   11 1   
     3    1   22 1   
     4    1   23 1   
     5    2    3 1   
     6    2   24 1   
     7    2   25 1   
     8    3    4 2   
     9    3    5 1   
    10    5    6 1   
    11    5   26 1   
    12    5   27 1   
    13    6    7 1   
    14    6   11 1   
    15    6   28 1   
    16    7    8 1   
    17    7   29 1   
    18    7   30 1   
    19    8    9 1   
    20    8   31 1   
    21    8   32 1   
    22    9   10 1   
    23    9   15 1   
    24    9   33 1   
    25   10   11 1   
    26   10   12 1   
    27   10   34 1   
    28   11   21 1   
    29   12   13 1   
    30   12   35 1   
    31   12   36 1   
    32   13   14 1   
    33   13   37 1   
    34   13   38 1   
    35   14   15 1   
    36   14   18 1   
    37   14   20 1   
    38   15   16 1   
    39   15   39 1   
    40   16   17 1   
    41   16   40 1   
    42   16   41 1   
    43   17   18 1   
    44   17   42 1   
    45   17   43 1   
    46   18   19 1   
    47   18   44 1   
    48   19   45 1   
    49   20   46 1   
    50   20   47 1   
    51   20   48 1   
    52   21   49 1   
    53   21   50 1   
    54   21   51 1   
@<TRIPOS>SUBSTRUCTURE
     1 DHT         1 TEMP              0 ****  ****    0 ROOT
