@<TRIPOS>MOLECULE
DHU
   34    34     1     0     0
SMALL
bcc


@<TRIPOS>ATOM
      1 P          -0.5160   -5.0890    1.2880 p4        1 DHU      1.712200
      2 OP1         0.9760   -5.1990    1.6080 o         1 DHU     -0.681000
      3 OP2        -1.3200   -5.5290    2.4820 os        1 DHU     -1.145000
      4 OP3        -0.8540   -5.9900    0.0830 o         1 DHU     -0.729800
      5 O5'        -0.8700   -3.5880    0.9400 os        1 DHU     -0.593200
      6 C5'        -0.0030   -2.8740    0.0940 c3        1 DHU      0.165400
      7 C4'        -0.7410   -1.6120   -0.4720 c3        1 DHU      0.037100
      8 O4'        -0.6450   -0.6170    0.3600 os        1 DHU     -0.434600
      9 C3'        -0.0480   -1.1230   -1.7730 c3        1 DHU      0.273100
     10 O3'        -0.8270   -1.3640   -2.8310 oh        1 DHU     -0.981800
     11 C2'         0.1510    0.4040   -1.5880 c3        1 DHU      0.031100
     12 O2'        -0.3490    1.1580   -2.8120 oh        1 DHU     -0.647800
     13 C1'        -0.5650    0.7120   -0.5420 c3        1 DHU      0.271500
     14 N1          0.0470    1.7450    0.1740 n         1 DHU     -0.437800
     15 C2          1.1690    1.4590    1.0320 c         1 DHU      0.809500
     16 O2          1.7770    0.3820    0.9210 o         1 DHU     -0.659500
     17 N3          1.5830    2.4180    2.0270 n         1 DHU     -0.620500
     18 C4          1.0010    3.7350    2.0430 c         1 DHU      0.714500
     19 O4          1.5730    4.6460    2.6210 o         1 DHU     -0.670500
     20 C5         -0.2880    4.0150    1.2640 c3        1 DHU     -0.196400
     21 C6         -0.4850    3.0900    0.1000 c3        1 DHU      0.077000
     22 H5'         0.7530   -2.6040    0.5790 h1        1 DHU      0.025200
     23 H5''        0.2740   -3.4480   -0.6470 h1        1 DHU      0.025200
     24 H4'        -1.6550   -1.8130   -0.6400 h1        1 DHU      0.068700
     25 H3'         0.8110   -1.5630   -1.8800 h1        1 DHU     -0.061300
     26 HO3'       -0.4620   -2.0010   -3.3290 ho        1 DHU      0.425000
     27 H2'         1.0960    0.6060   -1.4250 h1        1 DHU      0.060700
     28 HO2'        0.3230    1.2730   -3.3880 ho        1 DHU      0.434000
     29 H1'        -1.4640    0.9850   -0.8190 h2        1 DHU      0.061700
     30 HN3         2.3190    2.2240    2.5860 hn        1 DHU      0.319500
     31 H51        -1.0890    4.0850    1.8780 hc        1 DHU      0.121200
     32 H52        -0.1460    4.9270    0.8320 hc        1 DHU      0.121200
     33 H61        -1.4460    3.0150   -0.0540 h1        1 DHU      0.053200
     34 H62        -0.0770    3.5330   -0.7130 h1        1 DHU      0.053200
@<TRIPOS>BOND
     1    1    2 1   
     2    1    4 2   
     3    1    5 1   
     4    5    6 1   
     5    6    7 1   
     6    6   22 1   
     7    6   23 1   
     8    7    8 1   
     9    7    9 1   
    10    7   24 1   
    11    8   13 1   
    12    9   10 1   
    13    9   11 1   
    14    9   25 1   
    15   10   26 1   
    16   11   12 1   
    17   11   13 1   
    18   11   27 1   
    19   12   28 1   
    20   13   14 1   
    21   13   29 1   
    22   14   15 1   
    23   14   21 1   
    24   15   16 2   
    25   15   17 1   
    26   17   18 1   
    27   17   30 1   
    28   18   19 2   
    29   18   20 1   
    30   20   21 1   
    31   20   31 1   
    32   20   32 1   
    33   21   33 1   
    34   21   34 1   
@<TRIPOS>SUBSTRUCTURE
     1 DHU         1 TEMP              0 ****  ****    0 ROOT
