@<TRIPOS>MOLECULE
DHU
   34    35     1     0     0
SMALL
bcc


@<TRIPOS>ATOM
      1 P          -0.9260   -0.0830   -2.5100 p5        1 DHU      1.341900
      2 OP1        -1.5500   -0.3260   -1.1540 o         1 DHU     -0.925167
      3 OP2        -1.8350    0.2790   -3.6380 o         1 DHU     -0.925167
      4 OP3         0.2410   -1.0090   -2.7650 o         1 DHU     -0.925167
      5 O5'        -0.0020    1.3670   -2.2280 os        1 DHU     -0.564200
      6 C5'         0.1840    1.7410   -0.9270 c3        1 DHU      0.211400
      7 C4'         1.5520    1.2810   -0.3710 c3        1 DHU      0.059100
      8 O4'         1.6820    1.7110    1.0090 os        1 DHU     -0.443600
      9 C3'         1.7300   -0.2500   -0.4020 c3        1 DHU      0.092100
     10 O3'         2.6550   -0.6330   -1.3910 oh        1 DHU     -0.671800
     11 C2'         2.2650   -0.6210    0.9920 c3        1 DHU      0.099100
     12 O2'         3.6720   -0.7510    1.0640 oh        1 DHU     -0.614800
     13 C1'         1.8400    0.5950    1.8830 c3        1 DHU      0.281500
     14 N1          0.6380    0.3750    2.7040 n         1 DHU     -0.453800
     15 C2          0.5690   -0.8480    3.3980 c         1 DHU      0.806500
     16 O2          1.5610   -1.3700    3.9630 o         1 DHU     -0.685500
     17 N3         -0.6850   -1.4810    3.5760 n         1 DHU     -0.619500
     18 C4         -1.8440   -1.1000    2.8860 c         1 DHU      0.724500
     19 O4         -2.8930   -1.7260    3.1280 o         1 DHU     -0.665500
     20 C5         -1.7270    0.0470    1.9250 c3        1 DHU     -0.225400
     21 C6         -0.6210    1.0030    2.3570 c3        1 DHU      0.077000
     22 H5'        -0.6370    1.3270   -0.2750 h1        1 DHU      0.000700
     23 H5''        0.1740    2.8690   -0.8570 h1        1 DHU      0.000700
     24 H4'         2.3890    1.7880   -0.9190 h1        1 DHU      0.049700
     25 H3'         0.7200   -0.7330   -0.6110 h1        1 DHU      0.151700
     26 HO3'        2.1070   -0.8560   -2.1820 ho        1 DHU      0.501000
     27 H2'         1.8490   -1.5930    1.3650 h1        1 DHU      0.074700
     28 HO2'        4.0370   -0.4070    0.2390 ho        1 DHU      0.419000
     29 H1'         2.6630    0.8710    2.6030 h2        1 DHU      0.074700
     30 HN3        -0.6970   -2.2970    4.1420 hn        1 DHU      0.318500
     31 H51        -2.7030    0.5920    1.8780 hc        1 DHU      0.158200
     32 H52        -1.5470   -0.3490    0.8580 hc        1 DHU      0.158200
     33 H61        -0.9610    1.5560    3.2830 h1        1 DHU      0.060700
     34 H62        -0.4500    1.7700    1.5490 h1        1 DHU      0.060700
@<TRIPOS>BOND
     1    1    2 1   
     2    1    3 1   
     3    1    4 1   
     4    1    5 1   
     5    5    6 1   
     6    6    7 1   
     7    6   22 1   
     8    6   23 1   
     9    7    8 1   
    10    7    9 1   
    11    7   24 1   
    12    8   13 1   
    13    9   10 1   
    14    9   11 1   
    15    9   25 1   
    16   10   26 1   
    17   11   12 1   
    18   11   13 1   
    19   11   27 1   
    20   12   28 1   
    21   13   14 1   
    22   13   29 1   
    23   14   15 1   
    24   14   21 1   
    25   15   16 2   
    26   15   17 1   
    27   17   18 1   
    28   17   30 1   
    29   18   19 2   
    30   18   20 1   
    31   20   21 1   
    32   20   31 1   
    33   20   32 1   
    34   21   33 1   
    35   21   34 1   
@<TRIPOS>SUBSTRUCTURE
     1 DHU         1 TEMP              0 ****  ****    0 ROOT
