@<TRIPOS>MOLECULE
DHV
   19    18     1     0     0
SMALL
bcc


@<TRIPOS>ATOM
      1 N          -1.7490   -0.0100   -0.9140 n3        1 DHV     -0.890800
      2 CA         -0.3270   -0.0100   -0.9140 c3        1 DHV     -0.000500
      3 CB          0.1770   -0.0100    0.5110 c3        1 DHV      0.170800
      4 CG1        -0.5500   -1.0750    1.3030 c3        1 DHV     -0.095100
      5 CG2         1.6620   -0.3000    0.5210 c3        1 DHV     -0.095100
      6 OG3        -0.0590    1.2490    1.0920 oh        1 DHV     -0.646800
      7 C           0.1770    1.2240   -1.6270 c         1 DHV      0.881600
      8 O          -0.1150    2.3670   -1.1880 o         1 DHV     -0.840300
      9 OXT         0.8890    1.1080   -2.6590 o         1 DHV     -0.840300
     10 H          -2.0530   -0.7250   -1.3930 hn        1 DHV      0.333800
     11 H2         -2.0530    0.7610   -1.2930 hn        1 DHV      0.333800
     12 HA         -0.0010   -0.8070   -1.3740 h1        1 DHV      0.053700
     13 HG11       -0.5270   -1.9180    0.8120 hc        1 DHV      0.031700
     14 HG12       -1.4770   -0.8030    1.4390 hc        1 DHV      0.031700
     15 HG13       -0.1140   -1.1910    2.1680 hc        1 DHV      0.031700
     16 HG21        1.9640   -0.4210    1.4410 hc        1 DHV      0.031700
     17 HG22        2.1420    0.4470    0.1170 hc        1 DHV      0.031700
     18 HG23        1.8380   -1.1140    0.0110 hc        1 DHV      0.031700
     19 HOG3        0.1780    1.2300    1.9470 ho        1 DHV      0.446000
@<TRIPOS>BOND
     1    1    2 1   
     2    1   10 1   
     3    1   11 1   
     4    2    3 1   
     5    2    7 1   
     6    2   12 1   
     7    3    4 1   
     8    3    5 1   
     9    3    6 1   
    10    4   13 1   
    11    4   14 1   
    12    4   15 1   
    13    5   16 1   
    14    5   17 1   
    15    5   18 1   
    16    6   19 1   
    17    7    8 1   
    18    7    9 1   
@<TRIPOS>SUBSTRUCTURE
     1 DHV         1 TEMP              0 ****  ****    0 ROOT
