@<TRIPOS>MOLECULE
DHV
   19    18     1     0     0
SMALL
bcc


@<TRIPOS>ATOM
      1 N           0.1650    1.8870    0.5950 n3        1 DHV     -0.890800
      2 CA          0.0310    0.4360    0.6230 c3        1 DHV     -0.000500
      3 CB          1.2510   -0.2810   -0.0150 c3        1 DHV      0.170800
      4 CG1         2.5430    0.0850    0.7080 c3        1 DHV     -0.095100
      5 CG2         1.0350   -1.7900    0.0440 c3        1 DHV     -0.095100
      6 OG3         1.4330    0.1210   -1.3710 oh        1 DHV     -0.646800
      7 C          -1.2740   -0.0560   -0.0830 c         1 DHV      0.881600
      8 O          -1.4300    0.2660   -1.3000 o         1 DHV     -0.840300
      9 OXT        -2.0990   -0.7280    0.5900 o         1 DHV     -0.840300
     10 H           0.4910    2.1570   -0.3180 hn        1 DHV      0.333800
     11 H2         -0.7500    2.2850    0.7090 hn        1 DHV      0.333800
     12 HA         -0.0200    0.1280    1.7050 h1        1 DHV      0.053700
     13 HG11        2.4190   -0.0890    1.8020 hc        1 DHV      0.031700
     14 HG12        3.3840   -0.5430    0.3290 hc        1 DHV      0.031700
     15 HG13        2.7940    1.1570    0.5320 hc        1 DHV      0.031700
     16 HG21        0.0680   -2.0560   -0.4480 hc        1 DHV      0.031700
     17 HG22        1.8680   -2.3130   -0.4830 hc        1 DHV      0.031700
     18 HG23        1.0020   -2.1280    1.1060 hc        1 DHV      0.031700
     19 HOG3        0.5520    0.1160   -1.7860 ho        1 DHV      0.446000
@<TRIPOS>BOND
     1    1    2 1   
     2    1   10 1   
     3    1   11 1   
     4    2    3 1   
     5    2    7 1   
     6    2   12 1   
     7    3    4 1   
     8    3    5 1   
     9    3    6 1   
    10    4   13 1   
    11    4   14 1   
    12    4   15 1   
    13    5   16 1   
    14    5   17 1   
    15    5   18 1   
    16    6   19 1   
    17    7    8 1   
    18    7    9 1   
@<TRIPOS>SUBSTRUCTURE
     1 DHV         1 TEMP              0 ****  ****    0 ROOT
