@<TRIPOS>MOLECULE
DHY
   19    16     1     0     0
SMALL
bcc


@<TRIPOS>ATOM
      1 C1         -0.5350    0.2200   -0.5400 c1        1 DHY      0.019900
      2 C2          0.8680    0.1820   -0.5300 c1        1 DHY     -0.096500
      3 C3          1.5650    0.1930    0.7040 c1        1 DHY      0.031600
      4 C4          0.8510    0.2410    1.9080 c1        1 DHY      0.031600
      5 C5         -0.5540    0.2790    1.8920 c1        1 DHY     -0.096500
      6 C6         -1.2460    0.2690    0.6710 c1        1 DHY     -0.094500
      7 C7         -1.2860    0.3000   -1.8640 c3        1 DHY     -0.207300
      8 C8         -1.4600   -1.1270   -2.4500 c         1 DHY      0.917600
      9 O1         -1.9150   -2.0140   -1.7600 o         1 DHY     -0.841800
     10 O2         -1.0080   -1.3950   -3.6260 o         1 DHY     -0.841800
     11 O3          3.0530    0.1150    0.7260 oh        1 DHY     -0.514100
     12 O4          1.5760    0.2840    3.1940 oh        1 DHY     -0.514100
     13 H2          1.3620    0.1480   -1.3750 ha        1 DHY      0.105500
     14 H5         -1.0600    0.2190    2.7480 ha        1 DHY      0.105500
     15 H6         -2.2230    0.2950    0.6640 ha        1 DHY      0.066500
     16 H71        -2.1460    0.6970   -1.7210 hc        1 DHY      0.039200
     17 H72        -0.8060    0.8160   -2.4570 hc        1 DHY      0.039200
     18 HO3         3.4080    0.8120    0.2380 ho        1 DHY      0.425000
     19 HO4         1.5550   -0.5340    3.5780 ho        1 DHY      0.425000
@<TRIPOS>BOND
     1    1    6 3   
     2    1    7 1   
     3    2    3 3   
     4    2   13 1   
     5    3   11 1   
     6    4    5 3   
     7    4   12 1   
     8    5   14 1   
     9    6   15 1   
    10    7    8 1   
    11    7   16 1   
    12    7   17 1   
    13    8    9 1   
    14    8   10 1   
    15   11   18 1   
    16   12   19 1   
@<TRIPOS>SUBSTRUCTURE
     1 DHY         1 TEMP              0 ****  ****    0 ROOT
