@<TRIPOS>MOLECULE
DHY
   19    19     1     0     0
SMALL
bcc


@<TRIPOS>ATOM
      1 C1          0.4800   -0.5510    0.4520 ca        1 DHY     -0.014300
      2 C2         -0.7150   -0.4720   -0.2760 ca        1 DHY     -0.162000
      3 C3         -0.6780   -0.2340   -1.6500 ca        1 DHY      0.030100
      4 C4          0.5520   -0.0750   -2.3190 ca        1 DHY      0.066100
      5 C5          1.7450   -0.1490   -1.5920 ca        1 DHY     -0.146000
      6 C6          1.7000   -0.3830   -0.2200 ca        1 DHY     -0.152000
      7 C7          0.4450   -0.8300    1.9070 c3        1 DHY     -0.173100
      8 C8         -0.6400   -0.0360    2.6730 c         1 DHY      0.917600
      9 O1         -0.2510    0.7550    3.5750 o         1 DHY     -0.841800
     10 O2         -1.8550   -0.2470    2.3880 o         1 DHY     -0.841800
     11 O3         -1.8230   -0.1460   -2.4250 oh        1 DHY     -0.542100
     12 O4          0.6390    0.1430   -3.6810 oh        1 DHY     -0.519100
     13 H2         -1.6730   -0.5670    0.2720 ha        1 DHY      0.198000
     14 H5          2.7010   -0.0180   -2.1150 ha        1 DHY      0.128000
     15 H6          2.6400   -0.4290    0.3490 ha        1 DHY      0.124000
     16 H71         1.4400   -0.6080    2.3690 hc        1 DHY      0.039200
     17 H72         0.2230   -1.9190    2.0580 hc        1 DHY      0.039200
     18 HO3        -2.5720   -0.0980   -1.8150 ho        1 DHY      0.428000
     19 HO4        -0.2650    0.2660   -4.0070 ho        1 DHY      0.422000
@<TRIPOS>BOND
     1    1    2 ar  
     2    1    6 ar  
     3    1    7 1   
     4    2    3 ar  
     5    2   13 1   
     6    3    4 ar  
     7    3   11 1   
     8    4    5 ar  
     9    4   12 1   
    10    5    6 ar  
    11    5   14 1   
    12    6   15 1   
    13    7    8 1   
    14    7   16 1   
    15    7   17 1   
    16    8    9 1   
    17    8   10 1   
    18   11   18 1   
    19   12   19 1   
@<TRIPOS>SUBSTRUCTURE
     1 DHY         1 TEMP              0 ****  ****    0 ROOT
