@<TRIPOS>MOLECULE
DHY
   19    19     1     0     0
SMALL
bcc


@<TRIPOS>ATOM
      1 C1         -0.1300    0.0560    0.0770 ca        1 DHY     -0.014300
      2 C2          1.2110    0.4560    0.1490 ca        1 DHY     -0.162000
      3 C3          1.8830    0.4200    1.3710 ca        1 DHY      0.030100
      4 C4          1.2280   -0.0200    2.5390 ca        1 DHY      0.066100
      5 C5         -0.1120   -0.4150    2.4670 ca        1 DHY     -0.146000
      6 C6         -0.7770   -0.3720    1.2440 ca        1 DHY     -0.152000
      7 C7         -0.8380    0.0690   -1.2250 c3        1 DHY     -0.173100
      8 C8         -0.5730    1.3360   -2.0720 c         1 DHY      0.917600
      9 O1          0.6080    1.5580   -2.4720 o         1 DHY     -0.841800
     10 O2         -1.5640    2.0630   -2.3540 o         1 DHY     -0.841800
     11 O3          3.2080    0.8010    1.5090 oh        1 DHY     -0.542100
     12 O4          1.8580   -0.0910    3.7670 oh        1 DHY     -0.519100
     13 H2          1.7000    0.8310   -0.7720 ha        1 DHY      0.198000
     14 H5         -0.6220   -0.7500    3.3800 ha        1 DHY      0.128000
     15 H6         -1.8340   -0.6720    1.1960 ha        1 DHY      0.124000
     16 H71        -0.4910   -0.8090   -1.8300 hc        1 DHY      0.039200
     17 H72        -1.9420   -0.0280   -1.0670 hc        1 DHY      0.039200
     18 HO3         3.4620    1.2370    0.6820 ho        1 DHY      0.428000
     19 HO4         2.7330    0.3070    3.6600 ho        1 DHY      0.422000
@<TRIPOS>BOND
     1    1    2 ar  
     2    1    6 ar  
     3    1    7 1   
     4    2    3 ar  
     5    2   13 1   
     6    3    4 ar  
     7    3   11 1   
     8    4    5 ar  
     9    4   12 1   
    10    5    6 ar  
    11    5   14 1   
    12    6   15 1   
    13    7    8 1   
    14    7   16 1   
    15    7   17 1   
    16    8    9 1   
    17    8   10 1   
    18   11   18 1   
    19   12   19 1   
@<TRIPOS>SUBSTRUCTURE
     1 DHY         1 TEMP              0 ****  ****    0 ROOT
