@<TRIPOS>MOLECULE
DHZ
   30    31     1     0     0
SMALL
bcc


@<TRIPOS>ATOM
      1 N1          0.6280   -0.8780    1.0180 n         1 DHZ     -0.388000
      2 C2          1.9200   -0.2330    0.9680 c         1 DHZ      0.814500
      3 O2          2.2830    0.3530   -0.0630 o         1 DHZ     -0.694500
      4 N3          2.5750    0.0020    2.1660 n         1 DHZ     -0.569900
      5 C4          1.8040    0.4060    3.2930 c3        1 DHZ      0.149200
      6 C5          0.7140   -0.4970    3.5440 c2        1 DHZ     -0.273200
      7 C6          0.0200   -1.1100    2.3300 c2        1 DHZ     -0.000400
      8 C1'        -0.1480   -1.0070   -0.1550 c3        1 DHZ      0.273500
      9 C2'        -1.2990   -0.3800   -0.0120 c3        1 DHZ      0.141100
     10 O2'        -2.3430   -1.3230    0.4380 oh        1 DHZ     -0.578800
     11 C3'        -1.6370    0.1600   -1.4170 c3        1 DHZ      0.088100
     12 O3'        -2.6280   -0.5390   -1.9500 oh        1 DHZ     -0.597800
     13 C4'        -0.3260   -0.0130   -2.2690 c3        1 DHZ      0.063100
     14 O4'         0.6040   -0.2960   -1.4080 os        1 DHZ     -0.437600
     15 C5'        -0.0060    1.2760   -2.9890 c3        1 DHZ      0.113400
     16 O5'         0.6420    0.9930   -4.1950 oh        1 DHZ     -0.597800
     17 HN3         3.4970    0.0790    2.1830 hn        1 DHZ      0.339500
     18 H41         1.4990    1.3390    3.3950 h1        1 DHZ      0.042700
     19 H42         2.4520    0.3610    4.0390 h1        1 DHZ      0.042700
     20 H5          0.2850   -0.5060    4.3990 ha        1 DHZ      0.154000
     21 H6         -0.8890   -1.3890    2.3920 h4        1 DHZ      0.156000
     22 H1'        -0.3090   -1.9790   -0.3570 h2        1 DHZ      0.096700
     23 H2'        -1.2080    0.3630    0.6270 h1        1 DHZ      0.121700
     24 HO2        -2.9730   -0.8710    0.9250 ho        1 DHZ      0.421000
     25 H3'        -1.8800    1.1010   -1.3650 h1        1 DHZ      0.086700
     26 HO3        -3.2170    0.0230   -2.3350 ho        1 DHZ      0.416000
     27 H4'        -0.4280   -0.7260   -2.8930 h1        1 DHZ      0.083700
     28 H5'1       -0.8450    1.7640   -3.1720 h1        1 DHZ      0.061700
     29 H5'2        0.5670    1.8190   -2.4360 h1        1 DHZ      0.061700
     30 HO5         0.6460    1.7090   -4.7000 ho        1 DHZ      0.411000
@<TRIPOS>BOND
     1    1    2 1   
     2    1    7 1   
     3    1    8 1   
     4    2    3 2   
     5    2    4 1   
     6    4    5 1   
     7    4   17 1   
     8    5    6 1   
     9    5   18 1   
    10    5   19 1   
    11    6    7 2   
    12    6   20 1   
    13    7   21 1   
    14    8    9 1   
    15    8   14 1   
    16    8   22 1   
    17    9   10 1   
    18    9   11 1   
    19    9   23 1   
    20   10   24 1   
    21   11   12 1   
    22   11   13 1   
    23   11   25 1   
    24   12   26 1   
    25   13   14 1   
    26   13   15 1   
    27   13   27 1   
    28   15   16 1   
    29   15   28 1   
    30   15   29 1   
    31   16   30 1   
@<TRIPOS>SUBSTRUCTURE
     1 DHZ         1 TEMP              0 ****  ****    0 ROOT
