@<TRIPOS>MOLECULE
DHZ
   30    31     1     0     0
SMALL
bcc


@<TRIPOS>ATOM
      1 N1         -0.1130    0.2420   -0.1620 n         1 DHZ     -0.388000
      2 C2          1.2930    0.3080   -0.3810 c         1 DHZ      0.814500
      3 O2          1.7680    0.7450   -1.4590 o         1 DHZ     -0.693500
      4 N3          2.1620   -0.0950    0.6240 n         1 DHZ     -0.570900
      5 C4          1.7300   -0.5660    1.9130 c3        1 DHZ      0.150200
      6 C5          0.2510   -0.7240    2.0210 c2        1 DHZ     -0.270200
      7 C6         -0.5740   -0.3590    1.0200 c2        1 DHZ     -0.002400
      8 C1'        -1.0600    0.3980   -1.2530 c3        1 DHZ      0.278500
      9 C2'        -0.7450    1.5470   -2.2590 c3        1 DHZ      0.094100
     10 O2'        -1.8770    2.3660   -2.4300 oh        1 DHZ     -0.589800
     11 C3'        -0.3540    0.8280   -3.5700 c3        1 DHZ      0.089100
     12 O3'        -1.1710    1.2690   -4.6410 oh        1 DHZ     -0.597800
     13 C4'        -0.6560   -0.6610   -3.3430 c3        1 DHZ      0.098100
     14 O4'        -1.1960   -0.8100   -2.0200 os        1 DHZ     -0.442600
     15 C5'         0.5940   -1.5290   -3.4760 c3        1 DHZ      0.114400
     16 O5'         0.2950   -2.8910   -3.2560 oh        1 DHZ     -0.596800
     17 HN3         3.1300    0.0660    0.4720 hn        1 DHZ      0.340500
     18 H41         2.0850    0.1510    2.7130 h1        1 DHZ      0.043200
     19 H42         2.2280   -1.5620    2.1120 h1        1 DHZ      0.043200
     20 H5         -0.1270   -1.1490    2.9580 ha        1 DHZ      0.154000
     21 H6         -1.6700   -0.4860    1.0830 h4        1 DHZ      0.156000
     22 H1'        -2.0810    0.5620   -0.7890 h2        1 DHZ      0.094700
     23 H2'         0.0640    2.2360   -1.8960 h1        1 DHZ      0.125700
     24 HO2        -2.5450    1.8540   -2.9100 ho        1 DHZ      0.417000
     25 H3'         0.7320    0.9970   -3.8000 h1        1 DHZ      0.087700
     26 HO3        -1.0040    2.2150   -4.7460 ho        1 DHZ      0.418000
     27 H4'        -1.4640   -1.0280   -4.0350 h1        1 DHZ      0.098700
     28 H5'1        0.9830   -1.4800   -4.5280 h1        1 DHZ      0.063200
     29 H5'2        1.3850   -1.1800   -2.7570 h1        1 DHZ      0.063200
     30 HO5        -0.1350   -2.9500   -2.3920 ho        1 DHZ      0.409000
@<TRIPOS>BOND
     1    1    2 1   
     2    1    7 1   
     3    1    8 1   
     4    2    3 2   
     5    2    4 1   
     6    4    5 1   
     7    4   17 1   
     8    5    6 1   
     9    5   18 1   
    10    5   19 1   
    11    6    7 2   
    12    6   20 1   
    13    7   21 1   
    14    8    9 1   
    15    8   14 1   
    16    8   22 1   
    17    9   10 1   
    18    9   11 1   
    19    9   23 1   
    20   10   24 1   
    21   11   12 1   
    22   11   13 1   
    23   11   25 1   
    24   12   26 1   
    25   13   14 1   
    26   13   15 1   
    27   13   27 1   
    28   15   16 1   
    29   15   28 1   
    30   15   29 1   
    31   16   30 1   
@<TRIPOS>SUBSTRUCTURE
     1 DHZ         1 TEMP              0 ****  ****    0 ROOT
