@<TRIPOS>MOLECULE
DHZ
   30    31     1     0     0
SMALL
bcc


@<TRIPOS>ATOM
      1 N1         -0.4240    0.2790   -1.1800 n         1 DHZ     -0.388000
      2 C2          0.3640   -0.8980   -1.3220 c         1 DHZ      0.814500
      3 O2          0.3760   -1.7890   -0.4360 o         1 DHZ     -0.694500
      4 N3          1.1280   -1.0780   -2.4690 n         1 DHZ     -0.569900
      5 C4          1.1390   -0.1540   -3.5710 c3        1 DHZ      0.149200
      6 C5          0.3890    1.1060   -3.2980 c2        1 DHZ     -0.273200
      7 C6         -0.3090    1.2790   -2.1570 c2        1 DHZ     -0.000400
      8 C1'        -1.0330    0.6350    0.0910 c3        1 DHZ      0.273500
      9 C2'        -1.7540   -0.5330    0.8380 c3        1 DHZ      0.141100
     10 O2'        -3.0810   -0.1590    1.1140 oh        1 DHZ     -0.578800
     11 C3'        -0.8890   -0.7860    2.0910 c3        1 DHZ      0.088100
     12 O3'        -1.7400   -0.7270    3.2210 oh        1 DHZ     -0.597800
     13 C4'         0.1530    0.3480    2.1260 c3        1 DHZ      0.063100
     14 O4'        -0.0720    1.2020    0.9970 os        1 DHZ     -0.437600
     15 C5'         1.5870   -0.1770    2.0780 c3        1 DHZ      0.113400
     16 O5'         2.5180    0.8820    2.1620 oh        1 DHZ     -0.597800
     17 HN3         1.5630   -1.9620   -2.5820 hn        1 DHZ      0.339500
     18 H41         0.7000   -0.6530   -4.4880 h1        1 DHZ      0.042700
     19 H42         2.2160    0.0960   -3.8110 h1        1 DHZ      0.042700
     20 H5          0.4320    1.8790   -4.0730 ha        1 DHZ      0.154000
     21 H6         -0.8580    2.2130   -1.9380 h4        1 DHZ      0.156000
     22 H1'        -1.7710    1.4700   -0.1120 h2        1 DHZ      0.096700
     23 H2'        -1.8350   -1.4610    0.2090 h1        1 DHZ      0.121700
     24 HO2        -3.0860    0.3960    1.9060 ho        1 DHZ      0.421000
     25 H3'        -0.3900   -1.7890    2.0120 h1        1 DHZ      0.086700
     26 HO3        -1.2290   -1.0480    3.9730 ho        1 DHZ      0.416000
     27 H4'         0.0110    1.0080    3.0260 h1        1 DHZ      0.083700
     28 H5'1        1.7500   -0.7700    1.1380 h1        1 DHZ      0.061700
     29 H5'2        1.7920   -0.8180    2.9760 h1        1 DHZ      0.061700
     30 HO5         2.3140    1.4940    1.4430 ho        1 DHZ      0.411000
@<TRIPOS>BOND
     1    1    2 1   
     2    1    7 1   
     3    1    8 1   
     4    2    3 2   
     5    2    4 1   
     6    4    5 1   
     7    4   17 1   
     8    5    6 1   
     9    5   18 1   
    10    5   19 1   
    11    6    7 2   
    12    6   20 1   
    13    7   21 1   
    14    8    9 1   
    15    8   14 1   
    16    8   22 1   
    17    9   10 1   
    18    9   11 1   
    19    9   23 1   
    20   10   24 1   
    21   11   12 1   
    22   11   13 1   
    23   11   25 1   
    24   12   26 1   
    25   13   14 1   
    26   13   15 1   
    27   13   27 1   
    28   15   16 1   
    29   15   28 1   
    30   15   29 1   
    31   16   30 1   
@<TRIPOS>SUBSTRUCTURE
     1 DHZ         1 TEMP              0 ****  ****    0 ROOT
