@<TRIPOS>MOLECULE
DHZ
   30    31     1     0     0
SMALL
bcc


@<TRIPOS>ATOM
      1 N1         -0.0490    0.3690   -0.2010 n         1 DHZ     -0.383000
      2 C2          1.3680    0.2350   -0.3240 c         1 DHZ      0.810500
      3 O2          1.9590    0.4960   -1.4010 o         1 DHZ     -0.686500
      4 N3          2.1210   -0.1400    0.7800 ns        1 DHZ     -0.573900
      5 C4          1.5560   -0.4650    2.0620 c3        1 DHZ      0.150200
      6 C5          0.0660   -0.4330    2.0790 c2        1 DHZ     -0.265200
      7 C6         -0.6460   -0.0710    0.9930 c2        1 DHZ     -0.011400
      8 C1'        -0.8930    0.4110   -1.3870 c3        1 DHZ      0.278500
      9 C2'        -0.5000    1.4840   -2.4500 c3        1 DHZ      0.080100
     10 O2'        -1.4890    2.4930   -2.4950 oh        1 DHZ     -0.597800
     11 C3'        -0.5030    0.7340   -3.8000 c3        1 DHZ      0.136100
     12 O3'        -1.6130    1.0370   -4.6200 oh        1 DHZ     -0.589800
     13 C4'        -0.5980   -0.7570   -3.4350 c3        1 DHZ      0.099100
     14 O4'        -0.9370   -0.8650   -2.0430 os        1 DHZ     -0.436600
     15 C5'         0.7180   -1.4930   -3.6830 c3        1 DHZ      0.108400
     16 O5'         0.5960   -2.8670   -3.3780 oh        1 DHZ     -0.596800
     17 HN3         3.1060   -0.1630    0.6680 hn        1 DHZ      0.341500
     18 H41         1.9520    0.2600    2.8360 h1        1 DHZ      0.043700
     19 H42         1.9090   -1.4980    2.3610 h1        1 DHZ      0.043700
     20 H5         -0.4180   -0.7170    3.0200 ha        1 DHZ      0.154000
     21 H6         -1.7520   -0.0660    0.9920 h4        1 DHZ      0.156000
     22 H1'        -1.9530    0.6110   -1.0370 h2        1 DHZ      0.089700
     23 H2'         0.5130    1.9280   -2.2550 h1        1 DHZ      0.098700
     24 HO2        -1.3080    3.0960   -1.7640 ho        1 DHZ      0.418000
     25 H3'         0.4430    0.9600   -4.3620 h1        1 DHZ      0.065700
     26 HO3        -1.7650    1.9900   -4.5720 ho        1 DHZ      0.425000
     27 H4'        -1.4430   -1.2580   -3.9850 h1        1 DHZ      0.102700
     28 H5'1        0.9760   -1.4580   -4.7740 h1        1 DHZ      0.065700
     29 H5'2        1.5420   -1.0300   -3.0740 h1        1 DHZ      0.065700
     30 HO5         0.2890   -2.9260   -2.4640 ho        1 DHZ      0.409000
@<TRIPOS>BOND
     1    1    2 1   
     2    1    7 1   
     3    1    8 1   
     4    2    3 2   
     5    2    4 1   
     6    4    5 1   
     7    4   17 1   
     8    5    6 1   
     9    5   18 1   
    10    5   19 1   
    11    6    7 2   
    12    6   20 1   
    13    7   21 1   
    14    8    9 1   
    15    8   14 1   
    16    8   22 1   
    17    9   10 1   
    18    9   11 1   
    19    9   23 1   
    20   10   24 1   
    21   11   12 1   
    22   11   13 1   
    23   11   25 1   
    24   12   26 1   
    25   13   14 1   
    26   13   15 1   
    27   13   27 1   
    28   15   16 1   
    29   15   28 1   
    30   15   29 1   
    31   16   30 1   
@<TRIPOS>SUBSTRUCTURE
     1 DHZ         1 TEMP              0 ****  ****    0 ROOT
