@<TRIPOS>MOLECULE
DHZ
   30    31     1     0     0
SMALL
bcc


@<TRIPOS>ATOM
      1 N1         -0.0690    0.2970   -0.1930 n         1 DHZ     -0.389000
      2 C2          1.3430    0.2300   -0.3710 c         1 DHZ      0.813500
      3 O2          1.8830    0.5710   -1.4530 o         1 DHZ     -0.691500
      4 N3          2.1460   -0.1970    0.6780 n         1 DHZ     -0.570900
      5 C4          1.6400   -0.5670    1.9730 c3        1 DHZ      0.150200
      6 C5          0.1510   -0.5820    2.0460 c2        1 DHZ     -0.271200
      7 C6         -0.6120   -0.1960    1.0040 c2        1 DHZ     -0.001400
      8 C1'        -0.9670    0.4660   -1.3240 c3        1 DHZ      0.311500
      9 C2'        -0.5570    1.5770   -2.3320 c3        1 DHZ      0.089100
     10 O2'        -1.6890    2.4210   -2.4570 oh        1 DHZ     -0.605800
     11 C3'        -0.2680    0.8430   -3.6610 c3        1 DHZ      0.095100
     12 O3'        -1.0230    1.3910   -4.7180 oh        1 DHZ     -0.590800
     13 C4'        -0.6020   -0.6350   -3.4010 c3        1 DHZ      0.069100
     14 O4'        -1.1180   -0.7550   -2.0670 os        1 DHZ     -0.439600
     15 C5'         0.6190   -1.5420   -3.5490 c3        1 DHZ      0.114400
     16 O5'         0.2790   -2.8930   -3.3220 oh        1 DHZ     -0.597800
     17 HN3         3.1280   -0.1330    0.5470 hn        1 DHZ      0.340500
     18 H41         2.0410    0.1500    2.7520 h1        1 DHZ      0.043200
     19 H42         2.0370   -1.5950    2.2290 h1        1 DHZ      0.043200
     20 H5         -0.2890   -0.9190    2.9920 ha        1 DHZ      0.154000
     21 H6         -1.7170   -0.2170    1.0420 h4        1 DHZ      0.156000
     22 H1'        -1.9990    0.6860   -0.9080 h2        1 DHZ      0.104700
     23 H2'         0.3330    2.1690   -1.9940 h1        1 DHZ      0.096700
     24 HO2        -1.4570    3.0940   -3.1120 ho        1 DHZ      0.424000
     25 H3'         0.8060    0.9760   -3.9670 h1        1 DHZ      0.114700
     26 HO3        -1.9590    1.2800   -4.4970 ho        1 DHZ      0.413000
     27 H4'        -1.4320   -0.9970   -4.0700 h1        1 DHZ      0.083700
     28 H5'1        1.4300   -1.2170   -2.8420 h1        1 DHZ      0.065700
     29 H5'2        0.9940   -1.5070   -4.6060 h1        1 DHZ      0.065700
     30 HO5        -0.1240   -2.9390   -2.4460 ho        1 DHZ      0.409000
@<TRIPOS>BOND
     1    1    2 1   
     2    1    7 1   
     3    1    8 1   
     4    2    3 2   
     5    2    4 1   
     6    4    5 1   
     7    4   17 1   
     8    5    6 1   
     9    5   18 1   
    10    5   19 1   
    11    6    7 2   
    12    6   20 1   
    13    7   21 1   
    14    8    9 1   
    15    8   14 1   
    16    8   22 1   
    17    9   10 1   
    18    9   11 1   
    19    9   23 1   
    20   10   24 1   
    21   11   12 1   
    22   11   13 1   
    23   11   25 1   
    24   12   26 1   
    25   13   14 1   
    26   13   15 1   
    27   13   27 1   
    28   15   16 1   
    29   15   28 1   
    30   15   29 1   
    31   16   30 1   
@<TRIPOS>SUBSTRUCTURE
     1 DHZ         1 TEMP              0 ****  ****    0 ROOT
