@<TRIPOS>MOLECULE
DI
   33    35     1     0     0
SMALL
bcc


@<TRIPOS>ATOM
      1 OP3         1.3710   -1.0720   -5.7380 oh        1 DI      -0.781400
      2 P           1.8890   -2.1190   -4.5900 p5        1 DI       1.426800
      3 OP1         2.8980   -2.9240   -5.3120 o         1 DI      -0.842500
      4 OP2         0.7370   -2.6220   -3.8160 o         1 DI      -0.842500
      5 O5'         2.7040   -1.0350   -3.6520 os        1 DI      -0.585200
      6 C5'         1.9580   -0.2730   -2.7510 c3        1 DI       0.183400
      7 C4'         2.3670   -0.6180   -1.3110 c3        1 DI       0.086100
      8 O4'         2.4930    0.5890   -0.5450 os        1 DI      -0.439600
      9 C3'         1.3520   -1.5330   -0.5940 c3        1 DI       0.100100
     10 O3'         2.0060   -2.5560    0.1440 oh        1 DI      -0.607800
     11 C2'         0.5910   -0.5900    0.3390 c3        1 DI      -0.140400
     12 C1'         1.5690    0.5820    0.5790 c3        1 DI       0.271800
     13 N9          0.9470    1.8560    0.7730 nh        1 DI      -0.122600
     14 C8         -0.4030    2.2140    0.5180 c1        1 DI       0.045400
     15 N7         -0.6330    3.5020    0.8930 ne        1 DI      -0.618000
     16 C5          0.5590    3.9980    1.3950 cc        1 DI      -0.036600
     17 C6          0.9010    5.3000    1.9340 c         1 DI       0.722700
     18 O6          0.1760    6.3110    2.0750 o         1 DI      -0.707500
     19 N1          2.2450    5.4190    2.3600 n         1 DI      -0.500400
     20 C2          3.1440    4.3560    2.2590 cc        1 DI       0.361800
     21 N3          2.8900    3.1530    1.7800 nd        1 DI      -0.551300
     22 C4          1.5900    2.9750    1.3370 cd        1 DI      -0.005500
     23 H5'         2.1950    0.8140   -2.9300 h1        1 DI       0.045200
     24 H5''        0.8580   -0.4510   -2.9050 h1        1 DI       0.045200
     25 H4'         3.3900   -1.0870   -1.3180 h1        1 DI       0.062700
     26 H3'         0.6920   -2.0840   -1.3200 h1        1 DI       0.140700
     27 HO3'        2.6520   -2.1190    0.7120 ho        1 DI       0.380000
     28 H2'        -0.3510   -0.2260   -0.1470 hc        1 DI       0.079200
     29 H2''        0.3320   -1.0850    1.3040 hc        1 DI       0.079200
     30 H1'         2.2240    0.3660    1.4800 h2        1 DI       0.027700
     31 H8          2.0070   -0.9830   -6.4370 ho        1 DI       0.418000
     32 H1          2.5570    6.2900    2.7130 hn        1 DI       0.295500
     33 H2          4.1690    4.5590    2.6210 h5        1 DI       0.008800
@<TRIPOS>BOND
     1    1    2 1   
     2    1   31 1   
     3    2    3 1   
     4    2    4 1   
     5    2    5 1   
     6    5    6 1   
     7    6    7 1   
     8    6   23 1   
     9    6   24 1   
    10    7    8 1   
    11    7    9 1   
    12    7   25 1   
    13    8   12 1   
    14    9   10 1   
    15    9   11 1   
    16    9   26 1   
    17   10   27 1   
    18   11   12 1   
    19   11   28 1   
    20   11   29 1   
    21   12   13 1   
    22   12   30 1   
    23   13   14 2   
    24   13   22 1   
    25   14   15 2   
    26   15   16 1   
    27   16   17 1   
    28   16   22 2   
    29   17   18 2   
    30   17   19 1   
    31   19   20 1   
    32   19   32 1   
    33   20   21 2   
    34   20   33 1   
    35   21   22 1   
@<TRIPOS>SUBSTRUCTURE
     1 DI          1 TEMP              0 ****  ****    0 ROOT
