@<TRIPOS>MOLECULE
DI
   33    32     1     0     0
SMALL
bcc


@<TRIPOS>ATOM
      1 OP3        -0.3260   -1.8050    4.3180 o         1 DI      -0.922833
      2 P           0.8980   -2.3870    3.6120 p5        1 DI       1.558500
      3 OP1         1.8870   -2.9250    4.6610 o         1 DI      -0.922833
      4 OP2         0.4700   -3.5160    2.7020 o         1 DI      -0.922833
      5 O5'         1.5920   -1.2710    2.7650 os        1 DI      -0.739000
      6 C5'         0.9290   -0.7900    1.5970 c3        1 DI       0.051000
      7 C4'         1.8900   -0.8060    0.4270 c3        1 DI      -0.048000
      8 O4'         1.0750   -0.6980   -0.9650 os        1 DI      -0.293000
      9 C3'         2.6590    0.2140    0.4770 c3        1 DI       0.013000
     10 O3'         4.0110   -0.1200   -0.1180 oh        1 DI      -0.393000
     11 C2'         1.9420    1.3000   -0.3810 c3        1 DI      -0.197000
     12 C1'         0.8170    0.5520   -1.1340 c3        1 DI       0.161000
     13 N9         -0.4830    0.8870   -0.5580 n3        1 DI      -0.141000
     14 C8         -0.9040    1.9190    0.2570 c1        1 DI      -0.018000
     15 N7         -2.2100    2.1910   -0.0440 n2        1 DI      -0.115000
     16 C5         -2.6070    1.3260   -1.0500 c1        1 DI      -0.203000
     17 C6         -3.9260    1.1560   -1.7930 c1        1 DI       0.381000
     18 O6         -4.9010    1.8570   -1.4940 o         1 DI      -0.375000
     19 N1         -4.0440    0.1790   -2.7960 n3        1 DI      -0.348000
     20 C2         -2.9190   -0.6590   -3.1210 c2        1 DI       0.012000
     21 N3         -1.6630   -0.4970   -2.4150 n1        1 DI      -0.150000
     22 C4         -1.5360    0.5230   -1.3630 c1        1 DI      -0.041000
     23 H5'         0.1600   -1.3660    1.3980 h1        1 DI       0.055000
     24 H5''        0.6270    0.1090    1.7500 h1        1 DI       0.055000
     25 H4'         2.4170   -1.6190    0.4390 h1        1 DI       0.082000
     26 H3'         2.7600    0.5230    1.4030 h1        1 DI       0.195000
     27 HO3'        4.6580    0.1640    0.4320 ho        1 DI       0.284000
     28 H2'         2.5520    1.6880   -0.9990 hc        1 DI       0.090500
     29 H2''        1.5520    2.0000    0.2060 hc        1 DI       0.090500
     30 H1'         0.8350    0.7710   -2.0690 h2        1 DI       0.106000
     31 H8         -0.3550    2.3810    0.9470 DU        1 DI       0.311000
     32 H1         -4.8570    0.0730   -3.2580 hn        1 DI       0.226000
     33 H2         -3.0040   -1.3530   -3.8340 h5        1 DI       0.155000
@<TRIPOS>BOND
     1    1    2 1   
     2    2    3 1   
     3    2    4 1   
     4    2    5 1   
     5    5    6 1   
     6    6    7 1   
     7    6   23 1   
     8    6   24 1   
     9    7    8 1   
    10    7    9 1   
    11    7   25 1   
    12    8   12 1   
    13    9   10 1   
    14    9   11 1   
    15    9   26 1   
    16   10   27 1   
    17   11   12 1   
    18   11   28 1   
    19   11   29 1   
    20   12   13 1   
    21   12   30 1   
    22   13   14 1   
    23   13   22 1   
    24   14   15 1   
    25   15   16 1   
    26   16   22 1   
    27   17   18 1   
    28   17   19 1   
    29   19   20 1   
    30   19   32 1   
    31   20   21 1   
    32   20   33 1   
@<TRIPOS>SUBSTRUCTURE
     1 DI          1 TEMP              0 ****  ****    0 ROOT
