@<TRIPOS>MOLECULE
DI1
   71    75     1     0     0
SMALL
bcc


@<TRIPOS>ATOM
      1 C01        -0.6900    1.2470    1.4060 c3        1 DI1     -0.095100
      2 C02         0.5040    0.4590    0.8950 c3        1 DI1      0.169800
      3 N03         1.5910    0.3230    1.8570 n3        1 DI1     -0.730600
      4 C04         2.7600   -0.3020    1.2540 c3        1 DI1      0.167800
      5 C05         3.9250   -0.4860    2.2440 c3        1 DI1      0.169800
      6 N06         3.5200   -1.1510    3.4750 n3        1 DI1     -0.731600
      7 C07         2.3470   -0.5380    4.0770 c3        1 DI1      0.169800
      8 C08         1.1860   -0.3510    3.0820 c3        1 DI1      0.167800
      9 C09         4.6220   -1.3120    4.4140 c3        1 DI1      0.201100
     10 C10         4.5180   -2.5960    5.1970 ca        1 DI1      0.004700
     11 C11         3.7530   -2.6030    6.3710 ca        1 DI1     -0.141000
     12 C12         3.6230   -3.7590    7.1350 ca        1 DI1     -0.078000
     13 C13         4.2690   -4.9320    6.7330 ca        1 DI1     -0.155600
     14 C14         5.0560   -4.9330    5.5780 ca        1 DI1     -0.038000
     15 C15         5.1740   -3.7720    4.8080 ca        1 DI1     -0.158300
     16 C16         6.0550   -3.8260    3.5620 c3        1 DI1      0.690200
     17 F17         6.5290   -5.0780    3.2490 f         1 DI1     -0.234633
     18 F18         5.4550   -3.4090    2.4000 f         1 DI1     -0.234633
     19 F19         7.1940   -3.0580    3.6440 f         1 DI1     -0.234633
     20 C20         4.1830   -6.1940    7.5300 c         1 DI1      0.680700
     21 N21         2.9150   -6.5260    7.9880 ns        1 DI1     -0.467100
     22 C22         2.5550   -7.6590    8.7360 ca        1 DI1      0.086600
     23 C23         3.4960   -8.5040    9.3620 ca        1 DI1     -0.168000
     24 C24         3.0680   -9.5960   10.1080 ca        1 DI1     -0.088000
     25 C25         1.7150   -9.9000   10.2660 ca        1 DI1     -0.108300
     26 C26         1.2720  -11.0550   11.0760 c3        1 DI1     -0.042800
     27 C27         0.7820   -9.0520    9.6390 ca        1 DI1      0.128100
     28 C28         1.1780   -7.9480    8.8840 ca        1 DI1     -0.232000
     29 O29        -0.5590   -9.3380    9.8870 os        1 DI1     -0.246200
     30 C30        -1.4660   -8.9860    8.8890 ca        1 DI1      0.065100
     31 C31        -1.2470   -9.2820    7.5420 ca        1 DI1     -0.129000
     32 C32        -2.2350   -9.0170    6.5880 ca        1 DI1     -0.149000
     33 C33        -3.4370   -8.4600    7.0210 ca        1 DI1      0.046600
     34 C34        -3.6530   -8.1620    8.4100 ca        1 DI1     -0.133300
     35 C35        -5.0240   -7.5810    8.5650 c3        1 DI1     -0.103100
     36 C36        -5.5640   -7.5810    7.1250 c         1 DI1      0.699500
     37 N37        -4.5690   -8.1010    6.2720 ns        1 DI1     -0.481100
     38 O38        -6.6700   -7.1940    6.7370 o         1 DI1     -0.598500
     39 C39        -2.6750   -8.4160    9.3450 ca        1 DI1     -0.084000
     40 O40         5.1940   -6.8860    7.7450 o         1 DI1     -0.572100
     41 H011       -0.3740    2.2210    1.8500 hc        1 DI1      0.039367
     42 H012       -1.2540    0.6710    2.1790 hc        1 DI1      0.039367
     43 H013       -1.3760    1.4510    0.5490 hc        1 DI1      0.039367
     44 H021        0.1400   -0.5510    0.5390 h1        1 DI1      0.031200
     45 H022        0.9280    0.9980   -0.0010 h1        1 DI1      0.031200
     46 H041        3.1220    0.3700    0.4260 h1        1 DI1      0.039450
     47 H042        2.5110   -1.3060    0.8010 h1        1 DI1      0.039450
     48 H081        0.4090    0.2900    3.5860 h1        1 DI1      0.039450
     49 H082        0.7240   -1.3590    2.8720 h1        1 DI1      0.039450
     50 H051        4.6990   -1.1360    1.7440 h1        1 DI1      0.038950
     51 H052        4.3900    0.5220    2.4490 h1        1 DI1      0.038950
     52 H071        2.5910    0.4640    4.5390 h1        1 DI1      0.038950
     53 H072        1.9880   -1.2190    4.8990 h1        1 DI1      0.038950
     54 H091        4.6730   -0.4560    5.1530 h1        1 DI1      0.054200
     55 H092        5.5980   -1.3140    3.8460 h1        1 DI1      0.054200
     56 H11         3.2510   -1.6780    6.6930 ha        1 DI1      0.146000
     57 H12         3.0270   -3.7360    8.0600 ha        1 DI1      0.145000
     58 H14         5.5880   -5.8560    5.2860 ha        1 DI1      0.175000
     59 H21         2.1590   -5.9520    7.6850 hn        1 DI1      0.320500
     60 H23         4.5770   -8.3110    9.2620 ha        1 DI1      0.174000
     61 H28         0.4080   -7.3180    8.4130 ha        1 DI1      0.144000
     62 H24         3.8210  -10.2430   10.5870 ha        1 DI1      0.141000
     63 H261        0.3910  -11.5530   10.5990 hc        1 DI1      0.048367
     64 H262        0.9620  -10.7100   12.0950 hc        1 DI1      0.048367
     65 H263        2.0930  -11.8050   11.1900 hc        1 DI1      0.048367
     66 H31        -0.2880   -9.7230    7.2310 ha        1 DI1      0.154000
     67 H39        -2.8140   -8.2030   10.4140 ha        1 DI1      0.158000
     68 H32        -2.0590   -9.2520    5.5300 ha        1 DI1      0.146000
     69 H37        -4.6680   -8.2530    5.3030 hn        1 DI1      0.342500
     70 H351       -5.6830   -8.2090    9.2150 hc        1 DI1      0.096700
     71 H352       -5.0050   -6.5370    8.9620 hc        1 DI1      0.096700
@<TRIPOS>BOND
     1    1    2 1   
     2    1   41 1   
     3    1   42 1   
     4    1   43 1   
     5    2    3 1   
     6    2   44 1   
     7    2   45 1   
     8    3    4 1   
     9    3    8 1   
    10    4    5 1   
    11    4   46 1   
    12    4   47 1   
    13    5    6 1   
    14    5   50 1   
    15    5   51 1   
    16    6    7 1   
    17    6    9 1   
    18    7    8 1   
    19    7   52 1   
    20    7   53 1   
    21    8   48 1   
    22    8   49 1   
    23    9   10 1   
    24    9   54 1   
    25    9   55 1   
    26   10   11 ar  
    27   10   15 ar  
    28   11   12 ar  
    29   11   56 1   
    30   12   13 ar  
    31   12   57 1   
    32   13   14 ar  
    33   13   20 1   
    34   14   15 ar  
    35   14   58 1   
    36   15   16 1   
    37   16   17 1   
    38   16   18 1   
    39   16   19 1   
    40   20   21 1   
    41   20   40 2   
    42   21   22 1   
    43   21   59 1   
    44   22   23 ar  
    45   22   28 ar  
    46   23   24 ar  
    47   23   60 1   
    48   24   25 ar  
    49   24   62 1   
    50   25   26 1   
    51   25   27 ar  
    52   26   63 1   
    53   26   64 1   
    54   26   65 1   
    55   27   28 ar  
    56   27   29 1   
    57   28   61 1   
    58   29   30 1   
    59   30   31 ar  
    60   30   39 ar  
    61   31   32 ar  
    62   31   66 1   
    63   32   33 ar  
    64   32   68 1   
    65   33   34 ar  
    66   33   37 1   
    67   34   35 1   
    68   34   39 ar  
    69   35   36 1   
    70   35   70 1   
    71   35   71 1   
    72   36   37 1   
    73   36   38 2   
    74   37   69 1   
    75   39   67 1   
@<TRIPOS>SUBSTRUCTURE
     1 DI1         1 TEMP              0 ****  ****    0 ROOT
