@<TRIPOS>MOLECULE
DI1
   71    75     1     0     0
SMALL
bcc


@<TRIPOS>ATOM
      1 C01        -6.2220    5.6700    1.1530 c3        1 DI1     -0.095100
      2 C02        -6.8540    4.2990    1.3230 c3        1 DI1      0.168800
      3 N03        -6.4320    3.3160    0.3320 n3        1 DI1     -0.729600
      4 C04        -7.1920    2.0780    0.4560 c3        1 DI1      0.167300
      5 C05        -6.7590    1.0000   -0.5550 c3        1 DI1      0.169800
      6 N06        -5.3210    0.7660   -0.5490 n3        1 DI1     -0.731600
      7 C07        -4.5580    2.0010   -0.6650 c3        1 DI1      0.169800
      8 C08        -4.9960    3.0750    0.3470 c3        1 DI1      0.167300
      9 C09        -4.9200   -0.2340   -1.5280 c3        1 DI1      0.197100
     10 C10        -3.6310   -0.9210   -1.1630 ca        1 DI1     -0.002300
     11 C11        -2.5480   -0.8000   -2.0440 ca        1 DI1     -0.146000
     12 C12        -1.3350   -1.4320   -1.7850 ca        1 DI1     -0.080000
     13 C13        -1.1900   -2.2020   -0.6280 ca        1 DI1     -0.155600
     14 C14        -2.2660   -2.3450    0.2510 ca        1 DI1     -0.041000
     15 C15        -3.4820   -1.7050   -0.0110 ca        1 DI1     -0.150300
     16 C16        -4.6020   -1.8950    1.0140 c3        1 DI1      0.699200
     17 F17        -4.4540   -3.0190    1.7970 f         1 DI1     -0.234633
     18 F18        -4.7130   -0.8810    1.9310 f         1 DI1     -0.234633
     19 F19        -5.8640   -2.0450    0.4970 f         1 DI1     -0.234633
     20 C20         0.0810   -2.9220   -0.3120 c         1 DI1      0.680700
     21 N21         1.2460   -2.1910   -0.5040 n         1 DI1     -0.468100
     22 C22         2.5630   -2.6190   -0.2690 ca        1 DI1      0.086600
     23 C23         2.9090   -3.9690   -0.0470 ca        1 DI1     -0.167000
     24 C24         4.2380   -4.3260    0.1560 ca        1 DI1     -0.088000
     25 C25         5.2680   -3.3830    0.1500 ca        1 DI1     -0.108300
     26 C26         6.6780   -3.7780    0.3500 c3        1 DI1     -0.042800
     27 C27         4.9130   -2.0380   -0.0730 ca        1 DI1      0.128100
     28 C28         3.5910   -1.6470   -0.2800 ca        1 DI1     -0.232000
     29 O29         5.9740   -1.1380   -0.1550 os        1 DI1     -0.246200
     30 C30         5.7110    0.1720    0.2440 ca        1 DI1      0.066100
     31 C31         5.0300    0.4700    1.4260 ca        1 DI1     -0.129000
     32 C32         4.8920    1.7960    1.8490 ca        1 DI1     -0.149000
     33 C33         5.4550    2.8000    1.0650 ca        1 DI1      0.045600
     34 C34         6.1570    2.4820   -0.1480 ca        1 DI1     -0.133300
     35 C35         6.6480    3.7550   -0.7630 c3        1 DI1     -0.103100
     36 C36         6.1550    4.8280    0.2240 c         1 DI1      0.699500
     37 N37         5.4520    4.1910    1.2650 n         1 DI1     -0.481100
     38 O38         6.3200    6.0490    0.1500 o         1 DI1     -0.598500
     39 C39         6.2840    1.1760   -0.5650 ca        1 DI1     -0.084000
     40 O40         0.0680   -4.0950    0.1010 o         1 DI1     -0.572100
     41 H011       -6.3210    6.0360    0.1030 hc        1 DI1      0.039367
     42 H012       -6.7420    6.3890    1.8320 hc        1 DI1      0.039367
     43 H013       -5.1390    5.6520    1.4220 hc        1 DI1      0.039367
     44 H021       -6.6490    3.9390    2.3750 h1        1 DI1      0.031200
     45 H022       -7.9720    4.4080    1.2170 h1        1 DI1      0.031200
     46 H041       -7.1190    1.6450    1.4960 h1        1 DI1      0.040700
     47 H042       -8.2740    2.3170    0.2550 h1        1 DI1      0.040700
     48 H081       -4.4840    4.0370    0.0620 h1        1 DI1      0.040700
     49 H082       -4.6320    2.7760    1.3730 h1        1 DI1      0.040700
     50 H051       -7.2610    0.0350   -0.2630 h1        1 DI1      0.038950
     51 H052       -7.1280    1.2940   -1.5810 h1        1 DI1      0.038950
     52 H071       -3.4780    1.7540   -0.4650 h1        1 DI1      0.038950
     53 H072       -4.6280    2.4360   -1.7060 h1        1 DI1      0.038950
     54 H091       -5.7250   -1.0240   -1.5910 h1        1 DI1      0.055200
     55 H092       -4.8140    0.2150   -2.5620 h1        1 DI1      0.055200
     56 H11        -2.6580   -0.1950   -2.9590 ha        1 DI1      0.146000
     57 H12        -0.5060   -1.3320   -2.5020 ha        1 DI1      0.145000
     58 H14        -2.1520   -2.9820    1.1480 ha        1 DI1      0.174000
     59 H21         1.1440   -1.2320   -0.7550 hn        1 DI1      0.319500
     60 H23         2.1330   -4.7520   -0.0260 ha        1 DI1      0.174000
     61 H28         3.3680   -0.5820   -0.4480 ha        1 DI1      0.144000
     62 H24         4.4840   -5.3860    0.3290 ha        1 DI1      0.141000
     63 H261        7.1970   -3.8530   -0.6390 hc        1 DI1      0.048367
     64 H262        7.2160   -3.0120    0.9620 hc        1 DI1      0.048367
     65 H263        6.7490   -4.7680    0.8640 hc        1 DI1      0.048367
     66 H31         4.5960   -0.3450    2.0260 ha        1 DI1      0.154000
     67 H39         6.8190    0.9030   -1.4850 ha        1 DI1      0.158000
     68 H32         4.3560    2.0260    2.7800 ha        1 DI1      0.146000
     69 H37         5.0690    4.6390    2.0560 hn        1 DI1      0.342500
     70 H351        7.7630    3.7930   -0.8360 hc        1 DI1      0.096700
     71 H352        6.2070    3.9410   -1.7740 hc        1 DI1      0.096700
@<TRIPOS>BOND
     1    1    2 1   
     2    1   41 1   
     3    1   42 1   
     4    1   43 1   
     5    2    3 1   
     6    2   44 1   
     7    2   45 1   
     8    3    4 1   
     9    3    8 1   
    10    4    5 1   
    11    4   46 1   
    12    4   47 1   
    13    5    6 1   
    14    5   50 1   
    15    5   51 1   
    16    6    7 1   
    17    6    9 1   
    18    7    8 1   
    19    7   52 1   
    20    7   53 1   
    21    8   48 1   
    22    8   49 1   
    23    9   10 1   
    24    9   54 1   
    25    9   55 1   
    26   10   11 ar  
    27   10   15 ar  
    28   11   12 ar  
    29   11   56 1   
    30   12   13 ar  
    31   12   57 1   
    32   13   14 ar  
    33   13   20 1   
    34   14   15 ar  
    35   14   58 1   
    36   15   16 1   
    37   16   17 1   
    38   16   18 1   
    39   16   19 1   
    40   20   21 1   
    41   20   40 2   
    42   21   22 1   
    43   21   59 1   
    44   22   23 ar  
    45   22   28 ar  
    46   23   24 ar  
    47   23   60 1   
    48   24   25 ar  
    49   24   62 1   
    50   25   26 1   
    51   25   27 ar  
    52   26   63 1   
    53   26   64 1   
    54   26   65 1   
    55   27   28 ar  
    56   27   29 1   
    57   28   61 1   
    58   29   30 1   
    59   30   31 ar  
    60   30   39 ar  
    61   31   32 ar  
    62   31   66 1   
    63   32   33 ar  
    64   32   68 1   
    65   33   34 ar  
    66   33   37 1   
    67   34   35 1   
    68   34   39 ar  
    69   35   36 1   
    70   35   70 1   
    71   35   71 1   
    72   36   37 1   
    73   36   38 2   
    74   37   69 1   
    75   39   67 1   
@<TRIPOS>SUBSTRUCTURE
     1 DI1         1 TEMP              0 ****  ****    0 ROOT
