@<TRIPOS>MOLECULE
DI1
   71    69     1     0     0
SMALL
bcc


@<TRIPOS>ATOM
      1 C01         4.8730    9.4410   -1.6210 c3        1 DI1     -0.214000
      2 C02         3.9620    8.5010   -0.8210 c3        1 DI1     -0.066000
      3 N03         3.7170    7.2650   -1.6020 n3        1 DI1     -0.256000
      4 C04         2.3510    7.1940   -1.9510 c3        1 DI1     -0.068000
      5 C05         1.9950    5.8830   -2.6370 c3        1 DI1     -0.072000
      6 N06         2.4330    4.7370   -1.8910 n3        1 DI1     -0.259000
      7 C07         3.7950    4.8030   -1.5440 c3        1 DI1     -0.072000
      8 C08         4.1550    6.1250   -0.8550 c3        1 DI1     -0.068000
      9 C09         2.1800    3.5210   -2.6660 c3        1 DI1     -0.050000
     10 C10         1.6030    2.4020   -1.7160 c2        1 DI1      0.006000
     11 C11         0.6620    2.7310   -0.7390 c2        1 DI1     -0.128000
     12 C12         0.0590    1.7240    0.0200 c1        1 DI1     -0.054000
     13 C13         0.4000    0.3840   -0.1990 c1        1 DI1     -0.137000
     14 C14         1.3370    0.0560   -1.1730 c1        1 DI1     -0.063000
     15 C15         1.9410    1.0650   -1.9340 c1        1 DI1     -0.174000
     16 C16         2.9440    0.6900   -3.0670 c3        1 DI1      0.467000
     17 F17         3.2120   -0.5960   -3.0050 f         1 DI1     -0.165000
     18 F18         2.4040    0.9750   -4.2550 f         1 DI1     -0.165000
     19 F19         4.0640    1.3830   -2.9130 f         1 DI1     -0.165000
     20 C20        -0.1180   -0.6920    0.7440 c2        1 DI1      0.355000
     21 N21         0.2290   -2.0720    0.5210 n         1 DI1     -0.321000
     22 C22        -0.2290   -3.0770    1.4230 c2        1 DI1      0.095000
     23 C23        -0.1830   -2.8520    2.7850 c2        1 DI1     -0.169000
     24 C24        -0.6040   -3.8390    3.6670 c1        1 DI1     -0.088000
     25 C25        -1.0740   -5.0610    3.1760 c1        1 DI1     -0.102000
     26 C26        -1.4470   -6.1790    4.1430 c3        1 DI1     -0.168000
     27 C27        -1.1200   -5.2840    1.8090 c1        1 DI1      0.084000
     28 C28        -0.6990   -4.2970    0.9310 c1        1 DI1     -0.232000
     29 O29        -1.6440   -6.5160    1.3050 os        1 DI1     -0.156000
     30 C30        -3.0090   -6.3350    0.9200 c2        1 DI1      0.019000
     31 C31        -3.5010   -5.3190    0.1000 c2        1 DI1     -0.128000
     32 C32        -4.8740   -5.1030    0.0020 c1        1 DI1     -0.150000
     33 C33        -5.7620   -5.9060    0.7270 c1        1 DI1      0.055000
     34 C34        -5.2710   -6.9230    1.5480 c1        1 DI1     -0.126000
     35 C35        -6.4030   -7.3530    2.5040 c2        1 DI1     -0.139000
     36 C36        -7.6540   -6.8420    1.8040 c2        1 DI1      0.307000
     37 N37        -7.2350   -6.0330    0.6760 n         1 DI1     -0.336000
     38 O38        -8.8200   -7.0110    2.1850 o         1 DI1     -0.323000
     39 C39        -3.8890   -7.1370    1.6440 c2        1 DI1     -0.082000
     40 O40        -0.8140   -0.3770    1.7210 o         1 DI1     -0.338000
     41 H011        5.7630    9.0280   -1.7260 hc        1 DI1      0.079333
     42 H012        4.9600   10.2820   -1.1500 hc        1 DI1      0.079333
     43 H013        4.4860    9.5990   -2.4940 hc        1 DI1      0.079333
     44 H021        3.1010    8.9540   -0.6440 h1        1 DI1      0.070000
     45 H022        4.4070    8.2640    0.0580 h1        1 DI1      0.070000
     46 H041        1.8310    7.2780   -1.1680 h1        1 DI1      0.078000
     47 H042        2.1350    7.9460   -2.5620 h1        1 DI1      0.078000
     48 H081        3.7230    6.1450    0.0550 h1        1 DI1      0.078000
     49 H082        5.1060    6.1700   -0.7490 h1        1 DI1      0.078000
     50 H051        2.4310    5.8630   -3.5470 h1        1 DI1      0.081500
     51 H052        1.0220    5.8370   -2.7480 h1        1 DI1      0.081500
     52 H071        4.3210    4.7130   -2.3380 h1        1 DI1      0.081500
     53 H072        4.0030    4.0700   -0.9470 h1        1 DI1      0.081500
     54 H091        1.5310    3.7160   -3.3730 h1        1 DI1      0.099500
     55 H092        3.0480    3.1970   -3.0830 h1        1 DI1      0.099500
     56 H11         0.4230    3.6690   -0.5850 ha        1 DI1      0.169000
     57 H12        -0.6210    1.9630    0.7260 ha        1 DI1      0.162000
     58 H14         1.5790   -0.8960   -1.3290 ha        1 DI1      0.157000
     59 H21         0.7110   -2.2980   -0.1910 hn        1 DI1      0.235000
     60 H23         0.1460   -1.9990    3.1280 ha        1 DI1      0.174000
     61 H28        -0.7300   -4.4550   -0.0330 ha        1 DI1      0.145000
     62 H24        -0.5710   -3.6790    4.6350 ha        1 DI1      0.140000
     63 H261       -0.9470   -6.9990    3.9060 hc        1 DI1      0.087333
     64 H262       -1.2180   -5.9090    5.0620 hc        1 DI1      0.087333
     65 H263       -2.4090   -6.3530    4.0840 hc        1 DI1      0.087333
     66 H31        -2.8840   -4.7550   -0.4000 ha        1 DI1      0.153000
     67 H39        -3.5470   -7.9140    2.1430 ha        1 DI1      0.158000
     68 H32        -5.2120   -4.3980   -0.5670 ha        1 DI1      0.145000
     69 H37        -7.7920   -5.6030    0.0840 hn        1 DI1      0.256000
     70 H351       -6.3720   -7.1750    3.4840 ha        1 DI1      0.136500
     71 H352       -6.3910   -8.3380    2.5020 ha        1 DI1      0.136500
@<TRIPOS>BOND
     1    1    2 1   
     2    1   41 1   
     3    1   42 1   
     4    1   43 1   
     5    2    3 1   
     6    2   44 1   
     7    2   45 1   
     8    3    4 1   
     9    3    8 1   
    10    4    5 1   
    11    4   46 1   
    12    4   47 1   
    13    5    6 1   
    14    5   50 1   
    15    5   51 1   
    16    6    7 1   
    17    6    9 1   
    18    7    8 1   
    19    7   52 1   
    20    7   53 1   
    21    8   48 1   
    22    8   49 1   
    23    9   10 1   
    24    9   54 1   
    25    9   55 1   
    26   10   11 1   
    27   10   15 1   
    28   11   12 1   
    29   11   56 1   
    30   12   57 1   
    31   13   14 1   
    32   13   20 1   
    33   14   58 1   
    34   15   16 1   
    35   16   17 1   
    36   16   18 1   
    37   16   19 1   
    38   20   21 1   
    39   20   40 1   
    40   21   22 1   
    41   21   59 1   
    42   22   23 1   
    43   22   28 1   
    44   23   24 1   
    45   23   60 1   
    46   24   62 1   
    47   25   26 1   
    48   25   27 1   
    49   26   63 1   
    50   26   64 1   
    51   26   65 1   
    52   27   29 1   
    53   28   61 1   
    54   29   30 1   
    55   30   31 1   
    56   30   39 1   
    57   31   32 1   
    58   31   66 1   
    59   32   68 1   
    60   33   34 1   
    61   33   37 1   
    62   34   39 1   
    63   35   36 1   
    64   35   70 1   
    65   35   71 1   
    66   36   37 1   
    67   36   38 1   
    68   37   69 1   
    69   39   67 1   
@<TRIPOS>SUBSTRUCTURE
     1 DI1         1 TEMP              0 ****  ****    0 ROOT
