@<TRIPOS>MOLECULE
DI1
   72    76     1     0     0
SMALL
bcc


@<TRIPOS>ATOM
      1 C01        -0.1010   -0.7040   -0.4010 c3        1 DI1     -0.098100
      2 C02         0.4420   -1.9740    0.2330 c3        1 DI1      0.171800
      3 N03         1.4620   -1.7510    1.2500 n3        1 DI1     -0.731600
      4 C04         2.0500   -3.0000    1.7090 c3        1 DI1      0.170800
      5 C05         3.1460   -2.7840    2.7700 c3        1 DI1      0.164800
      6 N06         2.7050   -1.9470    3.8790 n3        1 DI1     -0.744600
      7 C07         2.0900   -0.7040    3.4280 c3        1 DI1      0.164800
      8 C08         1.0040   -0.9260    2.3560 c3        1 DI1      0.170800
      9 C09         3.7590   -1.7170    4.8520 c3        1 DI1      0.181100
     10 C10         3.9100   -2.8070    5.8790 ca        1 DI1      0.059700
     11 C11         2.8870   -3.7440    6.1140 ca        1 DI1     -0.122000
     12 C12         3.0180   -4.7220    7.0890 ca        1 DI1     -0.065000
     13 C13         4.1870   -4.7870    7.8640 ca        1 DI1     -0.218600
     14 C14         5.2230   -3.8670    7.6330 ca        1 DI1      0.000000
     15 C15         5.0780   -2.8810    6.6580 ca        1 DI1     -0.188300
     16 C16         6.2370   -1.8960    6.4580 c3        1 DI1      0.691200
     17 F17         7.2140   -1.9780    7.4180 f         1 DI1     -0.220967
     18 F18         6.9070   -2.0600    5.2720 f         1 DI1     -0.220967
     19 F19         5.8590   -0.5770    6.4730 f         1 DI1     -0.220967
     20 C20         4.4180   -5.7930    8.8940 c         1 DI1      0.586700
     21 N21         3.1870   -6.4070    9.5520 n4        1 DI1     -0.543200
     22 C22         2.7060   -7.5930    8.8360 ca        1 DI1     -0.038400
     23 C23         3.5760   -8.6670    8.6090 ca        1 DI1     -0.118000
     24 C24         3.0970   -9.8010    7.9490 ca        1 DI1     -0.093000
     25 C25         1.7760   -9.8910    7.5170 ca        1 DI1     -0.028300
     26 C26         1.2650  -11.0900    6.8190 c3        1 DI1     -0.067800
     27 C27         0.9120   -8.7910    7.7630 ca        1 DI1      0.147100
     28 C28         1.3640   -7.6430    8.4140 ca        1 DI1     -0.195000
     29 O29        -0.3790   -8.9520    7.3010 os        1 DI1     -0.220200
     30 C30        -1.2890   -7.9320    7.6070 ca        1 DI1     -0.003900
     31 C31        -1.5720   -6.9780    6.6260 ca        1 DI1     -0.084000
     32 C32        -2.5890   -6.0410    6.8290 ca        1 DI1     -0.171000
     33 C33        -3.3050   -6.0890    8.0270 ca        1 DI1      0.086600
     34 C34        -3.0060   -7.0840    9.0250 ca        1 DI1     -0.144300
     35 C35        -3.9460   -6.9020   10.1750 c3        1 DI1     -0.106100
     36 C36        -4.7990   -5.7010    9.7370 c         1 DI1      0.697500
     37 N37        -4.3430   -5.2650    8.4670 n         1 DI1     -0.478100
     38 O38        -5.7200   -5.1650   10.3530 o         1 DI1     -0.558500
     39 C39        -2.0050   -8.0060    8.8190 ca        1 DI1     -0.075000
     40 O40         5.4810   -6.1900    9.3530 o         1 DI1     -0.430100
     41 H011       -0.7240   -0.9870   -1.2840 hc        1 DI1      0.045033
     42 H012       -0.7420   -0.1370    0.3150 hc        1 DI1      0.045033
     43 H013        0.7250   -0.0370   -0.7460 hc        1 DI1      0.045033
     44 H021        0.9220   -2.5980   -0.5760 h1        1 DI1      0.032700
     45 H022       -0.4260   -2.5680    0.6470 h1        1 DI1      0.032700
     46 H041        1.2720   -3.7030    2.1280 h1        1 DI1      0.041450
     47 H042        2.5300   -3.5040    0.8230 h1        1 DI1      0.041450
     48 H081        0.7300    0.0850    1.9430 h1        1 DI1      0.041450
     49 H082        0.0880   -1.3600    2.8530 h1        1 DI1      0.041450
     50 H051        3.4240   -3.7900    3.1920 h1        1 DI1      0.044200
     51 H052        4.0590   -2.3550    2.2620 h1        1 DI1      0.044200
     52 H071        2.8600    0.0120    3.0180 h1        1 DI1      0.044200
     53 H072        1.5980   -0.2180    4.3170 h1        1 DI1      0.044200
     54 H091        4.7660   -1.5670    4.3510 h1        1 DI1      0.079700
     55 H092        3.5380   -0.7690    5.4320 h1        1 DI1      0.079700
     56 H11         1.9620   -3.7040    5.5100 ha        1 DI1      0.189000
     57 H12         2.2060   -5.4570    7.2200 ha        1 DI1      0.144000
     58 H14         6.1550   -3.9270    8.2280 ha        1 DI1      0.184000
     59 H21         3.4370   -6.6950   10.5090 hn        1 DI1      0.462300
     60 H23         4.6280   -8.6330    8.9380 ha        1 DI1      0.168000
     61 H28         0.6630   -6.8110    8.5940 ha        1 DI1      0.162000
     62 H24         3.7860  -10.6460    7.7710 ha        1 DI1      0.173000
     63 H261        2.0490  -11.8810    6.7350 hc        1 DI1      0.072700
     64 H262        0.9170  -10.8120    5.7910 hc        1 DI1      0.072700
     65 H263        0.3840  -11.5060    7.3720 hc        1 DI1      0.072700
     66 H31        -1.0090   -6.9820    5.6800 ha        1 DI1      0.153000
     67 H39        -1.7760   -8.7910    9.5540 ha        1 DI1      0.158000
     68 H32        -2.8220   -5.2990    6.0520 ha        1 DI1      0.157000
     69 H37        -4.7830   -4.5750    7.9140 hn        1 DI1      0.351500
     70 H351       -4.6040   -7.7930   10.3330 hc        1 DI1      0.104200
     71 H352       -3.4190   -6.6640   11.1320 hc        1 DI1      0.104200
     72 H212        2.4390   -5.7060    9.5940 hn        1 DI1      0.462300
@<TRIPOS>BOND
     1    1    2 1   
     2    1   41 1   
     3    1   42 1   
     4    1   43 1   
     5    2    3 1   
     6    2   44 1   
     7    2   45 1   
     8    3    4 1   
     9    3    8 1   
    10    4    5 1   
    11    4   46 1   
    12    4   47 1   
    13    5    6 1   
    14    5   50 1   
    15    5   51 1   
    16    6    7 1   
    17    6    9 1   
    18    7    8 1   
    19    7   52 1   
    20    7   53 1   
    21    8   48 1   
    22    8   49 1   
    23    9   10 1   
    24    9   54 1   
    25    9   55 1   
    26   10   11 ar  
    27   10   15 ar  
    28   11   12 ar  
    29   11   56 1   
    30   12   13 ar  
    31   12   57 1   
    32   13   14 ar  
    33   13   20 1   
    34   14   15 ar  
    35   14   58 1   
    36   15   16 1   
    37   16   17 1   
    38   16   18 1   
    39   16   19 1   
    40   20   21 1   
    41   20   40 2   
    42   21   22 1   
    43   21   59 1   
    44   21   72 1   
    45   22   23 ar  
    46   22   28 ar  
    47   23   24 ar  
    48   23   60 1   
    49   24   25 ar  
    50   24   62 1   
    51   25   26 1   
    52   25   27 ar  
    53   26   63 1   
    54   26   64 1   
    55   26   65 1   
    56   27   28 ar  
    57   27   29 1   
    58   28   61 1   
    59   29   30 1   
    60   30   31 ar  
    61   30   39 ar  
    62   31   32 ar  
    63   31   66 1   
    64   32   33 ar  
    65   32   68 1   
    66   33   34 ar  
    67   33   37 1   
    68   34   35 1   
    69   34   39 ar  
    70   35   36 1   
    71   35   70 1   
    72   35   71 1   
    73   36   37 1   
    74   36   38 2   
    75   37   69 1   
    76   39   67 1   
@<TRIPOS>SUBSTRUCTURE
     1 DI1         1 TEMP              0 ****  ****    0 ROOT
