@<TRIPOS>MOLECULE
DI1
   71    75     1     0     0
SMALL
bcc


@<TRIPOS>ATOM
      1 C01        -0.6930    1.2190    1.3700 c3        1 DI1     -0.095100
      2 C02         0.5080    0.4360    0.8670 c3        1 DI1      0.169800
      3 N03         1.5900    0.3070    1.8360 n3        1 DI1     -0.730600
      4 C04         2.7660   -0.3140    1.2400 c3        1 DI1      0.167800
      5 C05         3.9260   -0.4900    2.2370 c3        1 DI1      0.169800
      6 N06         3.5180   -1.1540    3.4670 n3        1 DI1     -0.731600
      7 C07         2.3370   -0.5460    4.0610 c3        1 DI1      0.169800
      8 C08         1.1820   -0.3670    3.0590 c3        1 DI1      0.167800
      9 C09         4.6150   -1.3060    4.4130 c3        1 DI1      0.201100
     10 C10         4.5120   -2.5890    5.1990 ca        1 DI1      0.004700
     11 C11         3.7410   -2.5960    6.3690 ca        1 DI1     -0.141000
     12 C12         3.6130   -3.7500    7.1370 ca        1 DI1     -0.078000
     13 C13         4.2660   -4.9210    6.7420 ca        1 DI1     -0.155600
     14 C14         5.0580   -4.9230    5.5910 ca        1 DI1     -0.037000
     15 C15         5.1750   -3.7630    4.8180 ca        1 DI1     -0.158300
     16 C16         6.0630   -3.8170    3.5760 c3        1 DI1      0.690200
     17 F17         6.5440   -5.0680    3.2690 f         1 DI1     -0.234633
     18 F18         5.4670   -3.4060    2.4100 f         1 DI1     -0.234633
     19 F19         7.1980   -3.0440    3.6620 f         1 DI1     -0.234633
     20 C20         4.1820   -6.1810    7.5420 c         1 DI1      0.680700
     21 N21         2.9130   -6.5170    7.9970 n         1 DI1     -0.467100
     22 C22         2.5550   -7.6490    8.7480 ca        1 DI1      0.086600
     23 C23         3.4970   -8.4890    9.3770 ca        1 DI1     -0.168000
     24 C24         3.0700   -9.5810   10.1260 ca        1 DI1     -0.088000
     25 C25         1.7170   -9.8880   10.2820 ca        1 DI1     -0.108300
     26 C26         1.2760  -11.0420   11.0940 c3        1 DI1     -0.042800
     27 C27         0.7830   -9.0430    9.6510 ca        1 DI1      0.128100
     28 C28         1.1780   -7.9410    8.8940 ca        1 DI1     -0.232000
     29 O29        -0.5570   -9.3320    9.8970 os        1 DI1     -0.246200
     30 C30        -1.4640   -8.9830    8.8980 ca        1 DI1      0.065100
     31 C31        -1.2430   -9.2800    7.5520 ca        1 DI1     -0.129000
     32 C32        -2.2310   -9.0190    6.5960 ca        1 DI1     -0.149000
     33 C33        -3.4330   -8.4630    7.0270 ca        1 DI1      0.046600
     34 C34        -3.6510   -8.1630    8.4150 ca        1 DI1     -0.133300
     35 C35        -5.0230   -7.5840    8.5680 c3        1 DI1     -0.103100
     36 C36        -5.5610   -7.5870    7.1270 c         1 DI1      0.699500
     37 N37        -4.5660   -8.1060    6.2760 n         1 DI1     -0.481100
     38 O38        -6.6680   -7.2020    6.7380 o         1 DI1     -0.598500
     39 C39        -2.6740   -8.4140    9.3510 ca        1 DI1     -0.084000
     40 O40         5.1940   -6.8680    7.7630 o         1 DI1     -0.573100
     41 H011       -1.2580    0.6410    2.1390 hc        1 DI1      0.039367
     42 H012       -1.3750    1.4180    0.5080 hc        1 DI1      0.039367
     43 H013       -0.3840    2.1950    1.8140 hc        1 DI1      0.039367
     44 H021        0.9350    0.9750   -0.0270 h1        1 DI1      0.031200
     45 H022        0.1510   -0.5760    0.5100 h1        1 DI1      0.031200
     46 H041        3.1300    0.3590    0.4130 h1        1 DI1      0.039450
     47 H042        2.5240   -1.3200    0.7880 h1        1 DI1      0.039450
     48 H081        0.3980    0.2700    3.5570 h1        1 DI1      0.039450
     49 H082        0.7260   -1.3780    2.8480 h1        1 DI1      0.039450
     50 H051        4.3840    0.5210    2.4430 h1        1 DI1      0.038950
     51 H052        4.7060   -1.1370    1.7440 h1        1 DI1      0.038950
     52 H071        1.9780   -1.2280    4.8820 h1        1 DI1      0.038950
     53 H072        2.5730    0.4580    4.5230 h1        1 DI1      0.038950
     54 H091        4.6570   -0.4490    5.1500 h1        1 DI1      0.054200
     55 H092        5.5940   -1.3060    3.8500 h1        1 DI1      0.054200
     56 H11         3.2330   -1.6710    6.6860 ha        1 DI1      0.146000
     57 H12         3.0120   -3.7260    8.0590 ha        1 DI1      0.145000
     58 H14         5.5960   -5.8440    5.3040 ha        1 DI1      0.175000
     59 H21         2.1560   -5.9460    7.6900 hn        1 DI1      0.320500
     60 H23         4.5770   -8.2940    9.2790 ha        1 DI1      0.174000
     61 H28         0.4080   -7.3130    8.4200 ha        1 DI1      0.144000
     62 H24         3.8240  -10.2240   10.6070 ha        1 DI1      0.141000
     63 H261        0.9640  -10.6950   12.1110 hc        1 DI1      0.048367
     64 H262        2.0980  -11.7890   11.2100 hc        1 DI1      0.048367
     65 H263        0.3970  -11.5420   10.6170 hc        1 DI1      0.048367
     66 H31        -0.2820   -9.7200    7.2420 ha        1 DI1      0.154000
     67 H39        -2.8150   -8.2000   10.4200 ha        1 DI1      0.158000
     68 H32        -2.0530   -9.2550    5.5380 ha        1 DI1      0.146000
     69 H37        -4.6630   -8.2600    5.3070 hn        1 DI1      0.342500
     70 H351       -5.6820   -8.2110    9.2180 hc        1 DI1      0.096700
     71 H352       -5.0060   -6.5390    8.9630 hc        1 DI1      0.096700
@<TRIPOS>BOND
     1    1    2 1   
     2    1   41 1   
     3    1   42 1   
     4    1   43 1   
     5    2    3 1   
     6    2   44 1   
     7    2   45 1   
     8    3    4 1   
     9    3    8 1   
    10    4    5 1   
    11    4   46 1   
    12    4   47 1   
    13    5    6 1   
    14    5   50 1   
    15    5   51 1   
    16    6    7 1   
    17    6    9 1   
    18    7    8 1   
    19    7   52 1   
    20    7   53 1   
    21    8   48 1   
    22    8   49 1   
    23    9   10 1   
    24    9   54 1   
    25    9   55 1   
    26   10   11 ar  
    27   10   15 ar  
    28   11   12 ar  
    29   11   56 1   
    30   12   13 ar  
    31   12   57 1   
    32   13   14 ar  
    33   13   20 1   
    34   14   15 ar  
    35   14   58 1   
    36   15   16 1   
    37   16   17 1   
    38   16   18 1   
    39   16   19 1   
    40   20   21 1   
    41   20   40 2   
    42   21   22 1   
    43   21   59 1   
    44   22   23 ar  
    45   22   28 ar  
    46   23   24 ar  
    47   23   60 1   
    48   24   25 ar  
    49   24   62 1   
    50   25   26 1   
    51   25   27 ar  
    52   26   63 1   
    53   26   64 1   
    54   26   65 1   
    55   27   28 ar  
    56   27   29 1   
    57   28   61 1   
    58   29   30 1   
    59   30   31 ar  
    60   30   39 ar  
    61   31   32 ar  
    62   31   66 1   
    63   32   33 ar  
    64   32   68 1   
    65   33   34 ar  
    66   33   37 1   
    67   34   35 1   
    68   34   39 ar  
    69   35   36 1   
    70   35   70 1   
    71   35   71 1   
    72   36   37 1   
    73   36   38 2   
    74   37   69 1   
    75   39   67 1   
@<TRIPOS>SUBSTRUCTURE
     1 DI1         1 TEMP              0 ****  ****    0 ROOT
