@<TRIPOS>MOLECULE
DI6
   19    19     1     0     0
SMALL
bcc


@<TRIPOS>ATOM
      1 N1          0.0380   -0.1650   -0.0470 n         1 DI6     -0.633500
      2 C2          1.3700    0.2440    0.0790 c         1 DI6      0.685500
      3 O2          2.0640    0.6960   -0.8390 o         1 DI6     -0.626500
      4 C3          1.7610    0.0470    1.5700 c3        1 DI6     -0.000300
      5 N4          0.5210   -0.4010    2.2270 n         1 DI6     -0.494900
      6 C5         -0.4600   -0.6100    1.2230 c         1 DI6      0.777500
      7 O5         -1.6280   -1.0140    1.3660 o         1 DI6     -0.637500
      8 C6          2.9580   -0.8930    1.6820 c3        1 DI6     -0.069400
      9 C7          3.4630   -1.0110    3.1010 c3        1 DI6     -0.207400
     10 C8          2.9030   -2.2370    3.8420 c         1 DI6      0.909600
     11 O9          1.7170   -2.6180    3.5900 o         1 DI6     -0.841800
     12 O10         3.6520   -2.8060    4.6810 o         1 DI6     -0.841800
     13 HN1        -0.4930   -0.1800   -0.8750 hn        1 DI6      0.336500
     14 H3          2.0260    1.0550    2.0000 h1        1 DI6      0.084700
     15 HN4         0.6400   -1.1540    2.9030 hn        1 DI6      0.385500
     16 H61         3.7610   -0.4830    1.0140 hc        1 DI6      0.052200
     17 H62         2.6780   -1.9120    1.3060 hc        1 DI6      0.052200
     18 H71         4.5800   -1.0930    3.0910 hc        1 DI6      0.035700
     19 H72         3.1960   -0.1020    3.6970 hc        1 DI6      0.035700
@<TRIPOS>BOND
     1    1    2 1   
     2    1    6 1   
     3    1   13 1   
     4    2    3 2   
     5    2    4 1   
     6    4    5 1   
     7    4    8 1   
     8    4   14 1   
     9    5    6 1   
    10    5   15 1   
    11    6    7 2   
    12    8    9 1   
    13    8   16 1   
    14    8   17 1   
    15    9   10 1   
    16    9   18 1   
    17    9   19 1   
    18   10   11 1   
    19   10   12 1   
@<TRIPOS>SUBSTRUCTURE
     1 DI6         1 TEMP              0 ****  ****    0 ROOT
