@<TRIPOS>MOLECULE
DI6
   19    19     1     0     0
SMALL
bcc


@<TRIPOS>ATOM
      1 N1         -0.0170   -0.1220    0.0290 n         1 DI6     -0.633500
      2 C2          1.3190    0.2830    0.1220 c         1 DI6      0.685500
      3 O2          1.9830    0.7580   -0.8070 o         1 DI6     -0.626500
      4 C3          1.7580    0.0500    1.5940 c3        1 DI6     -0.000300
      5 N4          0.5390   -0.4150    2.2800 n         1 DI6     -0.494900
      6 C5         -0.4750   -0.5980    1.3030 c         1 DI6      0.777500
      7 O5         -1.6370   -1.0050    1.4740 o         1 DI6     -0.638500
      8 C6          2.9570   -0.8930    1.6450 c3        1 DI6     -0.069400
      9 C7          3.5070   -1.0460    3.0430 c3        1 DI6     -0.207400
     10 C8          2.9690   -2.2880    3.7740 c         1 DI6      0.909600
     11 O9          1.7770   -2.6640    3.5470 o         1 DI6     -0.841800
     12 O10         3.7420   -2.8740    4.5780 o         1 DI6     -0.841800
     13 HN1        -0.5750   -0.1160   -0.7810 hn        1 DI6      0.336500
     14 H3          2.0380    1.0460    2.0410 h1        1 DI6      0.084700
     15 HN4         0.6790   -1.1840    2.9320 hn        1 DI6      0.385500
     16 H61         3.7370   -0.4680    0.9600 hc        1 DI6      0.052200
     17 H62         2.6630   -1.9030    1.2530 hc        1 DI6      0.052200
     18 H71         4.6230   -1.1300    2.9950 hc        1 DI6      0.035700
     19 H72         3.2630   -0.1500    3.6680 hc        1 DI6      0.035700
@<TRIPOS>BOND
     1    1    2 1   
     2    1    6 1   
     3    1   13 1   
     4    2    3 2   
     5    2    4 1   
     6    4    5 1   
     7    4    8 1   
     8    4   14 1   
     9    5    6 1   
    10    5   15 1   
    11    6    7 2   
    12    8    9 1   
    13    8   16 1   
    14    8   17 1   
    15    9   10 1   
    16    9   18 1   
    17    9   19 1   
    18   10   11 1   
    19   10   12 1   
@<TRIPOS>SUBSTRUCTURE
     1 DI6         1 TEMP              0 ****  ****    0 ROOT
