@<TRIPOS>MOLECULE
DI6
   19    19     1     0     0
SMALL
bcc


@<TRIPOS>ATOM
      1 N1         -2.3530    0.5390   -1.4220 n         1 DI6     -0.633500
      2 C2         -0.9680    0.7070   -1.5010 c         1 DI6      0.685500
      3 O2         -0.3300    0.8470   -2.5180 o         1 DI6     -0.626500
      4 C3         -0.4040    0.6780   -0.1010 c3        1 DI6     -0.000300
      5 N4         -1.5520    0.7380    0.7450 n         1 DI6     -0.494900
      6 C5         -2.7110    0.4320   -0.0540 c         1 DI6      0.777500
      7 O5         -3.8050    0.1470    0.3690 o         1 DI6     -0.638500
      8 C6          0.5120   -0.5500    0.1770 c3        1 DI6     -0.069400
      9 C7          1.9020   -0.0720    0.5250 c3        1 DI6     -0.207400
     10 C8          2.7780   -1.2700    0.8720 c         1 DI6      0.909600
     11 O9          3.4330   -1.8560   -0.0340 o         1 DI6     -0.841800
     12 O10         2.8800   -1.6410    2.0490 o         1 DI6     -0.841800
     13 HN1        -2.9090    0.3960   -2.1260 hn        1 DI6      0.336500
     14 H3          0.2090    1.4240    0.0610 h1        1 DI6      0.084700
     15 HN4        -1.5310    0.7390    1.6410 hn        1 DI6      0.385500
     16 H61         0.5530   -1.1270   -0.6350 hc        1 DI6      0.052200
     17 H62         0.1500   -1.0610    0.9210 hc        1 DI6      0.052200
     18 H71         2.2900    0.4070   -0.2480 hc        1 DI6      0.035700
     19 H72         1.8570    0.5220    1.2810 hc        1 DI6      0.035700
@<TRIPOS>BOND
     1    1    2 1   
     2    1    6 1   
     3    1   13 1   
     4    2    3 2   
     5    2    4 1   
     6    4    5 1   
     7    4    8 1   
     8    4   14 1   
     9    5    6 1   
    10    5   15 1   
    11    6    7 2   
    12    8    9 1   
    13    8   16 1   
    14    8   17 1   
    15    9   10 1   
    16    9   18 1   
    17    9   19 1   
    18   10   11 1   
    19   10   12 1   
@<TRIPOS>SUBSTRUCTURE
     1 DI6         1 TEMP              0 ****  ****    0 ROOT
