@<TRIPOS>MOLECULE
DI6
   19    19     1     0     0
SMALL
bcc


@<TRIPOS>ATOM
      1 N1          0.0550   -0.1180   -0.0460 ns        1 DI6     -0.633500
      2 C2          1.3930    0.2670    0.0860 c         1 DI6      0.685500
      3 O2          2.0970    0.7140   -0.8260 o         1 DI6     -0.626500
      4 C3          1.7770    0.0500    1.5770 c3        1 DI6     -0.000300
      5 N4          0.5270   -0.3820    2.2260 ns        1 DI6     -0.494900
      6 C5         -0.4550   -0.5640    1.2180 c         1 DI6      0.777500
      7 O5         -1.6300   -0.9490    1.3550 o         1 DI6     -0.637500
      8 C6          2.9570   -0.9110    1.6840 c3        1 DI6     -0.069400
      9 C7          3.4550   -1.0500    3.1030 c3        1 DI6     -0.207400
     10 C8          2.8710   -2.2710    3.8340 c         1 DI6      0.909600
     11 O9          1.6810   -2.6300    3.5720 o         1 DI6     -0.841800
     12 O10         3.6060   -2.8580    4.6720 o         1 DI6     -0.841800
     13 HN1        -0.4750   -0.1160   -0.8760 hn        1 DI6      0.336500
     14 H3          2.0580    1.0500    2.0160 h1        1 DI6      0.084700
     15 HN4         0.6310   -1.1420    2.8960 hn        1 DI6      0.385500
     16 H61         3.7680   -0.5100    1.0210 hc        1 DI6      0.052200
     17 H62         2.6590   -1.9230    1.2980 hc        1 DI6      0.052200
     18 H71         3.2040   -0.1410    3.7050 hc        1 DI6      0.035700
     19 H72         4.5710   -1.1530    3.0950 hc        1 DI6      0.035700
@<TRIPOS>BOND
     1    1    2 1   
     2    1    6 1   
     3    1   13 1   
     4    2    3 2   
     5    2    4 1   
     6    4    5 1   
     7    4    8 1   
     8    4   14 1   
     9    5    6 1   
    10    5   15 1   
    11    6    7 2   
    12    8    9 1   
    13    8   16 1   
    14    8   17 1   
    15    9   10 1   
    16    9   18 1   
    17    9   19 1   
    18   10   11 1   
    19   10   12 1   
@<TRIPOS>SUBSTRUCTURE
     1 DI6         1 TEMP              0 ****  ****    0 ROOT
