@<TRIPOS>MOLECULE
DI6
   19    19     1     0     0
SMALL
bcc


@<TRIPOS>ATOM
      1 N1          2.6340   -0.2670   -0.4550 n         1 DI6     -0.633500
      2 C2          1.8340   -1.0430    0.3890 c         1 DI6      0.685500
      3 O2          2.0950   -2.1950    0.7550 o         1 DI6     -0.626500
      4 C3          0.6110   -0.1670    0.7790 c3        1 DI6     -0.000300
      5 N4          0.8760    1.1430    0.1590 n         1 DI6     -0.494900
      6 C5          2.0380    1.0240   -0.6470 c         1 DI6      0.777500
      7 O5          2.5720    1.8970   -1.3540 o         1 DI6     -0.638500
      8 C6         -0.6860   -0.8560    0.3650 c3        1 DI6     -0.069400
      9 C7         -1.9090   -0.1090    0.8420 c3        1 DI6     -0.207400
     10 C8         -2.5010    0.8290   -0.2240 c         1 DI6      0.909600
     11 O9         -1.7140    1.4100   -1.0340 o         1 DI6     -0.841800
     12 O10        -3.7510    0.9850   -0.2370 o         1 DI6     -0.841800
     13 HN1         3.4740   -0.5480   -0.8870 hn        1 DI6      0.336500
     14 H3          0.6250   -0.0210    1.8970 h1        1 DI6      0.084700
     15 HN4         0.0680    1.5830   -0.2790 hn        1 DI6      0.385500
     16 H61        -0.7260   -0.9500   -0.7530 hc        1 DI6      0.052200
     17 H62        -0.6620   -1.8890    0.8010 hc        1 DI6      0.052200
     18 H71        -2.7020   -0.8450    1.1330 hc        1 DI6      0.035700
     19 H72        -1.6730    0.5080    1.7460 hc        1 DI6      0.035700
@<TRIPOS>BOND
     1    1    2 1   
     2    1    6 1   
     3    1   13 1   
     4    2    3 2   
     5    2    4 1   
     6    4    5 1   
     7    4    8 1   
     8    4   14 1   
     9    5    6 1   
    10    5   15 1   
    11    6    7 2   
    12    8    9 1   
    13    8   16 1   
    14    8   17 1   
    15    9   10 1   
    16    9   18 1   
    17    9   19 1   
    18   10   11 1   
    19   10   12 1   
@<TRIPOS>SUBSTRUCTURE
     1 DI6         1 TEMP              0 ****  ****    0 ROOT
