@<TRIPOS>MOLECULE
DI9
   36    37     1     0     0
SMALL
bcc


@<TRIPOS>ATOM
      1 CAB         0.2040   -0.3010    0.3690 c3        1 DI9     -0.096400
      2 CAJ         1.6540    0.0950    0.6110 c3        1 DI9     -0.078900
      3 CAK         1.7020    0.9310    1.8830 c3        1 DI9     -0.078900
      4 CAL         0.2770    1.3500    2.2060 c3        1 DI9     -0.096400
      5 CAC        -0.6400    0.3860    1.4480 c3        1 DI9      0.168100
      6 OAD        -1.6850    1.1450    0.8090 os        1 DI9     -0.570200
      7 PAE        -3.1820    0.8380    1.2050 p5        1 DI9      1.472400
      8 NAM        -3.8710    0.5580   -0.3990 nz        1 DI9     -0.836700
      9 OAA        -3.4970   -0.3360    2.0000 o         1 DI9     -0.730300
     10 OAF        -3.8480    2.2270    1.5500 os        1 DI9     -0.570200
     11 CAG        -4.5690    2.3490    2.7920 c3        1 DI9      0.168100
     12 CAH        -3.9370    3.4730    3.6200 c3        1 DI9     -0.096400
     13 CAI        -5.0510    4.4440    3.9860 c3        1 DI9     -0.078900
     14 CAO        -6.3620    3.8620    3.4750 c3        1 DI9     -0.078900
     15 CAN        -6.0140    2.7570    2.4890 c3        1 DI9     -0.096400
     16 HAB1        0.0760   -1.4100    0.4360 hc        1 DI9      0.063700
     17 HAB2       -0.1260    0.0250   -0.6490 hc        1 DI9      0.063700
     18 HAJ1        2.2990   -0.8140    0.7110 hc        1 DI9      0.064325
     19 HAJ2        2.0420    0.6850   -0.2580 hc        1 DI9      0.064325
     20 HAK1        2.1290    0.3300    2.7270 hc        1 DI9      0.064325
     21 HAK2        2.3560    1.8280    1.7480 hc        1 DI9      0.064325
     22 HAL1        0.0880    2.4000    1.8640 hc        1 DI9      0.063700
     23 HAL2        0.0790    1.3020    3.3050 hc        1 DI9      0.063700
     24 HAC        -1.1250   -0.3630    2.1350 h1        1 DI9      0.076700
     25 HAM1       -3.1530    0.5650   -1.1280 hn        1 DI9      0.475133
     26 HAM2       -4.3390   -0.3520   -0.4320 hn        1 DI9      0.475133
     27 HAG        -4.5180    1.3570    3.3220 h1        1 DI9      0.076700
     28 HAH1       -3.4600    3.0460    4.5370 hc        1 DI9      0.063700
     29 HAH2       -3.1420    3.9920    3.0260 hc        1 DI9      0.063700
     30 HAI1       -4.8600    5.4430    3.5190 hc        1 DI9      0.064325
     31 HAI2       -5.0930    4.5970    5.0930 hc        1 DI9      0.064325
     32 HAO1       -6.9600    3.4440    4.3240 hc        1 DI9      0.064325
     33 HAO2       -6.9860    4.6490    2.9820 hc        1 DI9      0.064325
     34 HAN1       -6.0890    3.1350    1.4370 hc        1 DI9      0.063700
     35 HAN2       -6.7030    1.8840    2.5980 hc        1 DI9      0.063700
     36 HAM3       -4.5590    1.2720   -0.6480 hn        1 DI9      0.475133
@<TRIPOS>BOND
     1    1    2 1   
     2    1    5 1   
     3    1   16 1   
     4    1   17 1   
     5    2    3 1   
     6    2   18 1   
     7    2   19 1   
     8    3    4 1   
     9    3   20 1   
    10    3   21 1   
    11    4    5 1   
    12    4   22 1   
    13    4   23 1   
    14    5    6 1   
    15    5   24 1   
    16    6    7 1   
    17    7    8 1   
    18    7    9 2   
    19    7   10 1   
    20    8   25 1   
    21    8   26 1   
    22    8   36 1   
    23   10   11 1   
    24   11   12 1   
    25   11   15 1   
    26   11   27 1   
    27   12   13 1   
    28   12   28 1   
    29   12   29 1   
    30   13   14 1   
    31   13   30 1   
    32   13   31 1   
    33   14   15 1   
    34   14   32 1   
    35   14   33 1   
    36   15   34 1   
    37   15   35 1   
@<TRIPOS>SUBSTRUCTURE
     1 DI9         1 TEMP              0 ****  ****    0 ROOT
