@<TRIPOS>MOLECULE
DI9
   36    37     1     0     0
SMALL
bcc


@<TRIPOS>ATOM
      1 CAB         0.2240   -0.2550    0.3450 c3        1 DI9     -0.096400
      2 CAJ         1.6710    0.1330    0.6160 c3        1 DI9     -0.078900
      3 CAK         1.7040    0.9300    1.9130 c3        1 DI9     -0.078900
      4 CAL         0.2740    1.3400    2.2320 c3        1 DI9     -0.096400
      5 CAC        -0.6330    0.3990    1.4340 c3        1 DI9      0.168100
      6 OAD        -1.6710    1.1770    0.8050 os        1 DI9     -0.570200
      7 PAE        -3.1730    0.8590    1.1740 p5        1 DI9      1.472400
      8 NAM        -3.8410    0.6240   -0.4460 n4        1 DI9     -0.836700
      9 OAA        -3.4960   -0.3370    1.9320 o         1 DI9     -0.730300
     10 OAF        -3.8430    2.2370    1.5500 os        1 DI9     -0.570200
     11 CAG        -4.5800    2.3250    2.7850 c3        1 DI9      0.168100
     12 CAH        -3.9600    3.4250    3.6530 c3        1 DI9     -0.096400
     13 CAI        -5.0790    4.3840    4.0320 c3        1 DI9     -0.078900
     14 CAO        -6.3830    3.8160    3.4870 c3        1 DI9     -0.078900
     15 CAN        -6.0210    2.7400    2.4750 c3        1 DI9     -0.096400
     16 HAB1       -0.0940    0.1010   -0.6670 hc        1 DI9      0.063575
     17 HAB2        0.0960   -1.3660    0.3780 hc        1 DI9      0.063575
     18 HAJ1        2.3150   -0.7780    0.6960 hc        1 DI9      0.064325
     19 HAJ2        2.0680    0.7500   -0.2300 hc        1 DI9      0.064325
     20 HAK1        2.3590    1.8310    1.8130 hc        1 DI9      0.064325
     21 HAK2        2.1200    0.3050    2.7430 hc        1 DI9      0.064325
     22 HAL1        0.0630    1.2590    3.3260 hc        1 DI9      0.063575
     23 HAL2        0.0900    2.4000    1.9190 hc        1 DI9      0.063575
     24 HAC        -1.1270   -0.3700    2.0930 h1        1 DI9      0.076700
     25 HAM1       -4.5270    1.3440   -0.6830 hn        1 DI9      0.475133
     26 HAM2       -3.1150    0.6520   -1.1650 hn        1 DI9      0.475133
     27 HAG        -4.5360    1.3170    3.2880 h1        1 DI9      0.076700
     28 HAH1       -3.4950    2.9710    4.5640 hc        1 DI9      0.063575
     29 HAH2       -3.1570    3.9610    3.0850 hc        1 DI9      0.063575
     30 HAI1       -4.8830    5.3960    3.5960 hc        1 DI9      0.064325
     31 HAI2       -5.1350    4.5060    5.1430 hc        1 DI9      0.064325
     32 HAO1       -7.0000    4.6170    3.0090 hc        1 DI9      0.064325
     33 HAO2       -6.9920    3.3750    4.3170 hc        1 DI9      0.064325
     34 HAN1       -6.7120    1.8650    2.5510 hc        1 DI9      0.063575
     35 HAN2       -6.0830    3.1480    1.4340 hc        1 DI9      0.063575
     36 HAM3       -4.3080   -0.2860   -0.5100 hn        1 DI9      0.475133
@<TRIPOS>BOND
     1    1    2 1   
     2    1    5 1   
     3    1   16 1   
     4    1   17 1   
     5    2    3 1   
     6    2   18 1   
     7    2   19 1   
     8    3    4 1   
     9    3   20 1   
    10    3   21 1   
    11    4    5 1   
    12    4   22 1   
    13    4   23 1   
    14    5    6 1   
    15    5   24 1   
    16    6    7 1   
    17    7    8 1   
    18    7    9 2   
    19    7   10 1   
    20    8   25 1   
    21    8   26 1   
    22    8   36 1   
    23   10   11 1   
    24   11   12 1   
    25   11   15 1   
    26   11   27 1   
    27   12   13 1   
    28   12   28 1   
    29   12   29 1   
    30   13   14 1   
    31   13   30 1   
    32   13   31 1   
    33   14   15 1   
    34   14   32 1   
    35   14   33 1   
    36   15   34 1   
    37   15   35 1   
@<TRIPOS>SUBSTRUCTURE
     1 DI9         1 TEMP              0 ****  ****    0 ROOT
