@<TRIPOS>MOLECULE
DI9
   36    37     1     0     0
SMALL
bcc


@<TRIPOS>ATOM
      1 CAB         0.1980   -0.3180    0.3810 c3        1 DI9     -0.096400
      2 CAJ         1.6480    0.0960    0.5900 c3        1 DI9     -0.078900
      3 CAK         1.7080    0.9700    1.8350 c3        1 DI9     -0.078900
      4 CAL         0.2840    1.3860    2.1690 c3        1 DI9     -0.096400
      5 CAC        -0.6360    0.3910    1.4540 c3        1 DI9      0.168100
      6 OAD        -1.6980    1.1210    0.8100 os        1 DI9     -0.570200
      7 PAE        -3.1860    0.8120    1.2400 p5        1 DI9      1.472400
      8 NAM        -3.8970    0.4790   -0.3440 n4        1 DI9     -0.836700
      9 OAA        -3.4750   -0.3410    2.0730 o         1 DI9     -0.730300
     10 OAF        -3.8600    2.2040    1.5550 os        1 DI9     -0.570200
     11 CAG        -4.5600    2.3560    2.8050 c3        1 DI9      0.168100
     12 CAH        -3.9260    3.5090    3.5900 c3        1 DI9     -0.096400
     13 CAI        -5.0430    4.4780    3.9480 c3        1 DI9     -0.078900
     14 CAO        -6.3560    3.8700    3.4760 c3        1 DI9     -0.078900
     15 CAN        -6.0140    2.7410    2.5160 c3        1 DI9     -0.096400
     16 HAB1       -0.1500   -0.0230   -0.6400 hc        1 DI9      0.063700
     17 HAB2        0.0810   -1.4270    0.4810 hc        1 DI9      0.063700
     18 HAJ1        2.0180    0.6630   -0.3020 hc        1 DI9      0.064325
     19 HAJ2        2.3020   -0.8040    0.7070 hc        1 DI9      0.064325
     20 HAK1        2.1530    0.3990    2.6890 hc        1 DI9      0.064325
     21 HAK2        2.3510    1.8690    1.6630 hc        1 DI9      0.064325
     22 HAL1        0.0800    2.4240    1.7980 hc        1 DI9      0.063700
     23 HAL2        0.1030    1.3680    3.2710 hc        1 DI9      0.063700
     24 HAC        -1.1020   -0.3420    2.1700 h1        1 DI9      0.076700
     25 HAM1       -4.5970    1.1790   -0.6020 hn        1 DI9      0.475133
     26 HAM2       -3.1920    0.4730   -1.0850 hn        1 DI9      0.475133
     27 HAG        -4.4910    1.3790    3.3630 h1        1 DI9      0.076700
     28 HAH1       -3.4290    3.1120    4.5110 hc        1 DI9      0.063700
     29 HAH2       -3.1460    4.0180    2.9680 hc        1 DI9      0.063700
     30 HAI1       -4.8700    5.4660    3.4500 hc        1 DI9      0.064325
     31 HAI2       -5.0670    4.6620    5.0520 hc        1 DI9      0.064325
     32 HAO1       -6.9960    4.6370    2.9720 hc        1 DI9      0.064325
     33 HAO2       -6.9360    3.4720    4.3470 hc        1 DI9      0.064325
     34 HAN1       -6.1110    3.0880    1.4560 hc        1 DI9      0.063700
     35 HAN2       -6.6930    1.8650    2.6620 hc        1 DI9      0.063700
     36 HAM3       -4.3570   -0.4360   -0.3430 hn        1 DI9      0.475133
@<TRIPOS>BOND
     1    1    2 1   
     2    1    5 1   
     3    1   16 1   
     4    1   17 1   
     5    2    3 1   
     6    2   18 1   
     7    2   19 1   
     8    3    4 1   
     9    3   20 1   
    10    3   21 1   
    11    4    5 1   
    12    4   22 1   
    13    4   23 1   
    14    5    6 1   
    15    5   24 1   
    16    6    7 1   
    17    7    8 1   
    18    7    9 2   
    19    7   10 1   
    20    8   25 1   
    21    8   26 1   
    22    8   36 1   
    23   10   11 1   
    24   11   12 1   
    25   11   15 1   
    26   11   27 1   
    27   12   13 1   
    28   12   28 1   
    29   12   29 1   
    30   13   14 1   
    31   13   30 1   
    32   13   31 1   
    33   14   15 1   
    34   14   32 1   
    35   14   33 1   
    36   15   34 1   
    37   15   35 1   
@<TRIPOS>SUBSTRUCTURE
     1 DI9         1 TEMP              0 ****  ****    0 ROOT
