@<TRIPOS>MOLECULE
DI9
   35    36     1     0     0
SMALL
bcc


@<TRIPOS>ATOM
      1 CAB         1.4050   -2.7830   -1.6280 c3        1 DI9     -0.096400
      2 CAJ         2.3640   -4.0380   -1.1900 c3        1 DI9     -0.075900
      3 CAK         2.9780   -3.6630   -0.0520 c3        1 DI9     -0.075900
      4 CAL         1.9900   -2.6160    0.6260 c3        1 DI9     -0.096400
      5 CAC         0.9110   -2.2670   -0.4820 c3        1 DI9      0.176100
      6 OAD         0.7660   -0.8470   -0.6000 os        1 DI9     -0.583700
      7 PAE        -0.6570   -0.1980   -0.2860 p5        1 DI9      1.634400
      8 NAM        -1.6610   -0.4290   -1.5740 n3        1 DI9     -1.085900
      9 OAA        -1.2520   -0.8530    0.9500 o         1 DI9     -0.849300
     10 OAF        -0.4820    1.3530   -0.0270 os        1 DI9     -0.583700
     11 CAG        -1.5040    2.0350    0.4960 c3        1 DI9      0.176100
     12 CAH        -1.1360    2.5500    1.9390 c3        1 DI9     -0.096400
     13 CAI        -0.9540    3.8710    1.8030 c3        1 DI9     -0.075900
     14 CAO        -1.8680    4.3280    0.5260 c3        1 DI9     -0.075900
     15 CAN        -1.7920    3.3320   -0.3630 c3        1 DI9     -0.096400
     16 HAB1        0.6880   -3.0940   -2.1850 hc        1 DI9      0.053575
     17 HAB2        1.9400   -2.0940   -2.1100 hc        1 DI9      0.053575
     18 HAJ1        1.8000   -4.8720   -1.0260 hc        1 DI9      0.041950
     19 HAJ2        3.0340   -4.2150   -1.8920 hc        1 DI9      0.041950
     20 HAK1        3.1050   -4.4090    0.5140 hc        1 DI9      0.041950
     21 HAK2        3.8440   -3.2340   -0.2560 hc        1 DI9      0.041950
     22 HAL1        2.4710   -1.8220    0.8840 hc        1 DI9      0.053575
     23 HAL2        1.5460   -3.0250    1.4220 hc        1 DI9      0.053575
     24 HAC         0.0490   -2.6830   -0.2630 h1        1 DI9      0.078700
     25 HAM1       -2.4100   -0.9200   -1.4800 hn        1 DI9      0.442800
     26 HAM2       -1.4270   -0.1100   -2.3920 hn        1 DI9      0.442800
     27 HAG        -2.2970    1.4760    0.5320 h1        1 DI9      0.078700
     28 HAH1       -1.8670    2.3700    2.5630 hc        1 DI9      0.053575
     29 HAH2       -0.3220    2.1300    2.2450 hc        1 DI9      0.053575
     30 HAI1       -0.0030    4.0670    1.6290 hc        1 DI9      0.041950
     31 HAI2       -1.2420    4.3220    2.5880 hc        1 DI9      0.041950
     32 HAO1       -2.7880    4.4590    0.8030 hc        1 DI9      0.041950
     33 HAO2       -1.5150    5.1490    0.1380 hc        1 DI9      0.041950
     34 HAN1       -2.6620    3.2360   -0.8560 hc        1 DI9      0.053575
     35 HAN2       -1.0530    3.4940   -0.9980 hc        1 DI9      0.053575
@<TRIPOS>BOND
     1    1    2 1   
     2    1    5 1   
     3    1   16 1   
     4    1   17 1   
     5    2    3 1   
     6    2   18 1   
     7    2   19 1   
     8    3    4 1   
     9    3   20 1   
    10    3   21 1   
    11    4    5 1   
    12    4   22 1   
    13    4   23 1   
    14    5    6 1   
    15    5   24 1   
    16    6    7 1   
    17    7    8 1   
    18    7    9 2   
    19    7   10 1   
    20    8   25 1   
    21    8   26 1   
    22   10   11 1   
    23   11   12 1   
    24   11   15 1   
    25   11   27 1   
    26   12   13 1   
    27   12   28 1   
    28   12   29 1   
    29   13   14 1   
    30   13   30 1   
    31   13   31 1   
    32   14   15 1   
    33   14   32 1   
    34   14   33 1   
    35   15   34 1   
    36   15   35 1   
@<TRIPOS>SUBSTRUCTURE
     1 DI9         1 TEMP              0 ****  ****    0 ROOT
