@<TRIPOS>MOLECULE
DI9
   35    36     1     0     0
SMALL
bcc


@<TRIPOS>ATOM
      1 CAB        -3.4730    0.6580    0.0470 c3        1 DI9     -0.096650
      2 CAJ        -4.2590   -0.6330   -0.1050 c3        1 DI9     -0.076150
      3 CAK        -3.2590   -1.7450   -0.3920 c3        1 DI9     -0.076150
      4 CAL        -1.8670   -1.2080   -0.0970 c3        1 DI9     -0.096650
      5 CAC        -2.0190    0.2580    0.3370 c3        1 DI9      0.178100
      6 OAD        -1.1460    1.0710   -0.4200 os        1 DI9     -0.586700
      7 PAE        -0.0210    1.9270    0.3700 p5        1 DI9      1.635400
      8 NAM        -0.1430    3.4200   -0.0930 n3        1 DI9     -1.082900
      9 OAA        -0.0410    1.6740    1.8150 o         1 DI9     -0.847300
     10 OAF         1.2860    1.3030   -0.3550 os        1 DI9     -0.586700
     11 CAG         1.9610    0.2540    0.3090 c3        1 DI9      0.178100
     12 CAH         1.8680   -1.0380   -0.5150 c3        1 DI9     -0.096650
     13 CAI         3.2310   -1.7040   -0.4370 c3        1 DI9     -0.076150
     14 CAO         4.2310   -0.6560    0.0380 c3        1 DI9     -0.076150
     15 CAN         3.4540    0.5960    0.4170 c3        1 DI9     -0.096650
     16 HAB1       -3.8810    1.2860    0.8750 hc        1 DI9      0.053700
     17 HAB2       -3.5140    1.2590   -0.8970 hc        1 DI9      0.053700
     18 HAJ1       -4.8240   -0.8550    0.8360 hc        1 DI9      0.041825
     19 HAJ2       -5.0080   -0.5470   -0.9300 hc        1 DI9      0.041825
     20 HAK1       -3.4790   -2.6440    0.2360 hc        1 DI9      0.041825
     21 HAK2       -3.3300   -2.0640   -1.4630 hc        1 DI9      0.041825
     22 HAL1       -1.2140   -1.2690   -1.0040 hc        1 DI9      0.053700
     23 HAL2       -1.3740   -1.7960    0.7170 hc        1 DI9      0.053700
     24 HAC        -1.7820    0.3750    1.4330 h1        1 DI9      0.075700
     25 HAM1       -0.1460    3.7110   -1.0350 hn        1 DI9      0.443800
     26 HAM2       -0.2040    4.1710    0.5450 hn        1 DI9      0.443800
     27 HAG         1.5120    0.1140    1.3340 h1        1 DI9      0.075700
     28 HAH1        1.0620   -1.7010   -0.1160 hc        1 DI9      0.053700
     29 HAH2        1.6080   -0.7850   -1.5750 hc        1 DI9      0.053700
     30 HAI1        3.2030   -2.5640    0.2790 hc        1 DI9      0.041825
     31 HAI2        3.5270   -2.1120   -1.4350 hc        1 DI9      0.041825
     32 HAO1        4.8100   -1.0400    0.9150 hc        1 DI9      0.041825
     33 HAO2        4.9680   -0.4240   -0.7710 hc        1 DI9      0.041825
     34 HAN1        3.6970    1.4390   -0.2770 hc        1 DI9      0.053700
     35 HAN2        3.7000    0.9250    1.4560 hc        1 DI9      0.053700
@<TRIPOS>BOND
     1    1    2 1   
     2    1    5 1   
     3    1   16 1   
     4    1   17 1   
     5    2    3 1   
     6    2   18 1   
     7    2   19 1   
     8    3    4 1   
     9    3   20 1   
    10    3   21 1   
    11    4    5 1   
    12    4   22 1   
    13    4   23 1   
    14    5    6 1   
    15    5   24 1   
    16    6    7 1   
    17    7    8 1   
    18    7    9 2   
    19    7   10 1   
    20    8   25 1   
    21    8   26 1   
    22   10   11 1   
    23   11   12 1   
    24   11   15 1   
    25   11   27 1   
    26   12   13 1   
    27   12   28 1   
    28   12   29 1   
    29   13   14 1   
    30   13   30 1   
    31   13   31 1   
    32   14   15 1   
    33   14   32 1   
    34   14   33 1   
    35   15   34 1   
    36   15   35 1   
@<TRIPOS>SUBSTRUCTURE
     1 DI9         1 TEMP              0 ****  ****    0 ROOT
