@<TRIPOS>MOLECULE
DIA
   30    29     1     0     0
SMALL
bcc


@<TRIPOS>ATOM
      1 N1         -0.2280   -0.0490    5.6040 n3        1 DIA     -0.916800
      2 C1          0.5060    0.0010    4.3630 c3        1 DIA      0.158800
      3 C2         -0.3920    0.0040    3.1260 c3        1 DIA     -0.082400
      4 C3          0.4500    0.0020    1.8690 c3        1 DIA     -0.079400
      5 C4         -0.4200    0.0030    0.6300 c3        1 DIA     -0.078400
      6 C5          0.4200    0.0030   -0.6300 c3        1 DIA     -0.078400
      7 C6         -0.4500    0.0020   -1.8690 c3        1 DIA     -0.079400
      8 C7          0.3920    0.0040   -3.1260 c3        1 DIA     -0.082400
      9 C8         -0.5060    0.0010   -4.3630 c3        1 DIA      0.158800
     10 N8          0.2280   -0.0490   -5.6040 n3        1 DIA     -0.916800
     11 HN11        0.3910    0.0810    6.3800 hn        1 DIA      0.347800
     12 HN12       -0.9410    0.6520    5.6310 hn        1 DIA      0.347800
     13 HC11        1.1880    0.9020    4.3000 h1        1 DIA      0.024200
     14 HC12        1.1670   -0.9120    4.3290 h1        1 DIA      0.024200
     15 HC21       -1.0580   -0.8980    3.1370 hc        1 DIA      0.046700
     16 HC22       -1.0540    0.9080    3.1350 hc        1 DIA      0.046700
     17 HC31        1.1190    0.9030    1.8590 hc        1 DIA      0.040700
     18 HC32        1.1140   -0.9030    1.8610 hc        1 DIA      0.040700
     19 HC41       -1.0860   -0.8990    0.6380 hc        1 DIA      0.040700
     20 HC42       -1.0860    0.9060    0.6380 hc        1 DIA      0.040700
     21 HC51        1.0860    0.9060   -0.6380 hc        1 DIA      0.040700
     22 HC52        1.0860   -0.9000   -0.6380 hc        1 DIA      0.040700
     23 HC61       -1.1140   -0.9030   -1.8610 hc        1 DIA      0.040700
     24 HC62       -1.1190    0.9030   -1.8590 hc        1 DIA      0.040700
     25 HC71        1.0540    0.9080   -3.1350 hc        1 DIA      0.046700
     26 HC72        1.0580   -0.8990   -3.1370 hc        1 DIA      0.046700
     27 HC81       -1.1670   -0.9120   -4.3290 h1        1 DIA      0.024200
     28 HC82       -1.1880    0.9020   -4.3000 h1        1 DIA      0.024200
     29 HN81       -0.3910    0.0810   -6.3800 hn        1 DIA      0.347800
     30 HN82        0.9410    0.6520   -5.6310 hn        1 DIA      0.347800
@<TRIPOS>BOND
     1    1    2 1   
     2    1   11 1   
     3    1   12 1   
     4    2    3 1   
     5    2   13 1   
     6    2   14 1   
     7    3    4 1   
     8    3   15 1   
     9    3   16 1   
    10    4    5 1   
    11    4   17 1   
    12    4   18 1   
    13    5    6 1   
    14    5   19 1   
    15    5   20 1   
    16    6    7 1   
    17    6   21 1   
    18    6   22 1   
    19    7    8 1   
    20    7   23 1   
    21    7   24 1   
    22    8    9 1   
    23    8   25 1   
    24    8   26 1   
    25    9   10 1   
    26    9   27 1   
    27    9   28 1   
    28   10   29 1   
    29   10   30 1   
@<TRIPOS>SUBSTRUCTURE
     1 DIA         1 TEMP              0 ****  ****    0 ROOT
