@<TRIPOS>MOLECULE
DIA
   32    31     1     0     0
SMALL
bcc


@<TRIPOS>ATOM
      1 N1         -0.0340   -0.0000   -0.0500 nz        1 DIA     -0.838600
      2 C1          1.4570    0.0000    0.0370 c3        1 DIA      0.099800
      3 C2          1.9680   -0.0010    1.4730 c3        1 DIA     -0.109400
      4 C3          3.4850    0.0000    1.4660 c3        1 DIA     -0.078400
      5 C4          4.0290    0.0000    2.8810 c3        1 DIA     -0.079400
      6 C5          5.5450    0.0000    2.8780 c3        1 DIA     -0.079400
      7 C6          6.0890    0.0010    4.2930 c3        1 DIA     -0.078400
      8 C7          7.6070   -0.0000    4.2860 c3        1 DIA     -0.109400
      9 C8          8.1170    0.0010    5.7220 c3        1 DIA      0.099800
     10 N8          9.6080   -0.0000    5.8090 nz        1 DIA     -0.838600
     11 HN11       -0.4160   -0.8340    0.4110 hn        1 DIA      0.466133
     12 HN12       -0.4170    0.8320    0.4120 hn        1 DIA      0.466133
     13 HC11        1.8310   -0.9170   -0.5060 hx        1 DIA      0.115700
     14 HC12        1.8300    0.9180   -0.5050 hx        1 DIA      0.115700
     15 HC21        1.5970   -0.9080    2.0210 hc        1 DIA      0.072700
     16 HC22        1.5970    0.9060    2.0220 hc        1 DIA      0.072700
     17 HC31        3.8620   -0.9050    0.9190 hc        1 DIA      0.060700
     18 HC32        3.8610    0.9050    0.9190 hc        1 DIA      0.060700
     19 HC41        3.6540    0.9040    3.4300 hc        1 DIA      0.055700
     20 HC42        3.6540   -0.9040    3.4300 hc        1 DIA      0.055700
     21 HC51        5.9200    0.9040    2.3290 hc        1 DIA      0.055700
     22 HC52        5.9200   -0.9040    2.3290 hc        1 DIA      0.055700
     23 HC61        5.7130    0.9060    4.8400 hc        1 DIA      0.060700
     24 HC62        5.7120   -0.9040    4.8400 hc        1 DIA      0.060700
     25 HC71        7.9770   -0.9080    3.7380 hc        1 DIA      0.072700
     26 HC72        7.9780    0.9070    3.7370 hc        1 DIA      0.072700
     27 HC81        7.7450    0.9180    6.2640 hx        1 DIA      0.115700
     28 HC82        7.7440   -0.9160    6.2650 hx        1 DIA      0.115700
     29 HN81        9.9900   -0.8330    5.3480 hn        1 DIA      0.466133
     30 HN82        9.9910    0.8320    5.3470 hn        1 DIA      0.466133
     31 H13        -0.3270    0.0000   -1.0340 hn        1 DIA      0.466133
     32 H83         9.9020    0.0000    6.7920 hn        1 DIA      0.466133
@<TRIPOS>BOND
     1    1    2 1   
     2    1   11 1   
     3    1   12 1   
     4    1   31 1   
     5    2    3 1   
     6    2   13 1   
     7    2   14 1   
     8    3    4 1   
     9    3   15 1   
    10    3   16 1   
    11    4    5 1   
    12    4   17 1   
    13    4   18 1   
    14    5    6 1   
    15    5   19 1   
    16    5   20 1   
    17    6    7 1   
    18    6   21 1   
    19    6   22 1   
    20    7    8 1   
    21    7   23 1   
    22    7   24 1   
    23    8    9 1   
    24    8   25 1   
    25    8   26 1   
    26    9   10 1   
    27    9   27 1   
    28    9   28 1   
    29   10   29 1   
    30   10   30 1   
    31   10   32 1   
@<TRIPOS>SUBSTRUCTURE
     1 DIA         1 TEMP              0 ****  ****    0 ROOT
