@<TRIPOS>MOLECULE
DIA
   30    29     1     0     0
SMALL
bcc


@<TRIPOS>ATOM
      1 N1         -4.7480   -0.1010   -2.8830 n3        1 DIA     -0.916800
      2 C1         -3.3040   -0.1010   -2.8830 c3        1 DIA      0.158800
      3 C2         -2.7980   -0.1010   -1.4520 c3        1 DIA     -0.082400
      4 C3         -1.2760   -0.0050   -1.4490 c3        1 DIA     -0.079400
      5 C4         -0.7590   -0.1160   -0.0110 c3        1 DIA     -0.078400
      6 C5          0.7610    0.1230    0.0090 c3        1 DIA     -0.078400
      7 C6          1.3000   -0.1320    1.4210 c3        1 DIA     -0.079400
      8 C7          2.7710    0.2680    1.4820 c3        1 DIA     -0.082400
      9 C8          3.3370   -0.0880    2.8450 c3        1 DIA      0.158800
     10 N8          4.6830    0.4220    2.9570 n3        1 DIA     -0.916800
     11 HN11       -5.0520    0.6330   -3.3310 hn        1 DIA      0.347800
     12 HN12       -5.0520   -0.8560   -3.2950 hn        1 DIA      0.347800
     13 HC11       -2.9780    0.6960   -3.3440 h1        1 DIA      0.024200
     14 HC12       -2.9780   -0.8980   -3.3440 h1        1 DIA      0.024200
     15 HC21       -3.0720   -0.9270   -1.0100 hc        1 DIA      0.046700
     16 HC22       -3.1730    0.6630   -0.9750 hc        1 DIA      0.046700
     17 HC31       -0.9030   -0.7300   -1.9860 hc        1 DIA      0.040700
     18 HC32       -1.0030    0.8530   -1.8270 hc        1 DIA      0.040700
     19 HC41       -1.2010    0.5520    0.5460 hc        1 DIA      0.040700
     20 HC42       -0.9530   -1.0080    0.3360 hc        1 DIA      0.040700
     21 HC51        1.1950   -0.4850   -0.6200 hc        1 DIA      0.040700
     22 HC52        0.9490    1.0460   -0.2490 hc        1 DIA      0.040700
     23 HC61        0.7920    0.3980    2.0640 hc        1 DIA      0.040700
     24 HC62        1.2110   -1.0800    1.6370 hc        1 DIA      0.040700
     25 HC71        3.2670   -0.2090    0.7900 hc        1 DIA      0.046700
     26 HC72        2.8540    1.2290    1.3370 hc        1 DIA      0.046700
     27 HC81        2.7800    0.3080    3.5420 h1        1 DIA      0.024200
     28 HC82        3.3470   -1.0590    2.9490 h1        1 DIA      0.024200
     29 HN81        5.2630   -0.2730    3.0680 hn        1 DIA      0.347800
     30 HN82        4.7370    0.9820    3.6750 hn        1 DIA      0.347800
@<TRIPOS>BOND
     1    1    2 1   
     2    1   11 1   
     3    1   12 1   
     4    2    3 1   
     5    2   13 1   
     6    2   14 1   
     7    3    4 1   
     8    3   15 1   
     9    3   16 1   
    10    4    5 1   
    11    4   17 1   
    12    4   18 1   
    13    5    6 1   
    14    5   19 1   
    15    5   20 1   
    16    6    7 1   
    17    6   21 1   
    18    6   22 1   
    19    7    8 1   
    20    7   23 1   
    21    7   24 1   
    22    8    9 1   
    23    8   25 1   
    24    8   26 1   
    25    9   10 1   
    26    9   27 1   
    27    9   28 1   
    28   10   29 1   
    29   10   30 1   
@<TRIPOS>SUBSTRUCTURE
     1 DIA         1 TEMP              0 ****  ****    0 ROOT
