@<TRIPOS>MOLECULE
DIB
   23    22     1     0     0
SMALL
bcc


@<TRIPOS>ATOM
      1 N          -0.0830   -0.1960   -0.0910 n4        1 DIB     -0.837600
      2 CA          1.3940   -0.0370    0.0250 c3        1 DIB      0.102800
      3 CB          1.8880    0.0050    1.4710 c3        1 DIB     -0.134400
      4 CG          3.4090    0.1740    1.4510 c3        1 DIB      0.104800
      5 ND          4.0420    0.1650    2.8090 n4        1 DIB     -0.678400
      6 CE1         5.5050   -0.1130    2.6920 c3        1 DIB      0.078100
      7 CE2         3.8190    1.4470    3.5330 c3        1 DIB      0.078100
      8 H          -0.5720    0.5870    0.3610 hn        1 DIB      0.479133
      9 HN2        -0.3490   -0.2170   -1.0870 hn        1 DIB      0.479133
     10 HA1         1.6760    0.9210   -0.5080 hx        1 DIB      0.129200
     11 HA2         1.8730   -0.9030   -0.5230 hx        1 DIB      0.129200
     12 HB1         1.4090    0.8620    2.0190 hc        1 DIB      0.092200
     13 HB2         1.6090   -0.9450    2.0030 hc        1 DIB      0.092200
     14 HG1         3.8690   -0.6700    0.8550 hx        1 DIB      0.119700
     15 HG2         3.6830    1.1500    0.9520 hx        1 DIB      0.119700
     16 HE11        5.9630   -0.0940    3.7200 hx        1 DIB      0.118367
     17 HE12        5.9900    0.6750    2.0540 hx        1 DIB      0.118367
     18 HE13        5.6620   -1.1260    2.2330 hx        1 DIB      0.118367
     19 HE21        2.7190    1.6440    3.6240 hx        1 DIB      0.118367
     20 HE22        4.2700    1.3710    4.5620 hx        1 DIB      0.118367
     21 HE23        4.3140    2.2890    2.9770 hx        1 DIB      0.118367
     22 HN3        -0.3920   -1.0720    0.3490 hn        1 DIB      0.479133
     23 HD1         3.6180   -0.5940    3.3620 hn        1 DIB      0.456800
@<TRIPOS>BOND
     1    1    2 1   
     2    1    8 1   
     3    1    9 1   
     4    1   22 1   
     5    2    3 1   
     6    2   10 1   
     7    2   11 1   
     8    3    4 1   
     9    3   12 1   
    10    3   13 1   
    11    4    5 1   
    12    4   14 1   
    13    4   15 1   
    14    5    6 1   
    15    5    7 1   
    16    5   23 1   
    17    6   16 1   
    18    6   17 1   
    19    6   18 1   
    20    7   19 1   
    21    7   20 1   
    22    7   21 1   
@<TRIPOS>SUBSTRUCTURE
     1 DIB         1 TEMP              0 ****  ****    0 ROOT
