@<TRIPOS>MOLECULE
DIB
   21    20     1     0     0
SMALL
bcc


@<TRIPOS>ATOM
      1 N           0.1360    0.0530   -3.3820 n3        1 DIB     -0.915800
      2 CA         -0.5560   -0.2240   -2.1460 c3        1 DIB      0.158800
      3 CB          0.2510    0.1570   -0.9050 c3        1 DIB     -0.086400
      4 CG         -0.5160   -0.2810    0.3400 c3        1 DIB      0.170800
      5 ND          0.0310    0.2370    1.5880 n3        1 DIB     -0.738600
      6 CE1        -0.8340   -0.0410    2.7130 c3        1 DIB      0.156100
      7 CE2         1.4010   -0.1550    1.8250 c3        1 DIB      0.156100
      8 H          -0.4790   -0.0750   -4.1600 hn        1 DIB      0.348800
      9 HN2         0.4920    0.9880   -3.3950 hn        1 DIB      0.348800
     10 HA1        -0.7620   -1.3330   -2.1210 h1        1 DIB      0.023700
     11 HA2        -1.5580    0.2980   -2.0860 h1        1 DIB      0.023700
     12 HB1         0.4250    1.2640   -0.8850 hc        1 DIB      0.054200
     13 HB2         1.2530   -0.3450   -0.9360 hc        1 DIB      0.054200
     14 HG1        -0.5650   -1.4100    0.3480 h1        1 DIB      0.029200
     15 HG2        -1.5750    0.1000    0.2600 h1        1 DIB      0.029200
     16 HE11       -0.4090    0.4520    3.6260 h1        1 DIB      0.031033
     17 HE12       -1.8480    0.3930    2.5110 h1        1 DIB      0.031033
     18 HE13       -0.9520   -1.1400    2.9240 h1        1 DIB      0.031033
     19 HE21        2.0450    0.2670    1.0090 h1        1 DIB      0.031033
     20 HE22        1.7420    0.2720    2.8040 h1        1 DIB      0.031033
     21 HE23        1.5460   -1.2710    1.8530 h1        1 DIB      0.031033
@<TRIPOS>BOND
     1    1    2 1   
     2    1    8 1   
     3    1    9 1   
     4    2    3 1   
     5    2   10 1   
     6    2   11 1   
     7    3    4 1   
     8    3   12 1   
     9    3   13 1   
    10    4    5 1   
    11    4   14 1   
    12    4   15 1   
    13    5    6 1   
    14    5    7 1   
    15    6   16 1   
    16    6   17 1   
    17    6   18 1   
    18    7   19 1   
    19    7   20 1   
    20    7   21 1   
@<TRIPOS>SUBSTRUCTURE
     1 DIB         1 TEMP              0 ****  ****    0 ROOT
