@<TRIPOS>MOLECULE
DIB
   23    22     1     0     0
SMALL
bcc


@<TRIPOS>ATOM
      1 N          -0.0670   -0.1790   -0.1220 n4        1 DIB     -0.837600
      2 CA          1.4080   -0.0150    0.0090 c3        1 DIB      0.102800
      3 CB          1.8910    0.0050    1.4590 c3        1 DIB     -0.134400
      4 CG          3.4110    0.1810    1.4540 c3        1 DIB      0.104800
      5 ND          4.0330    0.1510    2.8170 n4        1 DIB     -0.678400
      6 CE1         5.4990   -0.1180    2.7080 c3        1 DIB      0.078100
      7 CE2         3.7990    1.4200    3.5610 c3        1 DIB      0.078100
      8 H          -0.3240   -0.1840   -1.1200 hn        1 DIB      0.479133
      9 HN2        -0.5630    0.5940    0.3400 hn        1 DIB      0.479133
     10 HA1         1.6900    0.9540   -0.5050 hx        1 DIB      0.129200
     11 HA2         1.8960   -0.8690   -0.5500 hx        1 DIB      0.129200
     12 HB1         1.6120   -0.9560    1.9730 hc        1 DIB      0.092200
     13 HB2         1.4040    0.8490    2.0190 hc        1 DIB      0.092200
     14 HG1         3.6850    1.1660    0.9740 hx        1 DIB      0.119700
     15 HG2         3.8800   -0.6510    0.8480 hx        1 DIB      0.119700
     16 HE11        5.9480   -0.1150    3.7400 hx        1 DIB      0.118367
     17 HE12        5.9850    0.6820    2.0870 hx        1 DIB      0.118367
     18 HE13        5.6630   -1.1230    2.2330 hx        1 DIB      0.118367
     19 HE21        4.2950    2.2740    3.0240 hx        1 DIB      0.118367
     20 HE22        2.6970    1.6110    3.6460 hx        1 DIB      0.118367
     21 HE23        4.2420    1.3290    4.5930 hx        1 DIB      0.118367
     22 HN3        -0.3750   -1.0640    0.3000 hn        1 DIB      0.479133
     23 HD1         3.6080   -0.6190    3.3540 hn        1 DIB      0.456800
@<TRIPOS>BOND
     1    1    2 1   
     2    1    8 1   
     3    1    9 1   
     4    1   22 1   
     5    2    3 1   
     6    2   10 1   
     7    2   11 1   
     8    3    4 1   
     9    3   12 1   
    10    3   13 1   
    11    4    5 1   
    12    4   14 1   
    13    4   15 1   
    14    5    6 1   
    15    5    7 1   
    16    5   23 1   
    17    6   16 1   
    18    6   17 1   
    19    6   18 1   
    20    7   19 1   
    21    7   20 1   
    22    7   21 1   
@<TRIPOS>SUBSTRUCTURE
     1 DIB         1 TEMP              0 ****  ****    0 ROOT
