@<TRIPOS>MOLECULE
DIB
   23    22     1     0     0
SMALL
bcc


@<TRIPOS>ATOM
      1 N          -0.0820   -0.1800   -0.0970 nz        1 DIB     -0.837600
      2 CA          1.3950   -0.0260    0.0210 c3        1 DIB      0.102800
      3 CB          1.8880    0.0090    1.4690 c3        1 DIB     -0.134400
      4 CG          3.4090    0.1730    1.4510 c3        1 DIB      0.104800
      5 ND          4.0400    0.1570    2.8100 nx        1 DIB     -0.678400
      6 CE1         5.5030   -0.1260    2.6950 c3        1 DIB      0.078100
      7 CE2         3.8210    1.4380    3.5390 c3        1 DIB      0.078100
      8 H          -0.3460   -0.1960   -1.0930 hn        1 DIB      0.479133
      9 HN2        -0.5690    0.6030    0.3580 hn        1 DIB      0.479133
     10 HA1         1.6810    0.9340   -0.5060 hx        1 DIB      0.129200
     11 HA2         1.8730   -0.8910   -0.5290 hx        1 DIB      0.129200
     12 HB1         1.6050   -0.9430    1.9970 hc        1 DIB      0.092200
     13 HB2         1.4110    0.8640    2.0200 hc        1 DIB      0.092200
     14 HG1         3.6870    1.1500    0.9570 hx        1 DIB      0.119700
     15 HG2         3.8670   -0.6700    0.8530 hx        1 DIB      0.119700
     16 HE11        5.9590   -0.1120    3.7240 hx        1 DIB      0.118367
     17 HE12        5.9910    0.6620    2.0600 hx        1 DIB      0.118367
     18 HE13        5.6560   -1.1380    2.2320 hx        1 DIB      0.118367
     19 HE21        4.3200    2.2800    2.9870 hx        1 DIB      0.118367
     20 HE22        2.7210    1.6380    3.6280 hx        1 DIB      0.118367
     21 HE23        4.2690    1.3560    4.5690 hx        1 DIB      0.118367
     22 HN3        -0.3940   -1.0570    0.3390 hn        1 DIB      0.479133
     23 HD1         3.6120   -0.6030    3.3600 hn        1 DIB      0.456800
@<TRIPOS>BOND
     1    1    2 1   
     2    1    8 1   
     3    1    9 1   
     4    1   22 1   
     5    2    3 1   
     6    2   10 1   
     7    2   11 1   
     8    3    4 1   
     9    3   12 1   
    10    3   13 1   
    11    4    5 1   
    12    4   14 1   
    13    4   15 1   
    14    5    6 1   
    15    5    7 1   
    16    5   23 1   
    17    6   16 1   
    18    6   17 1   
    19    6   18 1   
    20    7   19 1   
    21    7   20 1   
    22    7   21 1   
@<TRIPOS>SUBSTRUCTURE
     1 DIB         1 TEMP              0 ****  ****    0 ROOT
