@<TRIPOS>MOLECULE
DIB
   21    20     1     0     0
SMALL
bcc


@<TRIPOS>ATOM
      1 N          -3.0050    0.0000   -1.6090 n3        1 DIB     -0.915800
      2 CA         -1.5790    0.0000   -1.6090 c3        1 DIB      0.158800
      3 CB         -1.0750    0.0000   -0.1820 c3        1 DIB     -0.086400
      4 CG          0.4380   -0.0000   -0.1820 c3        1 DIB      0.170800
      5 ND          0.9120    0.0000    1.1590 n3        1 DIB     -0.738600
      6 CE1         1.7030    1.1630    1.3820 c3        1 DIB      0.156100
      7 CE2         1.7030   -1.1630    1.3830 c3        1 DIB      0.156100
      8 H          -3.3090   -0.7450   -2.0380 hn        1 DIB      0.348800
      9 HN2        -3.3090    0.7450   -2.0380 hn        1 DIB      0.348800
     10 HA1        -1.2540   -0.7970   -2.0690 h1        1 DIB      0.023700
     11 HA2        -1.2540    0.7970   -2.0690 h1        1 DIB      0.023700
     12 HB1        -1.4000   -0.7970    0.2780 hc        1 DIB      0.054200
     13 HB2        -1.4000    0.7970    0.2780 hc        1 DIB      0.054200
     14 HG1         0.7630   -0.7970   -0.6420 h1        1 DIB      0.029200
     15 HG2         0.7630    0.7970   -0.6430 h1        1 DIB      0.029200
     16 HE11        2.4520    1.1720    0.7560 h1        1 DIB      0.031033
     17 HE12        2.0440    1.1530    2.2970 h1        1 DIB      0.031033
     18 HE13        1.1560    1.9600    1.2470 h1        1 DIB      0.031033
     19 HE21        2.4520   -1.1720    0.7570 h1        1 DIB      0.031033
     20 HE22        1.1560   -1.9590    1.2470 h1        1 DIB      0.031033
     21 HE23        2.0430   -1.1530    2.2970 h1        1 DIB      0.031033
@<TRIPOS>BOND
     1    1    2 1   
     2    1    8 1   
     3    1    9 1   
     4    2    3 1   
     5    2   10 1   
     6    2   11 1   
     7    3    4 1   
     8    3   12 1   
     9    3   13 1   
    10    4    5 1   
    11    4   14 1   
    12    4   15 1   
    13    5    6 1   
    14    5    7 1   
    15    6   16 1   
    16    6   17 1   
    17    6   18 1   
    18    7   19 1   
    19    7   20 1   
    20    7   21 1   
@<TRIPOS>SUBSTRUCTURE
     1 DIB         1 TEMP              0 ****  ****    0 ROOT
