@<TRIPOS>MOLECULE
DIC
   17    14     1     0     0
SMALL
bcc


@<TRIPOS>ATOM
      1 C1         -1.6930    0.0160   -1.6680 c1        1 DIC     -0.113500
      2 C2         -0.3070    0.0160   -1.6680 c1        1 DIC     -0.128000
      3 C3          0.3980    0.0160   -0.4460 c1        1 DIC      0.031000
      4 C4         -0.2840    0.0160    0.7350 c1        1 DIC     -0.149000
      5 C5         -1.6940    0.0160    0.7340 c1        1 DIC     -0.058000
      6 C6         -2.3870    0.0160   -0.4670 c1        1 DIC     -0.113500
      7 C7          0.4210    0.0160    1.9520 c2        1 DIC      0.352000
      8 O7         -0.1860    0.0190    3.0050 o         1 DIC     -0.227500
      9 C8          1.7910    0.0160   -0.4440 c2        1 DIC     -0.159000
     10 C9          2.4830    0.0160    0.7600 c1        1 DIC      0.075000
     11 O1          1.7940    0.0160    1.9520 o         1 DIC     -0.227500
     12 CL1         3.0250   -0.2030   -1.6560 cl        1 DIC      0.032000
     13 CL2         4.1870   -0.0440    1.1270 cl        1 DIC      0.080000
     14 H1         -2.1810    0.0160   -2.5130 ha        1 DIC      0.144500
     15 H2          0.1810    0.0160   -2.5130 ha        1 DIC      0.155000
     16 H5         -2.1830    0.0160    1.5790 ha        1 DIC      0.161000
     17 H6         -3.3630    0.0160   -0.4680 ha        1 DIC      0.144500
@<TRIPOS>BOND
     1    1    6 1   
     2    1   14 1   
     3    2    3 1   
     4    2   15 1   
     5    3    9 1   
     6    4    5 1   
     7    4    7 1   
     8    5   16 1   
     9    6   17 1   
    10    7    8 1   
    11    7   11 1   
    12    9   10 1   
    13    9   12 1   
    14   10   13 1   
@<TRIPOS>SUBSTRUCTURE
     1 DIC         1 TEMP              0 ****  ****    0 ROOT
