@<TRIPOS>MOLECULE
DIC
   17    18     1     0     0
SMALL
bcc


@<TRIPOS>ATOM
      1 C1          0.6890   -2.0480    0.1030 ca        1 DIC     -0.085000
      2 C2          1.7900   -2.8970    0.0710 ca        1 DIC     -0.128000
      3 C3          3.0820   -2.3700   -0.0890 ca        1 DIC      0.019200
      4 C4          3.2390   -0.9750   -0.2160 ca        1 DIC     -0.169600
      5 C5          2.1230   -0.1270   -0.1830 ca        1 DIC     -0.058000
      6 C6          0.8510   -0.6640   -0.0240 ca        1 DIC     -0.142000
      7 C7          4.5700   -0.4030   -0.3840 c         1 DIC      0.738200
      8 O7          4.9140    0.7690   -0.5100 o         1 DIC     -0.549500
      9 C8          4.2750   -3.1900   -0.1320 cc        1 DIC     -0.062800
     10 C9          5.4950   -2.6050   -0.2900 cd        1 DIC      0.203500
     11 O1          5.6820   -1.2490   -0.4170 os        1 DIC     -0.315200
     12 CL1         4.1440   -4.8710    0.0150 cl        1 DIC     -0.052400
     13 CL2         6.9640   -3.4350   -0.3570 cl        1 DIC     -0.004400
     14 H1         -0.3200   -2.4690    0.2290 ha        1 DIC      0.143000
     15 H2          1.6480   -3.9840    0.1710 ha        1 DIC      0.155000
     16 H5          2.2730    0.9610   -0.2840 ha        1 DIC      0.161000
     17 H6         -0.0270   -0.0020    0.0030 ha        1 DIC      0.146000
@<TRIPOS>BOND
     1    1    2 ar  
     2    1    6 ar  
     3    1   14 1   
     4    2    3 ar  
     5    2   15 1   
     6    3    4 ar  
     7    3    9 1   
     8    4    5 ar  
     9    4    7 1   
    10    5    6 ar  
    11    5   16 1   
    12    6   17 1   
    13    7    8 2   
    14    7   11 1   
    15    9   10 2   
    16    9   12 1   
    17   10   11 1   
    18   10   13 1   
@<TRIPOS>SUBSTRUCTURE
     1 DIC         1 TEMP              0 ****  ****    0 ROOT
