@<TRIPOS>MOLECULE
DID
   54    55     1     0     0
SMALL
bcc


@<TRIPOS>ATOM
      1 C4         -0.2160    0.2480   -0.2880 ca        1 DID     -0.322900
      2 C5          1.1710    0.2660   -0.0660 ca        1 DID     -0.050000
      3 C6          1.6700    0.1580    1.2200 ca        1 DID     -0.181000
      4 C1          0.7730    0.0340    2.3080 ca        1 DID      0.198100
      5 C2         -0.6150    0.0120    2.0860 ca        1 DID     -0.181000
      6 C3         -1.1010    0.1190    0.7880 ca        1 DID     -0.050000
      7 C9         -0.7310    0.4260   -1.6570 ce        1 DID      0.599800
      8 N1         -1.2420   -0.8750   -2.2290 n4        1 DID     -0.826600
      9 N2         -0.8090    1.4480   -2.4170 n2        1 DID     -0.709100
     10 O1          1.3730   -0.0610    3.5310 os        1 DID     -0.308900
     11 C7          0.5070   -0.1110    4.6830 c3        1 DID      0.125400
     12 C8          1.4410   -0.1260    5.8810 c3        1 DID     -0.088400
     13 C10         0.6430   -0.1540    7.1670 c3        1 DID     -0.077400
     14 C11         1.5630   -0.1360    8.3710 c3        1 DID     -0.077400
     15 C8'         0.7640   -0.1570    9.6560 c3        1 DID     -0.088400
     16 C7'         1.6970   -0.1060   10.8550 c3        1 DID      0.125400
     17 O1'         0.8310   -0.1070   12.0070 os        1 DID     -0.308900
     18 C1'         1.4250    0.0070   13.2300 ca        1 DID      0.198100
     19 C6'         2.8120    0.0520   13.4520 ca        1 DID     -0.181000
     20 C5'         3.2930    0.1730   14.7510 ca        1 DID     -0.050000
     21 C4'         2.4030    0.2490   15.8280 ca        1 DID     -0.322900
     22 C3'         1.0170    0.2010   15.6070 ca        1 DID     -0.050000
     23 C2'         0.5230    0.0780   14.3190 ca        1 DID     -0.181000
     24 C9'         2.9090    0.4420   17.1980 ce        1 DID      0.599800
     25 N1'         3.4850   -0.8360   17.7600 n4        1 DID     -0.826600
     26 N2'         2.9370    1.4610   17.9660 n2        1 DID     -0.709100
     27 H5          1.8690    0.3760   -0.9130 ha        1 DID      0.147000
     28 H6          2.7540    0.1730    1.4160 ha        1 DID      0.172000
     29 H2         -1.3200   -0.0810    2.9260 ha        1 DID      0.172000
     30 H3         -2.1900    0.1220    0.6200 ha        1 DID      0.147000
     31 HN11       -0.4530   -1.5250   -2.3010 hn        1 DID      0.468800
     32 HN12       -1.9350   -1.2580   -1.5780 hn        1 DID      0.468800
     33 HN2        -0.4860    2.3290   -2.0710 hn        1 DID      0.491400
     34 H71        -0.1540    0.7940    4.6910 h1        1 DID      0.051200
     35 H72        -0.1140   -1.0430    4.6340 h1        1 DID      0.051200
     36 H81         2.1120   -1.0230    5.8200 hc        1 DID      0.066200
     37 H82         2.0980    0.7830    5.8510 hc        1 DID      0.066200
     38 H101       -0.0440    0.7330    7.2060 hc        1 DID      0.049200
     39 H102        0.0020   -1.0750    7.1960 hc        1 DID      0.049200
     40 H111        2.2050    0.7840    8.3380 hc        1 DID      0.049200
     41 H112        2.2480   -1.0240    8.3340 hc        1 DID      0.049200
     42 H8'1        0.0640    0.7180    9.6940 hc        1 DID      0.066200
     43 H8'2        0.1390   -1.0870    9.7100 hc        1 DID      0.066200
     44 H7'1        2.3630   -1.0070   10.8960 h1        1 DID      0.051200
     45 H7'2        2.3130    0.8310   10.8540 h1        1 DID      0.051200
     46 H6'         3.5210    0.0000   12.6120 ha        1 DID      0.172000
     47 H5'         4.3810    0.2280   14.9190 ha        1 DID      0.147000
     48 H3'         0.3150    0.2700   16.4540 ha        1 DID      0.147000
     49 H2'        -0.5600    0.0410   14.1230 ha        1 DID      0.172000
     50 H1'1        4.1950   -1.1790   17.1060 hn        1 DID      0.468800
     51 H1'2        3.9060   -0.7000   18.6880 hn        1 DID      0.468800
     52 H1          2.5700    2.3270   17.6270 hn        1 DID      0.491400
     53 H13        -1.6700   -0.7530   -3.1560 hn        1 DID      0.468800
     54 H1'3        2.7280   -1.5250   17.8280 hn        1 DID      0.468800
@<TRIPOS>BOND
     1    1    2 ar  
     2    1    6 ar  
     3    1    7 1   
     4    2    3 ar  
     5    2   27 1   
     6    3    4 ar  
     7    3   28 1   
     8    4    5 ar  
     9    4   10 1   
    10    5    6 ar  
    11    5   29 1   
    12    6   30 1   
    13    7    8 1   
    14    7    9 2   
    15    8   31 1   
    16    8   32 1   
    17    8   53 1   
    18    9   33 1   
    19   10   11 1   
    20   11   12 1   
    21   11   34 1   
    22   11   35 1   
    23   12   13 1   
    24   12   36 1   
    25   12   37 1   
    26   13   14 1   
    27   13   38 1   
    28   13   39 1   
    29   14   15 1   
    30   14   40 1   
    31   14   41 1   
    32   15   16 1   
    33   15   42 1   
    34   15   43 1   
    35   16   17 1   
    36   16   44 1   
    37   16   45 1   
    38   17   18 1   
    39   18   19 ar  
    40   18   23 ar  
    41   19   20 ar  
    42   19   46 1   
    43   20   21 ar  
    44   20   47 1   
    45   21   22 ar  
    46   21   24 1   
    47   22   23 ar  
    48   22   48 1   
    49   23   49 1   
    50   24   25 1   
    51   24   26 2   
    52   25   50 1   
    53   25   51 1   
    54   25   54 1   
    55   26   52 1   
@<TRIPOS>SUBSTRUCTURE
     1 DID         1 TEMP              0 ****  ****    0 ROOT
