@<TRIPOS>MOLECULE
DID
   52    46     1     0     0
SMALL
bcc


@<TRIPOS>ATOM
      1 C4         -1.6200   -0.3060   -7.9720 c1        1 DID     -0.152500
      2 C5         -1.1460   -1.3650   -7.2060 c1        1 DID     -0.143500
      3 C6         -0.5570   -1.1160   -5.9490 c1        1 DID     -0.143500
      4 C1         -0.4510    0.1940   -5.4730 c1        1 DID      0.097000
      5 C2         -0.9240    1.2530   -6.2370 c1        1 DID     -0.165000
      6 C3         -1.5100    1.0140   -7.4860 c1        1 DID     -0.062000
      7 C9         -2.3150   -0.5710   -9.3050 c2        1 DID      0.119500
      8 N1         -1.5610   -0.5270  -10.5280 n3        1 DID     -0.331500
      9 N2         -3.6490   -0.8460   -9.3350 n1        1 DID     -0.305500
     10 O1          0.2800    0.4600   -4.2470 os        1 DID     -0.212000
     11 C7         -0.5040    0.4180   -3.1130 c3        1 DID     -0.022000
     12 C8          0.3770    0.4950   -1.8720 c3        1 DID     -0.165000
     13 C10        -0.4890    0.1600   -0.5970 c3        1 DID     -0.156000
     14 C11         0.3790    0.2460    0.6520 c3        1 DID     -0.156000
     15 C8'        -0.4670   -0.2140    1.9100 c3        1 DID     -0.165000
     16 C7'         0.4050   -0.1540    3.1560 c3        1 DID     -0.022000
     17 O1'        -0.3590   -0.5270    4.3000 os        1 DID     -0.212000
     18 C1'         0.3250   -0.3180    5.5360 c2        1 DID      0.097000
     19 C6'         0.1560    0.8800    6.2310 c2        1 DID     -0.162000
     20 C5'         0.7780    1.0650    7.4690 c1        1 DID     -0.082000
     21 C4'         1.5550    0.0690    8.0000 c1        1 DID     -0.152500
     22 C3'         1.7240   -1.1310    7.3030 c1        1 DID     -0.062000
     23 C2'         1.1020   -1.3140    6.0670 c1        1 DID     -0.213000
     24 C9'         2.2580    0.2810    9.3730 c2        1 DID      0.119500
     25 N1'         3.5600    0.8070    9.4200 n3        1 DID     -0.331500
     26 N2'         1.6540   -0.0180   10.4490 n1        1 DID     -0.305500
     27 H5         -1.2190   -2.2830   -7.5380 ha        1 DID      0.140000
     28 H6         -0.2330   -1.8350   -5.4250 ha        1 DID      0.140000
     29 H2         -0.8490    2.1610   -5.9020 ha        1 DID      0.153000
     30 H3         -1.8410    1.7610   -8.0190 ha        1 DID      0.151000
     31 HN11       -1.9740   -0.6290  -11.3060 hn        1 DID      0.192250
     32 HN12       -0.6740   -0.4620  -10.5010 hn        1 DID      0.192250
     33 HN2        -4.1370   -0.8730   -8.5380 DU        1 DID      0.149500
     34 H71        -1.1120    1.1600   -3.1190 h1        1 DID      0.080500
     35 H72        -1.0050   -0.4100   -3.1000 h1        1 DID      0.080500
     36 H81         0.7490    1.4130   -1.7860 hc        1 DID      0.098000
     37 H82         1.1230   -0.1620   -1.9530 hc        1 DID      0.098000
     38 H101       -0.8530   -0.7430   -0.6780 hc        1 DID      0.084000
     39 H102       -1.2220    0.7990   -0.5250 hc        1 DID      0.084000
     40 H111        1.1340   -0.3230    0.5550 hc        1 DID      0.084000
     41 H112        0.6880    1.1960    0.7830 hc        1 DID      0.084000
     42 H8'1       -0.7950   -1.1740    1.7680 hc        1 DID      0.098000
     43 H8'2       -1.2410    0.3820    2.0200 hc        1 DID      0.098000
     44 H7'1        0.7370    0.7440    3.2750 h1        1 DID      0.080500
     45 H7'2        1.1810   -0.7880    3.0510 h1        1 DID      0.080500
     46 H6'        -0.3900    1.5800    5.8590 ha        1 DID      0.153000
     47 H5'         0.6600    1.9030    7.9550 ha        1 DID      0.141000
     48 H3'         2.2760   -1.8390    7.6800 ha        1 DID      0.151000
     49 H2'         1.2210   -2.1670    5.5700 ha        1 DID      0.141000
     50 H1'1        3.9130    1.2130    8.6840 hn        1 DID      0.192250
     51 H1'2        4.0410    0.7970   10.2240 hn        1 DID      0.192250
     52 H1          0.8240   -0.3530   10.4190 DU        1 DID      0.149500
@<TRIPOS>BOND
     1    1    6 1   
     2    1    7 1   
     3    2    3 1   
     4    2   27 1   
     5    3   28 1   
     6    4    5 1   
     7    4   10 1   
     8    5   29 1   
     9    6   30 1   
    10    7    8 1   
    11    7    9 1   
    12    8   31 1   
    13    8   32 1   
    14   10   11 1   
    15   11   12 1   
    16   11   34 1   
    17   11   35 1   
    18   12   13 1   
    19   12   36 1   
    20   12   37 1   
    21   13   14 1   
    22   13   38 1   
    23   13   39 1   
    24   14   15 1   
    25   14   40 1   
    26   14   41 1   
    27   15   16 1   
    28   15   42 1   
    29   15   43 1   
    30   16   17 1   
    31   16   44 1   
    32   16   45 1   
    33   17   18 1   
    34   18   19 1   
    35   18   23 1   
    36   19   20 1   
    37   19   46 1   
    38   20   47 1   
    39   21   22 1   
    40   21   24 1   
    41   22   48 1   
    42   23   49 1   
    43   24   25 1   
    44   24   26 1   
    45   25   50 1   
    46   25   51 1   
@<TRIPOS>SUBSTRUCTURE
     1 DID         1 TEMP              0 ****  ****    0 ROOT
