@<TRIPOS>MOLECULE
DID
   54    55     1     0     0
SMALL
bcc


@<TRIPOS>ATOM
      1 C4         -0.2150    0.2520   -0.2880 ca        1 DID     -0.322900
      2 C5          1.1720    0.2400   -0.0670 ca        1 DID     -0.050000
      3 C6          1.6690    0.1230    1.2200 ca        1 DID     -0.181000
      4 C1          0.7700    0.0220    2.3080 ca        1 DID      0.198100
      5 C2         -0.6180    0.0310    2.0870 ca        1 DID     -0.181000
      6 C3         -1.1030    0.1460    0.7890 ca        1 DID     -0.050000
      7 C9         -0.7270    0.4390   -1.6570 ce        1 DID      0.599800
      8 N1         -1.2630   -0.8530   -2.2270 nz        1 DID     -0.826600
      9 N2         -0.7860    1.4610   -2.4170 n2        1 DID     -0.709100
     10 O1          1.3690   -0.0830    3.5310 os        1 DID     -0.308900
     11 C7          0.5030   -0.1110    4.6830 c3        1 DID      0.125400
     12 C8          1.4370   -0.1430    5.8810 c3        1 DID     -0.088400
     13 C10         0.6390   -0.1460    7.1670 c3        1 DID     -0.077400
     14 C11         1.5600   -0.1460    8.3710 c3        1 DID     -0.077400
     15 C8'         0.7620   -0.1420    9.6570 c3        1 DID     -0.088400
     16 C7'         1.6960   -0.1100   10.8550 c3        1 DID      0.125400
     17 O1'         0.8310   -0.0840   12.0070 os        1 DID     -0.308900
     18 C1'         1.4290    0.0210   13.2300 ca        1 DID      0.198100
     19 C6'         2.8170    0.0290   13.4510 ca        1 DID     -0.181000
     20 C5'         3.3020    0.1430   14.7490 ca        1 DID     -0.050000
     21 C4'         2.4140    0.2480   15.8260 ca        1 DID     -0.322900
     22 C3'         1.0270    0.2360   15.6050 ca        1 DID     -0.050000
     23 C2'         0.5300    0.1200   14.3190 ca        1 DID     -0.181000
     24 C9'         2.9260    0.4330   17.1950 ce        1 DID      0.599800
     25 N1'         3.4640   -0.8590   17.7640 nz        1 DID     -0.826600
     26 N2'         2.9840    1.4540   17.9580 n2        1 DID     -0.709100
     27 H5          1.8720    0.3320   -0.9140 ha        1 DID      0.147000
     28 H6          2.7540    0.1140    1.4150 ha        1 DID      0.172000
     29 H2         -1.3240   -0.0450    2.9280 ha        1 DID      0.172000
     30 H3         -2.1910    0.1720    0.6220 ha        1 DID      0.147000
     31 HN11       -0.4860   -1.5180   -2.2990 hn        1 DID      0.468800
     32 HN12       -1.9630   -1.2220   -1.5750 hn        1 DID      0.468800
     33 HN2        -0.4460    2.3360   -2.0730 hn        1 DID      0.491400
     34 H71        -0.1390   -1.0280    4.6380 h1        1 DID      0.051200
     35 H72        -0.1370    0.8090    4.6890 h1        1 DID      0.051200
     36 H81         2.1150    0.7500    5.8470 hc        1 DID      0.066200
     37 H82         2.0860   -1.0560    5.8230 hc        1 DID      0.066200
     38 H101       -0.0240   -1.0510    7.2010 hc        1 DID      0.049200
     39 H102       -0.0260    0.7570    7.2040 hc        1 DID      0.049200
     40 H111        2.2250    0.7560    8.3340 hc        1 DID      0.049200
     41 H112        2.2230   -1.0510    8.3380 hc        1 DID      0.049200
     42 H8'1        0.1130   -1.0550    9.7150 hc        1 DID      0.066200
     43 H8'2        0.0840    0.7510    9.6910 hc        1 DID      0.066200
     44 H7'1        2.3380   -1.0280   10.9000 h1        1 DID      0.051200
     45 H7'2        2.3360    0.8100   10.8500 h1        1 DID      0.051200
     46 H6'         3.5230   -0.0450   12.6110 ha        1 DID      0.172000
     47 H5'         4.3900    0.1700   14.9170 ha        1 DID      0.147000
     48 H3'         0.3280    0.3270   16.4530 ha        1 DID      0.147000
     49 H2'        -0.5550    0.1110   14.1240 ha        1 DID      0.172000
     50 H1'1        3.8890   -0.7300   18.6910 hn        1 DID      0.468800
     51 H1'2        4.1630   -1.2260   17.1110 hn        1 DID      0.468800
     52 H1          2.6430    2.3290   17.6140 hn        1 DID      0.491400
     53 H13        -1.6880   -0.7240   -3.1540 hn        1 DID      0.468800
     54 H1'3        2.6870   -1.5250   17.8350 hn        1 DID      0.468800
@<TRIPOS>BOND
     1    1    2 ar  
     2    1    6 ar  
     3    1    7 1   
     4    2    3 ar  
     5    2   27 1   
     6    3    4 ar  
     7    3   28 1   
     8    4    5 ar  
     9    4   10 1   
    10    5    6 ar  
    11    5   29 1   
    12    6   30 1   
    13    7    8 1   
    14    7    9 2   
    15    8   31 1   
    16    8   32 1   
    17    8   53 1   
    18    9   33 1   
    19   10   11 1   
    20   11   12 1   
    21   11   34 1   
    22   11   35 1   
    23   12   13 1   
    24   12   36 1   
    25   12   37 1   
    26   13   14 1   
    27   13   38 1   
    28   13   39 1   
    29   14   15 1   
    30   14   40 1   
    31   14   41 1   
    32   15   16 1   
    33   15   42 1   
    34   15   43 1   
    35   16   17 1   
    36   16   44 1   
    37   16   45 1   
    38   17   18 1   
    39   18   19 ar  
    40   18   23 ar  
    41   19   20 ar  
    42   19   46 1   
    43   20   21 ar  
    44   20   47 1   
    45   21   22 ar  
    46   21   24 1   
    47   22   23 ar  
    48   22   48 1   
    49   23   49 1   
    50   24   25 1   
    51   24   26 2   
    52   25   50 1   
    53   25   51 1   
    54   25   54 1   
    55   26   52 1   
@<TRIPOS>SUBSTRUCTURE
     1 DID         1 TEMP              0 ****  ****    0 ROOT
