@<TRIPOS>MOLECULE
DID
   54    55     1     0     0
SMALL
bcc


@<TRIPOS>ATOM
      1 C4         -0.2120    0.2490   -0.2880 ca        1 DID     -0.322900
      2 C5          1.1750    0.2290   -0.0670 ca        1 DID     -0.050000
      3 C6          1.6710    0.1110    1.2200 ca        1 DID     -0.181000
      4 C1          0.7720    0.0160    2.3080 ca        1 DID      0.198100
      5 C2         -0.6160    0.0330    2.0870 ca        1 DID     -0.181000
      6 C3         -1.1000    0.1490    0.7890 ca        1 DID     -0.050000
      7 C9         -0.7220    0.4380   -1.6580 ce        1 DID      0.599800
      8 N1         -1.2650   -0.8520   -2.2270 n4        1 DID     -0.826600
      9 N2         -0.7750    1.4590   -2.4190 n2        1 DID     -0.709100
     10 O1          1.3690   -0.0910    3.5310 os        1 DID     -0.308900
     11 C7          0.5030   -0.1120    4.6840 c3        1 DID      0.125400
     12 C8          1.4370   -0.1500    5.8820 c3        1 DID     -0.088400
     13 C10         0.6380   -0.1460    7.1680 c3        1 DID     -0.077400
     14 C11         1.5590   -0.1510    8.3710 c3        1 DID     -0.077400
     15 C8'         0.7600   -0.1390    9.6570 c3        1 DID     -0.088400
     16 C7'         1.6940   -0.1130   10.8550 c3        1 DID      0.125400
     17 O1'         0.8290   -0.0740   12.0070 os        1 DID     -0.308900
     18 C1'         1.4280    0.0280   13.2300 ca        1 DID      0.198100
     19 C6'         2.8160    0.0230   13.4510 ca        1 DID     -0.181000
     20 C5'         3.3020    0.1350   14.7490 ca        1 DID     -0.050000
     21 C4'         2.4160    0.2530   15.8260 ca        1 DID     -0.322900
     22 C3'         1.0280    0.2550   15.6040 ca        1 DID     -0.050000
     23 C2'         0.5300    0.1400   14.3180 ca        1 DID     -0.181000
     24 C9'         2.9290    0.4370   17.1940 ce        1 DID      0.599800
     25 N1'         3.4500   -0.8600   17.7680 n4        1 DID     -0.826600
     26 N2'         3.0000    1.4600   17.9530 n2        1 DID     -0.709100
     27 H5          1.8750    0.3170   -0.9140 ha        1 DID      0.147000
     28 H6          2.7560    0.0960    1.4150 ha        1 DID      0.172000
     29 H2         -1.3230   -0.0380    2.9270 ha        1 DID      0.172000
     30 H3         -2.1880    0.1820    0.6210 ha        1 DID      0.147000
     31 HN11       -0.4920   -1.5210   -2.2970 hn        1 DID      0.468800
     32 HN12       -1.9670   -1.2160   -1.5750 hn        1 DID      0.468800
     33 HN2        -0.4310    2.3330   -2.0750 hn        1 DID      0.491400
     34 H71        -0.1440   -1.0260    4.6380 h1        1 DID      0.051200
     35 H72        -0.1320    0.8110    4.6880 h1        1 DID      0.051200
     36 H81         2.1210    0.7380    5.8460 hc        1 DID      0.066200
     37 H82         2.0790   -1.0670    5.8250 hc        1 DID      0.066200
     38 H101       -0.0320   -1.0450    7.2020 hc        1 DID      0.049200
     39 H102       -0.0200    0.7630    7.2030 hc        1 DID      0.049200
     40 H111        2.2320    0.7460    8.3330 hc        1 DID      0.049200
     41 H112        2.2140   -1.0620    8.3400 hc        1 DID      0.049200
     42 H8'1        0.1030   -1.0450    9.7160 hc        1 DID      0.066200
     43 H8'2        0.0910    0.7610    9.6900 hc        1 DID      0.066200
     44 H7'1        2.3270   -1.0370   10.9030 h1        1 DID      0.051200
     45 H7'2        2.3440    0.8010   10.8480 h1        1 DID      0.051200
     46 H6'         3.5220   -0.0620   12.6110 ha        1 DID      0.172000
     47 H5'         4.3910    0.1510   14.9170 ha        1 DID      0.147000
     48 H3'         0.3290    0.3560   16.4510 ha        1 DID      0.147000
     49 H2'        -0.5540    0.1420   14.1230 ha        1 DID      0.172000
     50 H1'1        3.8760   -0.7330   18.6950 hn        1 DID      0.468800
     51 H1'2        4.1450   -1.2380   17.1180 hn        1 DID      0.468800
     52 H1          2.6700    2.3380   17.6050 hn        1 DID      0.491400
     53 H13        -1.6890   -0.7210   -3.1540 hn        1 DID      0.468800
     54 H1'3        2.6650   -1.5150   17.8410 hn        1 DID      0.468800
@<TRIPOS>BOND
     1    1    2 ar  
     2    1    6 ar  
     3    1    7 1   
     4    2    3 ar  
     5    2   27 1   
     6    3    4 ar  
     7    3   28 1   
     8    4    5 ar  
     9    4   10 1   
    10    5    6 ar  
    11    5   29 1   
    12    6   30 1   
    13    7    8 1   
    14    7    9 2   
    15    8   31 1   
    16    8   32 1   
    17    8   53 1   
    18    9   33 1   
    19   10   11 1   
    20   11   12 1   
    21   11   34 1   
    22   11   35 1   
    23   12   13 1   
    24   12   36 1   
    25   12   37 1   
    26   13   14 1   
    27   13   38 1   
    28   13   39 1   
    29   14   15 1   
    30   14   40 1   
    31   14   41 1   
    32   15   16 1   
    33   15   42 1   
    34   15   43 1   
    35   16   17 1   
    36   16   44 1   
    37   16   45 1   
    38   17   18 1   
    39   18   19 ar  
    40   18   23 ar  
    41   19   20 ar  
    42   19   46 1   
    43   20   21 ar  
    44   20   47 1   
    45   21   22 ar  
    46   21   24 1   
    47   22   23 ar  
    48   22   48 1   
    49   23   49 1   
    50   24   25 1   
    51   24   26 2   
    52   25   50 1   
    53   25   51 1   
    54   25   54 1   
    55   26   52 1   
@<TRIPOS>SUBSTRUCTURE
     1 DID         1 TEMP              0 ****  ****    0 ROOT
