@<TRIPOS>MOLECULE
DID
   52    53     1     0     0
SMALL
bcc


@<TRIPOS>ATOM
      1 C4          0.1680    0.0610    8.1670 ca        1 DID     -0.208400
      2 C5         -1.1420   -0.2410    7.7690 ca        1 DID     -0.068000
      3 C6         -1.4650   -0.3290    6.4230 ca        1 DID     -0.188750
      4 C1         -0.4640   -0.1040    5.4570 ca        1 DID      0.141600
      5 C2          0.8460    0.2020    5.8460 ca        1 DID     -0.188750
      6 C3          1.1540    0.2810    7.2040 ca        1 DID     -0.068000
      7 C9          0.4830    0.1690    9.6260 ce        1 DID      0.648800
      8 N1          1.6460   -0.5280   10.0220 nh        1 DID     -0.925300
      9 N2         -0.2010    0.8850   10.4700 n2        1 DID     -0.832100
     10 O1         -0.8910   -0.2150    4.1510 os        1 DID     -0.329400
     11 C7          0.1000    0.0260    3.1420 c3        1 DID      0.128900
     12 C8         -0.6170   -0.1410    1.8140 c3        1 DID     -0.086400
     13 C10         0.3420    0.0950    0.6690 c3        1 DID     -0.077400
     14 C11        -0.3560   -0.0680   -0.6650 c3        1 DID     -0.077400
     15 C8'         0.6040    0.1690   -1.8100 c3        1 DID     -0.086400
     16 C7'        -0.1130    0.0000   -3.1380 c3        1 DID      0.128900
     17 O1'         0.8760    0.2490   -4.1460 os        1 DID     -0.329400
     18 C1'         0.4560    0.1050   -5.4520 ca        1 DID      0.141600
     19 C6'        -0.8560   -0.1920   -5.8410 ca        1 DID     -0.188750
     20 C5'        -1.1580   -0.3000   -7.1980 ca        1 DID     -0.068000
     21 C4'        -0.1640   -0.1110   -8.1600 ca        1 DID     -0.208400
     22 C3'         1.1500    0.1730   -7.7640 ca        1 DID     -0.068000
     23 C2'         1.4670    0.2870   -6.4170 ca        1 DID     -0.188750
     24 C9'        -0.4890   -0.2310   -9.6160 ce        1 DID      0.648800
     25 N1'        -1.6510    0.4730  -10.0100 nh        1 DID     -0.925300
     26 N2'         0.2560   -0.9930  -10.3590 n2        1 DID     -0.832100
     27 H5         -1.9210   -0.4150    8.5270 ha        1 DID      0.146500
     28 H6         -2.4870   -0.5690    6.0950 ha        1 DID      0.146250
     29 H2          1.6330    0.3830    5.1010 ha        1 DID      0.146250
     30 H3          2.1830    0.5260    7.5130 ha        1 DID      0.146500
     31 HN11        1.7820   -0.6030   11.0080 hn        1 DID      0.396800
     32 HN12        1.7640   -1.3910    9.5410 hn        1 DID      0.396800
     33 HN2        -0.9380    1.4120   10.0530 hn        1 DID      0.387900
     34 H71         0.5050    1.0660    3.2560 h1        1 DID      0.040700
     35 H72         0.9320   -0.7180    3.2500 h1        1 DID      0.040700
     36 H81        -1.0500   -1.1730    1.7520 hc        1 DID      0.058700
     37 H82        -1.4730    0.5820    1.7600 hc        1 DID      0.058700
     38 H101        0.7740    1.1280    0.7430 hc        1 DID      0.044450
     39 H102        1.1980   -0.6280    0.7360 hc        1 DID      0.044450
     40 H111       -0.7870   -1.1010   -0.7390 hc        1 DID      0.044450
     41 H112       -1.2120    0.6550   -0.7320 hc        1 DID      0.044450
     42 H8'1        1.0350    1.2020   -1.7480 hc        1 DID      0.058700
     43 H8'2        1.4600   -0.5520   -1.7550 hc        1 DID      0.058700
     44 H7'1       -0.5140   -1.0410   -3.2520 h1        1 DID      0.040700
     45 H7'2       -0.9480    0.7410   -3.2440 h1        1 DID      0.040700
     46 H6'        -1.6490   -0.3460   -5.0970 ha        1 DID      0.146250
     47 H5'        -2.1870   -0.5490   -7.5020 ha        1 DID      0.146500
     48 H3'         1.9390    0.2960   -8.5230 ha        1 DID      0.146500
     49 H2'         2.4920    0.5110   -6.0900 ha        1 DID      0.146250
     50 H1'1       -1.7340    0.6900  -10.9760 hn        1 DID      0.396800
     51 H1'2       -1.9270    1.2090   -9.4030 hn        1 DID      0.396800
     52 H1          0.0130   -1.0470  -11.3250 hn        1 DID      0.387900
@<TRIPOS>BOND
     1    1    2 ar  
     2    1    6 ar  
     3    1    7 1   
     4    2    3 ar  
     5    2   27 1   
     6    3    4 ar  
     7    3   28 1   
     8    4    5 ar  
     9    4   10 1   
    10    5    6 ar  
    11    5   29 1   
    12    6   30 1   
    13    7    8 1   
    14    7    9 2   
    15    8   31 1   
    16    8   32 1   
    17    9   33 1   
    18   10   11 1   
    19   11   12 1   
    20   11   34 1   
    21   11   35 1   
    22   12   13 1   
    23   12   36 1   
    24   12   37 1   
    25   13   14 1   
    26   13   38 1   
    27   13   39 1   
    28   14   15 1   
    29   14   40 1   
    30   14   41 1   
    31   15   16 1   
    32   15   42 1   
    33   15   43 1   
    34   16   17 1   
    35   16   44 1   
    36   16   45 1   
    37   17   18 1   
    38   18   19 ar  
    39   18   23 ar  
    40   19   20 ar  
    41   19   46 1   
    42   20   21 ar  
    43   20   47 1   
    44   21   22 ar  
    45   21   24 1   
    46   22   23 ar  
    47   22   48 1   
    48   23   49 1   
    49   24   25 1   
    50   24   26 2   
    51   25   50 1   
    52   25   51 1   
    53   26   52 1   
@<TRIPOS>SUBSTRUCTURE
     1 DID         1 TEMP              0 ****  ****    0 ROOT
