@<TRIPOS>MOLECULE
DIE
   25    25     1     0     0
SMALL
bcc


@<TRIPOS>ATOM
      1 C10        -0.0770   -0.1040    0.0560 c3        1 DIE     -0.092100
      2 C9          1.4240    0.0660    0.0900 c3        1 DIE     -0.032600
      3 C6          1.9680    0.0330    1.4760 ca        1 DIE     -0.127800
      4 C5          2.3310    1.2290    2.1050 ca        1 DIE     -0.098500
      5 C4          2.8520    1.2260    3.3950 ca        1 DIE     -0.161000
      6 C3          3.0220    0.0220    4.0790 ca        1 DIE     -0.098500
      7 C2          2.6720   -1.1910    3.4860 ca        1 DIE     -0.127800
      8 C7          2.8470   -2.4760    4.2160 c3        1 DIE     -0.032600
      9 C8          4.1010   -3.2030    3.7890 c3        1 DIE     -0.092100
     10 C1          2.1410   -1.1750    2.1770 ca        1 DIE      0.130100
     11 O1          1.8190   -2.4050    1.6470 oh        1 DIE     -0.501100
     12 H10        -0.4380   -0.1080   -1.0010 hc        1 DIE      0.037033
     13 H10A       -0.5780    0.7330    0.5990 hc        1 DIE      0.037033
     14 H10B       -0.3830   -1.0630    0.5400 hc        1 DIE      0.037033
     15 H9          1.9110   -0.7370   -0.5280 hc        1 DIE      0.048700
     16 H9A         1.6920    1.0440   -0.3930 hc        1 DIE      0.048700
     17 H5          2.2010    2.1810    1.5690 ha        1 DIE      0.132500
     18 H4          3.1320    2.1740    3.8770 ha        1 DIE      0.132000
     19 H3          3.4340    0.0250    5.0990 ha        1 DIE      0.132500
     20 H7          1.9560   -3.1320    4.0170 hc        1 DIE      0.048700
     21 H7A         2.8840   -2.2800    5.3210 hc        1 DIE      0.048700
     22 H8          4.1930   -4.1650    4.3470 hc        1 DIE      0.037033
     23 H8A         4.0610   -3.4260    2.6950 hc        1 DIE      0.037033
     24 H8B         5.0070   -2.5840    3.9930 hc        1 DIE      0.037033
     25 HO1         1.3910   -2.2670    0.7900 ho        1 DIE      0.421000
@<TRIPOS>BOND
     1    1    2 1   
     2    1   12 1   
     3    1   13 1   
     4    1   14 1   
     5    2    3 1   
     6    2   15 1   
     7    2   16 1   
     8    3    4 ar  
     9    3   10 ar  
    10    4    5 ar  
    11    4   17 1   
    12    5    6 ar  
    13    5   18 1   
    14    6    7 ar  
    15    6   19 1   
    16    7    8 1   
    17    7   10 ar  
    18    8    9 1   
    19    8   20 1   
    20    8   21 1   
    21    9   22 1   
    22    9   23 1   
    23    9   24 1   
    24   10   11 1   
    25   11   25 1   
@<TRIPOS>SUBSTRUCTURE
     1 DIE         1 TEMP              0 ****  ****    0 ROOT
