@<TRIPOS>MOLECULE
DIE
   25    25     1     0     0
SMALL
bcc


@<TRIPOS>ATOM
      1 C10        -0.0230   -0.0050   -0.0350 c3        1 DIE     -0.092100
      2 C9          1.4830    0.1050    0.0200 c3        1 DIE     -0.032600
      3 C6          1.9910    0.0830    1.4190 ca        1 DIE     -0.127800
      4 C5          2.3460    1.2650    2.0700 ca        1 DIE     -0.098500
      5 C4          2.8270    1.2420    3.3780 ca        1 DIE     -0.161000
      6 C3          2.9590    0.0330    4.0530 ca        1 DIE     -0.098500
      7 C2          2.6150   -1.1750    3.4350 ca        1 DIE     -0.127800
      8 C7          2.7540   -2.4530    4.1860 c3        1 DIE     -0.032600
      9 C8          3.9820   -3.2310    3.7770 c3        1 DIE     -0.092100
     10 C1          2.1320   -1.1380    2.1140 ca        1 DIE      0.130100
     11 O1          1.7630   -2.2690    1.4170 oh        1 DIE     -0.501100
     12 H10        -0.3680    0.0030   -1.0970 hc        1 DIE      0.037033
     13 H10A       -0.5030    0.8490    0.5000 hc        1 DIE      0.037033
     14 H10B       -0.3560   -0.9580    0.4430 hc        1 DIE      0.037033
     15 H9          1.9350   -0.7560   -0.5450 hc        1 DIE      0.048700
     16 H9A         1.8100    1.0520   -0.4860 hc        1 DIE      0.048700
     17 H5          2.2440    2.2240    1.5400 ha        1 DIE      0.132500
     18 H4          3.1030    2.1830    3.8770 ha        1 DIE      0.132000
     19 H3          3.3370    0.0210    5.0870 ha        1 DIE      0.132500
     20 H7          1.8360   -3.0840    4.0340 hc        1 DIE      0.048700
     21 H7A         2.8100   -2.2340    5.2870 hc        1 DIE      0.048700
     22 H8          4.0300   -4.1950    4.3370 hc        1 DIE      0.037033
     23 H8A         3.9680   -3.4560    2.6830 hc        1 DIE      0.037033
     24 H8B         4.9080   -2.6460    3.9980 hc        1 DIE      0.037033
     25 HO1         1.9790   -3.0440    1.9540 ho        1 DIE      0.421000
@<TRIPOS>BOND
     1    1    2 1   
     2    1   12 1   
     3    1   13 1   
     4    1   14 1   
     5    2    3 1   
     6    2   15 1   
     7    2   16 1   
     8    3    4 ar  
     9    3   10 ar  
    10    4    5 ar  
    11    4   17 1   
    12    5    6 ar  
    13    5   18 1   
    14    6    7 ar  
    15    6   19 1   
    16    7    8 1   
    17    7   10 ar  
    18    8    9 1   
    19    8   20 1   
    20    8   21 1   
    21    9   22 1   
    22    9   23 1   
    23    9   24 1   
    24   10   11 1   
    25   11   25 1   
@<TRIPOS>SUBSTRUCTURE
     1 DIE         1 TEMP              0 ****  ****    0 ROOT
