@<TRIPOS>MOLECULE
DIE
   25    23     1     0     0
SMALL
bcc


@<TRIPOS>ATOM
      1 C10        -2.2380    0.7380   -2.3790 c3        1 DIE     -0.215000
      2 C9         -0.7300    0.8620   -2.3610 c3        1 DIE     -0.124000
      3 C6         -0.2390    0.8410   -0.9290 c2        1 DIE     -0.150000
      4 C5         -0.3490    1.9770   -0.1430 c1        1 DIE     -0.095000
      5 C4          0.1380    1.9720    1.1540 c1        1 DIE     -0.131000
      6 C3          0.7350    0.8300    1.6660 c1        1 DIE     -0.131000
      7 C2          0.8440   -0.3060    0.8800 c1        1 DIE     -0.092000
      8 C7          1.5510   -1.5320    1.4170 c3        1 DIE     -0.118000
      9 C8          0.6890   -2.1890    2.4730 c3        1 DIE     -0.205000
     10 C1          0.3570   -0.3010   -0.4180 c2        1 DIE      0.087000
     11 O1          0.5040   -1.4410   -1.2290 oh        1 DIE     -0.257000
     12 H10        -2.5430    0.3390   -1.5370 hc        1 DIE      0.077667
     13 H10A       -2.5090    0.1670   -3.1280 hc        1 DIE      0.077667
     14 H10B       -2.6370    1.6260   -2.4830 hc        1 DIE      0.077667
     15 H9         -0.4670    1.7040   -2.7830 hc        1 DIE      0.086000
     16 H9A        -0.3350    0.1130   -2.8510 hc        1 DIE      0.086000
     17 H5         -0.7680    2.7810   -0.5030 ha        1 DIE      0.131000
     18 H4          0.0620    2.7720    1.7080 ha        1 DIE      0.133000
     19 H3          1.0780    0.8260    2.5800 ha        1 DIE      0.133000
     20 H7          1.7100   -2.1630    0.6860 hc        1 DIE      0.093500
     21 H7A         2.4060   -1.2680    1.8120 hc        1 DIE      0.093500
     22 H8          1.0360   -3.0860    2.6660 hc        1 DIE      0.073333
     23 H8A         0.7060   -1.6490    3.2910 hc        1 DIE      0.073333
     24 H8B        -0.2320   -2.2590    2.1460 hc        1 DIE      0.073333
     25 HO1         1.2330   -1.3540   -1.7320 ho        1 DIE      0.220000
@<TRIPOS>BOND
     1    1    2 1   
     2    1   12 1   
     3    1   13 1   
     4    1   14 1   
     5    2    3 1   
     6    2   15 1   
     7    2   16 1   
     8    3    4 1   
     9    3   10 1   
    10    4   17 1   
    11    5    6 1   
    12    5   18 1   
    13    6   19 1   
    14    7    8 1   
    15    7   10 1   
    16    8    9 1   
    17    8   20 1   
    18    8   21 1   
    19    9   22 1   
    20    9   23 1   
    21    9   24 1   
    22   10   11 1   
    23   11   25 1   
@<TRIPOS>SUBSTRUCTURE
     1 DIE         1 TEMP              0 ****  ****    0 ROOT
