@<TRIPOS>MOLECULE
DIE
   25    25     1     0     0
SMALL
bcc


@<TRIPOS>ATOM
      1 C10         3.1560   -0.9740   -0.6270 c3        1 DIE     -0.092100
      2 C9          2.4810   -0.4460    0.6170 c3        1 DIE     -0.032600
      3 C6          1.2220    0.2810    0.3020 ca        1 DIE     -0.127800
      4 C5          1.1920    1.6750    0.2570 ca        1 DIE     -0.098500
      5 C4          0.0090    2.3540   -0.0340 ca        1 DIE     -0.161000
      6 C3         -1.1610    1.6450   -0.2830 ca        1 DIE     -0.098500
      7 C2         -1.1730    0.2460   -0.2470 ca        1 DIE     -0.127800
      8 C7         -2.4370   -0.4880   -0.5300 c3        1 DIE     -0.032600
      9 C8         -3.1010   -1.0000    0.7270 c3        1 DIE     -0.092100
     10 C1          0.0260   -0.4280    0.0500 ca        1 DIE      0.130100
     11 O1          0.1230   -1.8020    0.1070 oh        1 DIE     -0.501100
     12 H10         4.0890   -1.5220   -0.3530 hc        1 DIE      0.037033
     13 H10A        2.4730   -1.6760   -1.1650 hc        1 DIE      0.037033
     14 H10B        3.4240   -0.1390   -1.3180 hc        1 DIE      0.037033
     15 H9          2.2440   -1.3070    1.3010 hc        1 DIE      0.048700
     16 H9A         3.1840    0.2370    1.1650 hc        1 DIE      0.048700
     17 H5          2.1150    2.2410    0.4540 ha        1 DIE      0.132500
     18 H4          0.0020    3.4530   -0.0660 ha        1 DIE      0.132000
     19 H3         -2.0910    2.1860   -0.5140 ha        1 DIE      0.132500
     20 H7         -3.1510    0.1930   -1.0690 hc        1 DIE      0.048700
     21 H7A        -2.2300   -1.3460   -1.2260 hc        1 DIE      0.048700
     22 H8         -4.0240   -1.5720    0.4670 hc        1 DIE      0.037033
     23 H8A        -2.4160   -1.6720    1.2970 hc        1 DIE      0.037033
     24 H8B        -3.3860   -0.1500    1.3920 hc        1 DIE      0.037033
     25 HO1        -0.7640   -2.1750    0.0020 ho        1 DIE      0.421000
@<TRIPOS>BOND
     1    1    2 1   
     2    1   12 1   
     3    1   13 1   
     4    1   14 1   
     5    2    3 1   
     6    2   15 1   
     7    2   16 1   
     8    3    4 ar  
     9    3   10 ar  
    10    4    5 ar  
    11    4   17 1   
    12    5    6 ar  
    13    5   18 1   
    14    6    7 ar  
    15    6   19 1   
    16    7    8 1   
    17    7   10 ar  
    18    8    9 1   
    19    8   20 1   
    20    8   21 1   
    21    9   22 1   
    22    9   23 1   
    23    9   24 1   
    24   10   11 1   
    25   11   25 1   
@<TRIPOS>SUBSTRUCTURE
     1 DIE         1 TEMP              0 ****  ****    0 ROOT
