@<TRIPOS>MOLECULE
DIF
   29    27     1     0     0
SMALL
bcc


@<TRIPOS>ATOM
      1 C1          2.2160   -3.0210   -0.2160 c2        1 DIF     -0.481000
      2 C2          1.0380   -3.0430    0.6070 c2        1 DIF      0.049000
      3 CL2        -0.2290   -4.0650    0.0490 cl        1 DIF     -0.078000
      4 C3          0.9230   -2.3070    1.7260 c2        1 DIF     -0.168000
      5 C4         -0.2240   -2.2330    2.6120 c2        1 DIF     -0.020000
      6 CL4        -0.7970   -3.7140    3.2720 cl        1 DIF     -0.071000
      7 C5         -0.8040   -1.0810    2.9640 c2        1 DIF     -0.226000
      8 C6          2.6540   -3.6990   -1.2400 c1        1 DIF      0.158000
      9 N1          3.5230    3.2710    0.3420 n1        1 DIF     -0.096000
     10 C7          5.5350    1.9890    1.3420 c2        1 DIF     -0.082000
     11 C8          4.4220    2.6920    0.8010 c1        1 DIF     -0.052000
     12 C9          5.7610    5.7860    3.5720 c2        1 DIF     -0.241000
     13 C10         5.6580    4.6070    2.9520 c2        1 DIF     -0.107000
     14 C11         6.7830    3.9260    2.3470 c2        1 DIF     -0.161000
     15 C12         6.7240    2.7790    1.6540 c2        1 DIF     -0.081000
     16 C14         4.4020   -0.2970    1.2310 c2        1 DIF      0.349000
     17 O1          4.5000   -1.0120    0.1890 o         1 DIF     -0.557500
     18 O2          3.4470   -0.3890    2.0500 o         1 DIF     -0.557500
     19 H1          2.9840   -2.2090    0.0860 ha        1 DIF      0.313000
     20 H5         -0.4380   -0.1230    2.5700 ha        1 DIF      0.127500
     21 H6         -1.6540   -1.0240    3.6540 ha        1 DIF      0.127500
     22 HN1         1.7770   -1.6420    2.0120 ha        1 DIF      0.230000
     23 H9          6.7090    6.3310    3.6620 ha        1 DIF      0.102000
     24 H10         4.8950    6.2800    4.0270 ha        1 DIF      0.102000
     25 H11         4.6840    4.0900    2.8830 ha        1 DIF      0.142000
     26 H12         7.7660    4.4100    2.4940 ha        1 DIF      0.108000
     27 H131        7.6630    2.3360    1.2740 ha        1 DIF      0.117000
     28 H132        6.4310    0.1570    1.9270 ha        1 DIF      0.120000
     29 C13         5.5310    0.6540    1.5250 c2        1 DIF     -0.063000
@<TRIPOS>BOND
     1    1    2 1   
     2    1    8 1   
     3    1   19 1   
     4    2    3 1   
     5    2    4 1   
     6    4    5 1   
     7    4   22 1   
     8    5    6 1   
     9    5    7 1   
    10    7   20 1   
    11    7   21 1   
    12    9   11 1   
    13   10   11 1   
    14   10   15 1   
    15   10   29 1   
    16   12   13 1   
    17   12   23 1   
    18   12   24 1   
    19   13   14 1   
    20   13   25 1   
    21   14   15 1   
    22   14   26 1   
    23   15   27 1   
    24   16   17 1   
    25   16   18 1   
    26   16   29 1   
    27   28   29 1   
@<TRIPOS>SUBSTRUCTURE
     1 DIF         1 TEMP              0 ****  ****    0 ROOT
