@<TRIPOS>MOLECULE
DIF
   29    27     1     0     0
SMALL
bcc


@<TRIPOS>ATOM
      1 C1         -2.4390   -0.0250   -1.0120 c1        1 DIF     -0.250000
      2 C2          1.7560    0.2040    0.2090 c1        1 DIF     -0.171000
      3 CL2         2.6860    0.6510   -1.1370 cl        1 DIF     -0.129000
      4 C3          2.3090   -0.0420    1.4290 c2        1 DIF     -0.173000
      5 C4          1.4260   -0.4310    2.5350 c2        1 DIF      0.024000
      6 CL4         1.7340    0.3180    4.0530 cl        1 DIF     -0.080000
      7 C5          0.4050   -1.2810    2.3970 c2        1 DIF     -0.216000
      8 C6         -1.2980    0.0320   -0.6550 c1        1 DIF     -0.250000
      9 N1          3.6710    0.0350    1.7200 n2        1 DIF      0.044000
     10 C7          6.1990    0.4710    2.0020 c2        1 DIF     -0.096000
     11 C8          4.8090    0.2150    1.8710 c1        1 DIF      0.197000
     12 C9          4.5110    4.3650    3.1570 c2        1 DIF     -0.214000
     13 C10         5.0520    3.1710    2.9020 c2        1 DIF     -0.129000
     14 C11         6.1580    2.9800    1.9870 c2        1 DIF     -0.139000
     15 C12         6.6580    1.7970    1.6010 c2        1 DIF     -0.103000
     16 C14         6.6120   -1.8830    2.8640 c2        1 DIF      0.335000
     17 O1          7.5310   -2.6740    3.2000 o         1 DIF     -0.527000
     18 O2          5.3770   -2.1370    2.8420 o         1 DIF     -0.527000
     19 H1         -3.4470   -0.0780   -1.3280 ha        1 DIF      0.240000
     20 H5          0.2060   -1.7640    1.4300 ha        1 DIF      0.127500
     21 H6         -0.2850   -1.5220    3.2130 ha        1 DIF      0.127500
     22 HN1        -0.2650    0.0860   -0.3340 ha        1 DIF      0.240000
     23 H9          4.8600    5.2920    2.6830 ha        1 DIF      0.108000
     24 H10         3.6720    4.4850    3.8550 ha        1 DIF      0.108000
     25 H11         4.6670    2.2620    3.4000 ha        1 DIF      0.137000
     26 H12         6.6140    3.9060    1.5920 ha        1 DIF      0.116000
     27 H131        7.5300    1.7740    0.9210 ha        1 DIF      0.126000
     28 H132        8.1240   -0.2770    2.5260 ha        1 DIF      0.131000
     29 C13         7.0450   -0.4840    2.4450 c2        1 DIF     -0.056000
@<TRIPOS>BOND
     1    1    8 1   
     2    1   19 1   
     3    2    3 1   
     4    2    4 1   
     5    4    5 1   
     6    4    9 1   
     7    5    6 1   
     8    5    7 1   
     9    7   20 1   
    10    7   21 1   
    11    8   22 1   
    12    9   11 1   
    13   10   11 1   
    14   10   15 1   
    15   10   29 1   
    16   12   13 1   
    17   12   23 1   
    18   12   24 1   
    19   13   14 1   
    20   13   25 1   
    21   14   15 1   
    22   14   26 1   
    23   15   27 1   
    24   16   17 1   
    25   16   18 1   
    26   16   29 1   
    27   28   29 1   
@<TRIPOS>SUBSTRUCTURE
     1 DIF         1 TEMP              0 ****  ****    0 ROOT
