@<TRIPOS>MOLECULE
DIF
   29    30     1     0     0
SMALL
bcc


@<TRIPOS>ATOM
      1 C1         -0.0340    0.4930   -3.6680 ca        1 DIF     -0.108000
      2 C2          0.2010    0.6440   -2.3020 ca        1 DIF     -0.037600
      3 CL2         0.8770    2.1190   -1.7820 cl        1 DIF     -0.075900
      4 C3         -0.0740   -0.4020   -1.3770 ca        1 DIF      0.208600
      5 C4         -0.5540   -1.6250   -1.9370 ca        1 DIF     -0.037600
      6 CL4        -0.8860   -2.9500   -0.9280 cl        1 DIF     -0.075900
      7 C5         -0.7600   -1.7710   -3.3060 ca        1 DIF     -0.108000
      8 C6         -0.5140   -0.7100   -4.1740 ca        1 DIF     -0.175000
      9 N1          0.2020   -0.2960   -0.0220 nh        1 DIF     -0.641000
     10 C7          0.2580    0.9230    2.0880 ca        1 DIF     -0.041300
     11 C8         -0.2950    0.7420    0.7860 ca        1 DIF      0.162600
     12 C9         -1.3400    1.5890    0.3620 ca        1 DIF     -0.182000
     13 C10        -1.8220    2.5960    1.1930 ca        1 DIF     -0.133000
     14 C11        -1.2870    2.7700    2.4650 ca        1 DIF     -0.169000
     15 C12        -0.2600    1.9350    2.9000 ca        1 DIF     -0.120000
     16 C14         0.8950   -1.3370    3.0280 c         1 DIF      0.918600
     17 O1          0.8300   -1.5880    4.2590 o         1 DIF     -0.835300
     18 O2          0.6420   -2.1830    2.1170 o         1 DIF     -0.835300
     19 H1          0.1770    1.3300   -4.3520 ha        1 DIF      0.133000
     20 H5         -1.1280   -2.7290   -3.7040 ha        1 DIF      0.133000
     21 H6         -0.6930   -0.8250   -5.2510 ha        1 DIF      0.124000
     22 HN1         0.3920   -1.1620    0.4870 hn        1 DIF      0.513800
     23 H9         -1.7850    1.4550   -0.6350 ha        1 DIF      0.123000
     24 H10        -2.6350    3.2460    0.8400 ha        1 DIF      0.109000
     25 H11        -1.6740    3.5560    3.1270 ha        1 DIF      0.110000
     26 H12         0.1520    2.0620    3.9130 ha        1 DIF      0.130000
     27 H131        1.8350    0.5630    3.4910 hc        1 DIF      0.042700
     28 H132        2.1540   -0.0480    1.8160 hc        1 DIF      0.042700
     29 C13         1.3620    0.0750    2.5990 c3        1 DIF     -0.176100
@<TRIPOS>BOND
     1    1    2 ar  
     2    1    8 ar  
     3    1   19 1   
     4    2    3 1   
     5    2    4 ar  
     6    4    5 ar  
     7    4    9 1   
     8    5    6 1   
     9    5    7 ar  
    10    7    8 ar  
    11    7   20 1   
    12    8   21 1   
    13    9   11 1   
    14    9   22 1   
    15   10   11 ar  
    16   10   15 ar  
    17   10   29 1   
    18   11   12 ar  
    19   12   13 ar  
    20   12   23 1   
    21   13   14 ar  
    22   13   24 1   
    23   14   15 ar  
    24   14   25 1   
    25   15   26 1   
    26   16   17 1   
    27   16   18 1   
    28   16   29 1   
    29   27   29 1   
    30   28   29 1   
@<TRIPOS>SUBSTRUCTURE
     1 DIF         1 TEMP              0 ****  ****    0 ROOT
