@<TRIPOS>MOLECULE
DIF
   29    24     1     0     0
SMALL
bcc


@<TRIPOS>ATOM
      1 C1         -3.9130   -0.5100   -0.4980 c1        1 DIF     -0.089000
      2 C2         -2.6550   -0.2210   -1.0020 c1        1 DIF     -0.019100
      3 CL2        -2.5010    0.6760   -2.4890 cl        1 DIF     -0.104900
      4 C3         -1.5260   -0.7510   -0.3940 c1        1 DIF      0.182800
      5 C4         -1.6570   -1.5690    0.7180 c1        1 DIF     -0.033100
      6 CL4        -0.2520   -2.3470    1.3940 cl        1 DIF     -0.069900
      7 C5         -2.9170   -1.8580    1.2210 c1        1 DIF     -0.049500
      8 C6         -4.0430   -1.3290    0.6140 c1        1 DIF     -0.089000
      9 N1         -0.2290   -0.4590   -0.9180 n3        1 DIF     -0.589400
     10 C7          1.9340    0.5200   -0.3530 c1        1 DIF     -0.007100
     11 C8          0.5460    0.6010   -0.3570 c1        1 DIF      0.136800
     12 C9         -0.0830    1.7470    0.1060 c1        1 DIF     -0.124500
     13 C10         0.6740    2.8120    0.5740 c1        1 DIF     -0.089000
     14 C11         2.0580    2.7300    0.5770 c1        1 DIF     -0.089000
     15 C12         2.6880    1.5830    0.1130 c1        1 DIF     -0.062500
     16 C13         2.6230   -0.7520   -0.8230 c3        1 DIF     -0.210300
     17 C14         3.5090   -1.2870    0.2870 c         1 DIF      0.918600
     18 O1          4.5170   -1.9880    0.0060 o         1 DIF     -0.835300
     19 O2          3.2370   -1.0280    1.4910 o         1 DIF     -0.835300
     20 H1         -4.7080   -0.1380   -0.9270 ha        1 DIF      0.061250
     21 H5         -3.0090   -2.4340    2.0040 ha        1 DIF      0.076500
     22 H6         -4.9310   -1.5330    0.9690 ha        1 DIF      0.061250
     23 HN1         0.0940   -0.9330   -1.6260 hn        1 DIF      0.513800
     24 H9         -1.0540    1.8240    0.0560 ha        1 DIF      0.065500
     25 H10         0.2320    3.6180    0.9000 ha        1 DIF      0.061250
     26 H11         2.5910    3.4800    0.9060 ha        1 DIF      0.061250
     27 H12         3.6620    1.5250    0.1150 ha        1 DIF      0.072500
     28 H131        1.9460   -1.4250   -1.0540 hc        1 DIF      0.042700
     29 H132        3.1680   -0.5560   -1.6090 hc        1 DIF      0.042700
@<TRIPOS>BOND
     1    1    8 3   
     2    1   20 1   
     3    2    3 1   
     4    2    4 3   
     5    4    9 1   
     6    5    6 1   
     7    5    7 3   
     8    7   21 1   
     9    8   22 1   
    10    9   11 1   
    11    9   23 1   
    12   10   15 3   
    13   10   16 1   
    14   11   12 3   
    15   12   24 1   
    16   13   14 3   
    17   13   25 1   
    18   14   26 1   
    19   15   27 1   
    20   16   17 1   
    21   16   28 1   
    22   16   29 1   
    23   17   18 1   
    24   17   19 1   
@<TRIPOS>SUBSTRUCTURE
     1 DIF         1 TEMP              0 ****  ****    0 ROOT
