@<TRIPOS>MOLECULE
DIF
   29    28     1     0     0
SMALL
bcc


@<TRIPOS>ATOM
      1 C1          0.5860    1.8360    1.4990 c2        1 DIF     -0.304000
      2 C2          1.0430    0.5910    0.9800 c2        1 DIF     -0.401000
      3 Cl2         0.9820    0.3990   -0.7180 cl        1 DIF     -0.091000
      4 C3          1.6490   -0.3970    1.8020 c3        1 DIF      0.210000
      5 C4          1.4340   -1.8280    1.3830 c2        1 DIF     -0.052000
      6 Cl4         2.3580   -2.4440    0.0860 cl        1 DIF     -0.037000
      7 C5          0.5320   -2.5990    1.9960 c2        1 DIF     -0.223000
      8 C6          0.5820    2.2910    2.7400 c1        1 DIF     -0.000000
      9 N1          3.1670   -0.1840    1.9580 n2        1 DIF     -0.074000
     10 C7          5.6660    0.4530    2.1030 c2        1 DIF     -0.105000
     11 C8          4.2880    0.1050    2.0370 c1        1 DIF      0.189000
     12 C9          4.2260    4.4730    1.0740 c2        1 DIF     -0.217000
     13 C10         4.6340    3.2470    1.4120 c2        1 DIF     -0.122000
     14 C11         5.7240    2.5610    0.7500 c2        1 DIF     -0.133000
     15 C12         6.1730    1.3350    1.0560 c2        1 DIF     -0.107000
     16 C14         5.9890   -0.9940    4.1690 c2        1 DIF      0.337000
     17 O1          6.8800   -1.4520    4.9310 o         1 DIF     -0.535000
     18 O2          4.7550   -1.2450    4.2390 o         1 DIF     -0.535000
     19 H1          0.1380    2.5330    0.7530 ha        1 DIF      0.170000
     20 H5         -0.0580   -2.2290    2.8450 ha        1 DIF      0.124000
     21 H6          0.3290   -3.6330    1.6930 ha        1 DIF      0.124000
     22 HN1         1.3420   -0.2750    2.8900 h1        1 DIF      0.131000
     23 H9          4.6860    5.0510    0.2630 ha        1 DIF      0.106000
     24 H10         3.3960    4.9700    1.5910 ha        1 DIF      0.106000
     25 H11         4.1400    2.6960    2.2340 ha        1 DIF      0.142000
     26 H12         6.2120    3.1200   -0.0700 ha        1 DIF      0.113000
     27 H131        7.0330    0.9180    0.5010 ha        1 DIF      0.122000
     28 H132        7.5320    0.2050    3.1000 ha        1 DIF      0.128000
     29 C13         6.4610   -0.0530    3.0690 c2        1 DIF     -0.065000
@<TRIPOS>BOND
     1    1    2 1   
     2    1    8 1   
     3    1   19 1   
     4    2    3 1   
     5    2    4 1   
     6    4    5 1   
     7    4    9 1   
     8    4   22 1   
     9    5    6 1   
    10    5    7 1   
    11    7   20 1   
    12    7   21 1   
    13    9   11 1   
    14   10   11 1   
    15   10   15 1   
    16   10   29 1   
    17   12   13 1   
    18   12   23 1   
    19   12   24 1   
    20   13   14 1   
    21   13   25 1   
    22   14   15 1   
    23   14   26 1   
    24   15   27 1   
    25   16   17 1   
    26   16   18 1   
    27   16   29 1   
    28   28   29 1   
@<TRIPOS>SUBSTRUCTURE
     1 DIF         1 TEMP              0 ****  ****    0 ROOT
