@<TRIPOS>MOLECULE
DIG
   24    24     1     0     0
SMALL
bcc


@<TRIPOS>ATOM
      1 C1         -2.1850    1.0020   -0.2990 c3        1 DIG      0.147400
      2 O1         -2.6560    1.4140   -1.5640 oh        1 DIG     -0.599300
      3 C2         -0.6990    1.0020   -0.2990 c3        1 DIG      0.129500
      4 C3         -0.2430    1.0020    0.9470 c3        1 DIG      0.084600
      5 O3         -1.2150    0.3670    1.8450 oh        1 DIG     -0.587800
      6 C4          1.0660    0.1690    0.8960 c3        1 DIG      0.084600
      7 O4          2.1190    0.9610    1.0140 oh        1 DIG     -0.587800
      8 C5          1.0670   -0.5390   -0.5220 c3        1 DIG      0.129500
      9 C6          1.3660   -2.0230   -0.3700 c3        1 DIG      0.147400
     10 O6          1.7880   -2.5470   -1.6110 oh        1 DIG     -0.599300
     11 N5         -0.1370   -0.3660   -0.9910 n3        1 DIG     -0.813200
     12 H11        -2.5110    0.1020   -0.1080 h1        1 DIG      0.054450
     13 H12        -2.5110    1.6180    0.3850 h1        1 DIG      0.054450
     14 HO1        -3.5410    1.4740   -1.5460 ho        1 DIG      0.408000
     15 H2         -0.3640    1.7830   -0.7790 h1        1 DIG      0.076200
     16 H3         -0.0540    1.9140    1.2400 h1        1 DIG      0.055200
     17 HO3        -1.1620    0.7400    2.6490 ho        1 DIG      0.401500
     18 H4          1.0670   -0.5010    1.6060 h1        1 DIG      0.055200
     19 HO4         2.5020    0.8280    1.8030 ho        1 DIG      0.401500
     20 H5          1.7230   -0.1190   -1.1100 h1        1 DIG      0.076200
     21 H61         0.5590   -2.4890   -0.0780 h1        1 DIG      0.054450
     22 H62         2.0710   -2.1470    0.2930 h1        1 DIG      0.054450
     23 HO6         2.0470   -3.3890   -1.5040 ho        1 DIG      0.408000
     24 HN5        -0.0980   -0.2550   -1.8960 hn        1 DIG      0.367800
@<TRIPOS>BOND
     1    1    2 1   
     2    1    3 1   
     3    1   12 1   
     4    1   13 1   
     5    2   14 1   
     6    3    4 1   
     7    3   11 1   
     8    3   15 1   
     9    4    5 1   
    10    4    6 1   
    11    4   16 1   
    12    5   17 1   
    13    6    7 1   
    14    6    8 1   
    15    6   18 1   
    16    7   19 1   
    17    8    9 1   
    18    8   11 1   
    19    8   20 1   
    20    9   10 1   
    21    9   21 1   
    22    9   22 1   
    23   10   23 1   
    24   11   24 1   
@<TRIPOS>SUBSTRUCTURE
     1 DIG         1 TEMP              0 ****  ****    0 ROOT
