@<TRIPOS>MOLECULE
DIG
   24    24     1     0     0
SMALL
bcc


@<TRIPOS>ATOM
      1 C1          0.6000    0.5680    2.0070 c3        1 DIG      0.147400
      2 O1          1.8100    0.1970    2.6310 oh        1 DIG     -0.599300
      3 C2          0.0370   -0.5830    1.1520 c3        1 DIG      0.129500
      4 C3         -1.4070   -0.2740    0.6640 c3        1 DIG      0.084600
      5 O3         -1.8640    0.9160    1.2750 oh        1 DIG     -0.587800
      6 C4         -1.3050   -0.1180   -0.8740 c3        1 DIG      0.084600
      7 O4         -2.0650   -1.1080   -1.5430 oh        1 DIG     -0.587800
      8 C5          0.1840   -0.3840   -1.2280 c3        1 DIG      0.129500
      9 C6          0.8110    0.9060   -1.7890 c3        1 DIG      0.147400
     10 O6          2.1050    0.6750   -2.2990 oh        1 DIG     -0.599300
     11 N5          0.8730   -0.8540   -0.0240 n3        1 DIG     -0.813200
     12 H11        -0.1100    0.7790    2.8520 h1        1 DIG      0.054450
     13 H12         0.7340    1.4940    1.3890 h1        1 DIG      0.054450
     14 HO1         2.4650    0.0580    1.9370 ho        1 DIG      0.408000
     15 H2          0.0050   -1.4970    1.8130 h1        1 DIG      0.076200
     16 H3         -2.0910   -1.1280    0.9210 h1        1 DIG      0.055200
     17 HO3        -2.7880    1.0210    1.0200 ho        1 DIG      0.401500
     18 H4         -1.6300    0.9090   -1.1910 h1        1 DIG      0.055200
     19 HO4        -2.9940   -0.8920   -1.4050 ho        1 DIG      0.401500
     20 H5          0.2400   -1.1680   -2.0390 h1        1 DIG      0.076200
     21 H61         0.2130    1.2500   -2.6760 h1        1 DIG      0.054450
     22 H62         0.8320    1.7120   -1.0090 h1        1 DIG      0.054450
     23 HO6         2.6620    0.3940   -1.5630 ho        1 DIG      0.408000
     24 HN5         1.0480   -1.8380   -0.0970 hn        1 DIG      0.367800
@<TRIPOS>BOND
     1    1    2 1   
     2    1    3 1   
     3    1   12 1   
     4    1   13 1   
     5    2   14 1   
     6    3    4 1   
     7    3   11 1   
     8    3   15 1   
     9    4    5 1   
    10    4    6 1   
    11    4   16 1   
    12    5   17 1   
    13    6    7 1   
    14    6    8 1   
    15    6   18 1   
    16    7   19 1   
    17    8    9 1   
    18    8   11 1   
    19    8   20 1   
    20    9   10 1   
    21    9   21 1   
    22    9   22 1   
    23   10   23 1   
    24   11   24 1   
@<TRIPOS>SUBSTRUCTURE
     1 DIG         1 TEMP              0 ****  ****    0 ROOT
