@<TRIPOS>MOLECULE
DIH
   38    40     1     0     0
SMALL
bcc


@<TRIPOS>ATOM
      1 O5'        -0.1460   -0.2930    0.5130 oh        1 DIH     -0.603800
      2 C5'         1.1970   -0.1840    0.0790 c3        1 DIH      0.136400
      3 C4'         2.0420   -0.0160    1.3370 c3        1 DIH     -0.124700
      4 C6'         3.5170    0.2230    0.9870 c3        1 DIH      0.116800
      5 C3'         1.5900    1.2020    2.1710 c3        1 DIH      0.141100
      6 O3'         1.4910    0.8570    3.5390 oh        1 DIH     -0.604800
      7 C2'         2.7400    2.2250    2.0660 c3        1 DIH      0.105800
      8 N1'         3.9820    1.4590    1.7110 n4        1 DIH     -0.690400
      9 C10         4.7800    1.1080    2.9450 c3        1 DIH      0.221000
     10 C9          5.4230    2.2830    3.5320 c2        1 DIH     -0.336400
     11 C8          5.3080    2.7740    4.8130 c2        1 DIH      0.145000
     12 N7          5.9910    3.9850    5.0150 nh        1 DIH     -0.700000
     13 C5          6.4980    4.3870    3.7100 c3        1 DIH      0.072500
     14 C6          7.8320    5.0690    3.4560 c         1 DIH      0.699500
     15 O6          8.5670    5.5680    4.3090 o         1 DIH     -0.547500
     16 N1          8.1210    5.1290    2.0730 n         1 DIH     -0.534400
     17 C2          7.3870    4.3580    1.1550 c2        1 DIH      0.516800
     18 N3          6.5620    3.3800    1.4370 n2        1 DIH     -0.682900
     19 C4          6.5220    3.0580    2.8430 c3        1 DIH      0.131700
     20 HO5'       -0.6590   -0.6420   -0.2280 ho        1 DIH      0.432000
     21 H5'1        1.5170   -1.1060   -0.4770 h1        1 DIH      0.041700
     22 H5'2        1.3010    0.7090   -0.5960 h1        1 DIH      0.041700
     23 H4'         1.9400   -0.9430    1.9650 hc        1 DIH      0.110700
     24 H6'1        3.6510    0.3950   -0.1180 hx        1 DIH      0.101700
     25 H6'2        4.1510   -0.6540    1.2910 hx        1 DIH      0.101700
     26 H3'         0.6270    1.6330    1.7870 h1        1 DIH      0.108700
     27 HO3'        0.6260    0.4440    3.6710 ho        1 DIH      0.443000
     28 H2'1        2.5270    2.9670    1.2500 hx        1 DIH      0.115700
     29 H2'2        2.8920    2.7670    3.0410 hx        1 DIH      0.115700
     30 H1'         4.5730    2.0260    1.0920 hn        1 DIH      0.473800
     31 H101        4.0680    0.6150    3.6710 hx        1 DIH      0.103700
     32 H102        5.5670    0.3640    2.6210 hx        1 DIH      0.103700
     33 H8          4.7220    2.3570    5.6450 h4        1 DIH      0.187000
     34 H7          6.5710    4.1030    5.8170 hn        1 DIH      0.454800
     35 H5          5.7100    5.1020    3.3100 h1        1 DIH      0.105700
     36 H1          8.9000    5.6650    1.7630 hn        1 DIH      0.355500
     37 H2          7.5510    4.6220    0.0860 h5        1 DIH      0.066800
     38 H4          7.4770    2.4790    3.0720 h1        1 DIH      0.075700
@<TRIPOS>BOND
     1    1    2 1   
     2    1   20 1   
     3    2    3 1   
     4    2   21 1   
     5    2   22 1   
     6    3    4 1   
     7    3    5 1   
     8    3   23 1   
     9    4    8 1   
    10    4   24 1   
    11    4   25 1   
    12    5    6 1   
    13    5    7 1   
    14    5   26 1   
    15    6   27 1   
    16    7    8 1   
    17    7   28 1   
    18    7   29 1   
    19    8    9 1   
    20    8   30 1   
    21    9   10 1   
    22    9   31 1   
    23    9   32 1   
    24   10   11 2   
    25   10   19 1   
    26   11   12 1   
    27   11   33 1   
    28   12   13 1   
    29   12   34 1   
    30   13   14 1   
    31   13   19 1   
    32   13   35 1   
    33   14   15 2   
    34   14   16 1   
    35   16   17 1   
    36   16   36 1   
    37   17   18 2   
    38   17   37 1   
    39   18   19 1   
    40   19   38 1   
@<TRIPOS>SUBSTRUCTURE
     1 DIH         1 TEMP              0 ****  ****    0 ROOT
