@<TRIPOS>MOLECULE
DIH
   38    40     1     0     0
SMALL
bcc


@<TRIPOS>ATOM
      1 O5'        -0.1490   -0.3290    0.5270 oh        1 DIH     -0.603800
      2 C5'         1.1920   -0.2090    0.0880 c3        1 DIH      0.136400
      3 C4'         2.0390   -0.0280    1.3420 c3        1 DIH     -0.124700
      4 C6'         3.5110    0.2240    0.9860 c3        1 DIH      0.116800
      5 C3'         1.5780    1.1880    2.1740 c3        1 DIH      0.141100
      6 O3'         1.4870    0.8470    3.5430 oh        1 DIH     -0.604800
      7 C2'         2.7170    2.2230    2.0610 c3        1 DIH      0.105800
      8 N1'         3.9660    1.4670    1.7050 nx        1 DIH     -0.690400
      9 C10         4.7710    1.1280    2.9360 c3        1 DIH      0.221000
     10 C9          5.4050    2.3120    3.5170 c2        1 DIH     -0.336400
     11 C8          5.2900    2.8060    4.7970 c2        1 DIH      0.145000
     12 N7          5.9620    4.0250    4.9930 nu        1 DIH     -0.700000
     13 C5          6.4590    4.4270    3.6840 c3        1 DIH      0.072500
     14 C6          7.7860    5.1210    3.4220 c         1 DIH      0.699500
     15 O6          8.5190    5.6310    4.2710 o         1 DIH     -0.547500
     16 N1          8.0690    5.1790    2.0390 ns        1 DIH     -0.534400
     17 C2          7.3400    4.3980    1.1260 c2        1 DIH      0.516800
     18 N3          6.5260    3.4130    1.4140 n2        1 DIH     -0.682900
     19 C4          6.4940    3.0960    2.8220 c3        1 DIH      0.131700
     20 HO5'       -0.6610   -0.6850   -0.2110 ho        1 DIH      0.432000
     21 H5'1        1.5180   -1.1290   -0.4660 h1        1 DIH      0.041700
     22 H5'2        1.2840    0.6830   -0.5900 h1        1 DIH      0.041700
     23 H4'         1.9480   -0.9540    1.9740 hc        1 DIH      0.110700
     24 H6'1        4.1540   -0.6460    1.2920 hx        1 DIH      0.101700
     25 H6'2        3.6390    0.3930   -0.1190 hx        1 DIH      0.101700
     26 H3'         0.6090    1.6080    1.7920 h1        1 DIH      0.108700
     27 HO3'        0.6270    0.4260    3.6800 ho        1 DIH      0.443000
     28 H2'1        2.4940    2.9590    1.2430 hx        1 DIH      0.115700
     29 H2'2        2.8680    2.7690    3.0340 hx        1 DIH      0.115700
     30 H1'         4.5490    2.0370    1.0810 hn        1 DIH      0.473800
     31 H101        5.5650    0.3910    2.6120 hx        1 DIH      0.103700
     32 H102        4.0670    0.6310    3.6670 hx        1 DIH      0.103700
     33 H8          4.7110    2.3860    5.6320 h4        1 DIH      0.187000
     34 H7          6.5430    4.1520    5.7910 hn        1 DIH      0.454800
     35 H5          5.6630    5.1330    3.2840 h1        1 DIH      0.105700
     36 H1          8.8420    5.7220    1.7240 hn        1 DIH      0.355500
     37 H2          7.4970    4.6600    0.0560 h5        1 DIH      0.066800
     38 H4          7.4550    2.5270    3.0490 h1        1 DIH      0.075700
@<TRIPOS>BOND
     1    1    2 1   
     2    1   20 1   
     3    2    3 1   
     4    2   21 1   
     5    2   22 1   
     6    3    4 1   
     7    3    5 1   
     8    3   23 1   
     9    4    8 1   
    10    4   24 1   
    11    4   25 1   
    12    5    6 1   
    13    5    7 1   
    14    5   26 1   
    15    6   27 1   
    16    7    8 1   
    17    7   28 1   
    18    7   29 1   
    19    8    9 1   
    20    8   30 1   
    21    9   10 1   
    22    9   31 1   
    23    9   32 1   
    24   10   11 2   
    25   10   19 1   
    26   11   12 1   
    27   11   33 1   
    28   12   13 1   
    29   12   34 1   
    30   13   14 1   
    31   13   19 1   
    32   13   35 1   
    33   14   15 2   
    34   14   16 1   
    35   16   17 1   
    36   16   36 1   
    37   17   18 2   
    38   17   37 1   
    39   18   19 1   
    40   19   38 1   
@<TRIPOS>SUBSTRUCTURE
     1 DIH         1 TEMP              0 ****  ****    0 ROOT
