@<TRIPOS>MOLECULE
DIH
   38    40     1     0     0
SMALL
bcc


@<TRIPOS>ATOM
      1 O5'        -0.1490   -0.3180    0.5100 oh        1 DIH     -0.603800
      2 C5'         1.1990   -0.2160    0.0850 c3        1 DIH      0.136400
      3 C4'         2.0320   -0.0230    1.3470 c3        1 DIH     -0.124700
      4 C6'         3.5100    0.2110    1.0060 c3        1 DIH      0.116800
      5 C3'         1.5720    1.2100    2.1550 c3        1 DIH      0.141100
      6 O3'         1.4610    0.8900    3.5280 oh        1 DIH     -0.604800
      7 C2'         2.7210    2.2320    2.0410 c3        1 DIH      0.105800
      8 N1'         3.9670    1.4610    1.7110 n4        1 DIH     -0.690400
      9 C10         4.7550    1.1340    2.9570 c3        1 DIH      0.221000
     10 C9          5.3920    2.3220    3.5280 c2        1 DIH     -0.336400
     11 C8          5.2650    2.8360    4.7990 c2        1 DIH      0.145000
     12 N7          5.9440    4.0520    4.9840 nh        1 DIH     -0.700000
     13 C5          6.4620    4.4300    3.6750 c3        1 DIH      0.072500
     14 C6          7.7970    5.1090    3.4200 c         1 DIH      0.699500
     15 O6          8.5240    5.6260    4.2690 o         1 DIH     -0.547500
     16 N1          8.0980    5.1430    2.0390 n         1 DIH     -0.534400
     17 C2          7.3730    4.3540    1.1290 c2        1 DIH      0.516800
     18 N3          6.5470    3.3800    1.4220 n2        1 DIH     -0.682900
     19 C4          6.4960    3.0850    2.8340 c3        1 DIH      0.131700
     20 HO5'       -0.6540   -0.6810   -0.2280 ho        1 DIH      0.432000
     21 H5'1        1.5240   -1.1470   -0.4500 h1        1 DIH      0.041700
     22 H5'2        1.3070    0.6650   -0.6050 h1        1 DIH      0.041700
     23 H4'         1.9260   -0.9390    1.9920 hc        1 DIH      0.110700
     24 H6'1        4.1420   -0.6600    1.3330 hx        1 DIH      0.101700
     25 H6'2        3.6540    0.3620   -0.1010 hx        1 DIH      0.101700
     26 H3'         0.6110    1.6320    1.7550 h1        1 DIH      0.108700
     27 HO3'        0.5960    0.4790    3.6600 ho        1 DIH      0.443000
     28 H2'1        2.8650    2.7920    3.0070 hx        1 DIH      0.115700
     29 H2'2        2.5140    2.9580    1.2090 hx        1 DIH      0.115700
     30 H1'         4.5630    2.0170    1.0860 hn        1 DIH      0.473800
     31 H101        4.0380    0.6540    3.6870 hx        1 DIH      0.103700
     32 H102        5.5460    0.3860    2.6540 hx        1 DIH      0.103700
     33 H8          4.6720    2.4340    5.6330 h4        1 DIH      0.187000
     34 H7          6.5170    4.1860    5.7870 hn        1 DIH      0.454800
     35 H5          5.6760    5.1360    3.2550 h1        1 DIH      0.105700
     36 H1          8.8790    5.6740    1.7250 hn        1 DIH      0.355500
     37 H2          7.5450    4.5990    0.0570 h5        1 DIH      0.066800
     38 H4          7.4490    2.5120    3.0820 h1        1 DIH      0.075700
@<TRIPOS>BOND
     1    1    2 1   
     2    1   20 1   
     3    2    3 1   
     4    2   21 1   
     5    2   22 1   
     6    3    4 1   
     7    3    5 1   
     8    3   23 1   
     9    4    8 1   
    10    4   24 1   
    11    4   25 1   
    12    5    6 1   
    13    5    7 1   
    14    5   26 1   
    15    6   27 1   
    16    7    8 1   
    17    7   28 1   
    18    7   29 1   
    19    8    9 1   
    20    8   30 1   
    21    9   10 1   
    22    9   31 1   
    23    9   32 1   
    24   10   11 2   
    25   10   19 1   
    26   11   12 1   
    27   11   33 1   
    28   12   13 1   
    29   12   34 1   
    30   13   14 1   
    31   13   19 1   
    32   13   35 1   
    33   14   15 2   
    34   14   16 1   
    35   16   17 1   
    36   16   36 1   
    37   17   18 2   
    38   17   37 1   
    39   18   19 1   
    40   19   38 1   
@<TRIPOS>SUBSTRUCTURE
     1 DIH         1 TEMP              0 ****  ****    0 ROOT
