@<TRIPOS>MOLECULE
DIH
   38    40     1     0     0
SMALL
bcc


@<TRIPOS>ATOM
      1 O5'         5.6800    0.4590   -0.7240 oh        1 DIH     -0.603800
      2 C5'         4.6800    1.2370   -0.0900 c3        1 DIH      0.136400
      3 C4'         3.6270    0.2560    0.4110 c3        1 DIH     -0.124700
      4 C6'         2.4290    0.9930    1.0260 c3        1 DIH      0.116800
      5 C3'         3.0620   -0.6120   -0.7350 c3        1 DIH      0.141100
      6 O3'         3.0140   -1.9720   -0.3490 oh        1 DIH     -0.604800
      7 C2'         1.5970   -0.1610   -0.9120 c3        1 DIH      0.105800
      8 N1'         1.1710    0.4730    0.3810 n4        1 DIH     -0.690400
      9 C10         0.4650   -0.5200    1.2720 c3        1 DIH      0.221000
     10 C9         -0.8640   -0.8630    0.7620 c2        1 DIH     -0.336400
     11 C8         -1.3690   -2.1060    0.4530 c2        1 DIH      0.145000
     12 N7         -2.6570   -2.0650   -0.1090 nh        1 DIH     -0.700000
     13 C5         -2.9720   -0.6560   -0.2980 c3        1 DIH      0.072500
     14 C6         -4.3430   -0.0270   -0.1110 c         1 DIH      0.699500
     15 O6         -5.4090   -0.6330    0.0110 o         1 DIH     -0.547500
     16 N1         -4.2710    1.3830   -0.1590 n         1 DIH     -0.534400
     17 C2         -3.0310    2.0390   -0.0680 c2        1 DIH      0.516800
     18 N3         -1.8860    1.5060    0.2810 n2        1 DIH     -0.682900
     19 C4         -2.0030    0.1260    0.6860 c3        1 DIH      0.131700
     20 HO5'        6.4580    1.0220   -0.8260 ho        1 DIH      0.432000
     21 H5'1        5.1070    1.8150    0.7730 h1        1 DIH      0.041700
     22 H5'2        4.2380    1.9550   -0.8340 h1        1 DIH      0.041700
     23 H4'         4.0990   -0.4180    1.1770 hc        1 DIH      0.110700
     24 H6'1        2.3810    0.8270    2.1360 hx        1 DIH      0.101700
     25 H6'2        2.4900    2.1000    0.8320 hx        1 DIH      0.101700
     26 H3'         3.6470   -0.4770   -1.6840 h1        1 DIH      0.108700
     27 HO3'        3.8930   -2.3460   -0.4970 ho        1 DIH      0.443000
     28 H2'1        0.9280   -1.0360   -1.1460 hx        1 DIH      0.115700
     29 H2'2        1.5230    0.6030   -1.7320 hx        1 DIH      0.115700
     30 H1'         0.5290    1.2520    0.1890 hn        1 DIH      0.473800
     31 H101        1.1300   -1.4300    1.3470 hx        1 DIH      0.103700
     32 H102        0.3690   -0.0340    2.2880 hx        1 DIH      0.103700
     33 H8         -0.8700   -3.0800    0.5520 h4        1 DIH      0.187000
     34 H7         -3.3660   -2.6790    0.2250 hn        1 DIH      0.454800
     35 H5         -2.6860   -0.4450   -1.3780 h1        1 DIH      0.105700
     36 H1         -5.1140    1.9130   -0.1800 hn        1 DIH      0.355500
     37 H2         -3.0560    3.1250   -0.3160 h5        1 DIH      0.066800
     38 H4         -2.4570    0.1310    1.7320 h1        1 DIH      0.075700
@<TRIPOS>BOND
     1    1    2 1   
     2    1   20 1   
     3    2    3 1   
     4    2   21 1   
     5    2   22 1   
     6    3    4 1   
     7    3    5 1   
     8    3   23 1   
     9    4    8 1   
    10    4   24 1   
    11    4   25 1   
    12    5    6 1   
    13    5    7 1   
    14    5   26 1   
    15    6   27 1   
    16    7    8 1   
    17    7   28 1   
    18    7   29 1   
    19    8    9 1   
    20    8   30 1   
    21    9   10 1   
    22    9   31 1   
    23    9   32 1   
    24   10   11 2   
    25   10   19 1   
    26   11   12 1   
    27   11   33 1   
    28   12   13 1   
    29   12   34 1   
    30   13   14 1   
    31   13   19 1   
    32   13   35 1   
    33   14   15 2   
    34   14   16 1   
    35   16   17 1   
    36   16   36 1   
    37   17   18 2   
    38   17   37 1   
    39   18   19 1   
    40   19   38 1   
@<TRIPOS>SUBSTRUCTURE
     1 DIH         1 TEMP              0 ****  ****    0 ROOT
