@<TRIPOS>MOLECULE
DIH
   38    38     1     0     0
SMALL
bcc


@<TRIPOS>ATOM
      1 O5'        -1.6010    3.0730   -3.9950 oh        1 DIH     -0.332000
      2 C5'        -1.1750    1.7070   -3.8040 c3        1 DIH     -0.014000
      3 C4'        -0.6020    1.5290   -2.3090 c3        1 DIH     -0.164000
      4 C6'        -0.7450    0.2420   -1.9030 c3        1 DIH     -0.121000
      5 C3'         0.8740    1.7840   -2.2820 c3        1 DIH      0.030000
      6 O3'         1.1370    2.9290   -1.6340 oh        1 DIH     -0.332000
      7 C2'         1.5100    0.5420   -1.5000 c3        1 DIH     -0.129000
      8 N1'         0.5090   -0.0750   -0.9770 n4        1 DIH     -0.013000
      9 C10         0.2800    0.3880    0.3260 c3        1 DIH     -0.011000
     10 C9          0.2630   -0.8320    1.3180 c2        1 DIH     -0.375000
     11 C8          1.2920   -1.4200    1.5700 c1        1 DIH      0.089000
     12 N7          1.5240   -1.5210    2.8860 n2        1 DIH     -0.286000
     13 C5          0.3350   -1.2410    3.4530 c3        1 DIH     -0.040000
     14 C6          0.1440   -1.7690    3.8950 c2        1 DIH      0.279000
     15 O6          0.5690   -1.7930    5.0150 o         1 DIH     -0.294000
     16 N1         -0.9480   -2.8910    3.4160 n         1 DIH     -0.356000
     17 C2         -1.7780   -2.6100    2.4740 c2        1 DIH      0.096000
     18 N3         -1.6620   -1.6890    1.9530 n1        1 DIH     -0.296000
     19 C4         -0.5480   -0.8430    2.2990 c2        1 DIH      0.011000
     20 HO5'       -2.1120    3.1290   -4.7450 ho        1 DIH      0.231000
     21 H5'1       -1.9310    1.1120   -3.9330 h1        1 DIH      0.081000
     22 H5'2       -0.4770    1.4900   -4.4500 h1        1 DIH      0.081000
     23 H4'        -1.0650    2.1370   -1.6900 hc        1 DIH      0.149000
     24 H6'1       -1.5670    0.1430   -1.3970 hx        1 DIH      0.140500
     25 H6'2       -0.7510   -0.3560   -2.6760 hx        1 DIH      0.140500
     26 H3'         1.2250    1.8230   -3.1950 h1        1 DIH      0.146000
     27 HO3'        1.7680    3.4020   -2.0970 ho        1 DIH      0.241000
     28 H2'1        2.1190    0.8570   -0.7990 hx        1 DIH      0.151000
     29 H2'2        1.9730   -0.0330   -2.1100 hx        1 DIH      0.151000
     30 H1'         0.6730   -1.0020   -0.9660 hn        1 DIH      0.268000
     31 H101        0.9780    0.9950    0.5780 hx        1 DIH      0.138000
     32 H102       -0.5620    0.8380    0.3610 hx        1 DIH      0.138000
     33 H8          2.0390   -1.3820    0.9470 ha        1 DIH      0.184000
     34 H7          2.3280   -1.4790    3.2890 hn        1 DIH      0.267000
     35 H5          0.4630   -0.4140    4.0250 h1        1 DIH      0.158000
     36 H1         -0.9940   -3.7100    3.8480 hn        1 DIH      0.269000
     37 H2         -2.5990   -3.1460    2.3580 h5        1 DIH      0.189000
     38 H4         -0.8830    0.0840    2.4530 ha        1 DIH      0.136000
@<TRIPOS>BOND
     1    1    2 1   
     2    1   20 1   
     3    2    3 1   
     4    2   21 1   
     5    2   22 1   
     6    3    4 1   
     7    3    5 1   
     8    3   23 1   
     9    4    8 1   
    10    4   24 1   
    11    4   25 1   
    12    5    6 1   
    13    5    7 1   
    14    5   26 1   
    15    6   27 1   
    16    7    8 1   
    17    7   28 1   
    18    7   29 1   
    19    8    9 1   
    20    8   30 1   
    21    9   10 1   
    22    9   31 1   
    23    9   32 1   
    24   10   11 1   
    25   10   19 1   
    26   11   33 1   
    27   12   13 1   
    28   12   34 1   
    29   13   14 1   
    30   13   19 1   
    31   13   35 1   
    32   14   15 1   
    33   14   16 1   
    34   16   17 1   
    35   16   36 1   
    36   17   18 1   
    37   17   37 1   
    38   19   38 1   
@<TRIPOS>SUBSTRUCTURE
     1 DIH         1 TEMP              0 ****  ****    0 ROOT
