@<TRIPOS>MOLECULE
DII
   28    27     1     0     0
SMALL
bcc


@<TRIPOS>ATOM
      1 P1         -1.1530   -0.0120   -0.1280 p5        1 DII      1.549300
      2 O1         -1.1860   -1.4670   -0.2410 o         1 DII     -0.852300
      3 O2         -0.1530    0.6460   -1.2070 os        1 DII     -0.599200
      4 C1          0.6040   -0.2020   -2.0530 c3        1 DII      0.183100
      5 C2          0.2860    0.1540   -3.4980 c3        1 DII     -0.109350
      6 C3          2.0830    0.0090   -1.7680 c3        1 DII     -0.109350
      7 O3         -0.5120    0.4820    1.2640 os        1 DII     -0.599200
      8 C4          0.5480   -0.2770    1.8210 c3        1 DII      0.183100
      9 C5          1.7720    0.6160    1.9520 c3        1 DII     -0.109350
     10 C6          0.1190   -0.8000    3.1820 c3        1 DII     -0.109350
     11 C7         -2.5400    0.8410   -0.2470 c3        1 DII     -0.431300
     12 H1          0.3180   -1.2760   -1.8470 h1        1 DII      0.063200
     13 H21         0.9030   -0.4780   -4.1800 hc        1 DII      0.044283
     14 H22        -0.7930   -0.0250   -3.7180 hc        1 DII      0.044283
     15 H23         0.5130    1.2290   -3.6880 hc        1 DII      0.044283
     16 H31         2.3320    1.0960   -1.8120 hc        1 DII      0.044283
     17 H32         2.3450   -0.3730   -0.7520 hc        1 DII      0.044283
     18 H33         2.6910   -0.5390   -2.5260 hc        1 DII      0.044283
     19 H4          0.7690   -1.1440    1.1290 h1        1 DII      0.063200
     20 H51         2.6170    0.0280    2.3830 hc        1 DII      0.044283
     21 H52         2.0760    1.0160    0.9550 hc        1 DII      0.044283
     22 H53         1.5460    1.4790    2.6230 hc        1 DII      0.044283
     23 H61        -0.2170    0.0450    3.8290 hc        1 DII      0.044283
     24 H62        -0.7220   -1.5250    3.0770 hc        1 DII      0.044283
     25 H63         0.9810   -1.3140    3.6700 hc        1 DII      0.044283
     26 H71        -2.7770    1.4110    0.6870 hc        1 DII      0.115033
     27 H72        -2.5140    1.6010   -1.0680 hc        1 DII      0.115033
     28 H73        -3.4240    0.1860   -0.4490 hc        1 DII      0.115033
@<TRIPOS>BOND
     1    1    2 2   
     2    1    3 1   
     3    1    7 1   
     4    1   11 1   
     5    3    4 1   
     6    4    5 1   
     7    4    6 1   
     8    4   12 1   
     9    5   13 1   
    10    5   14 1   
    11    5   15 1   
    12    6   16 1   
    13    6   17 1   
    14    6   18 1   
    15    7    8 1   
    16    8    9 1   
    17    8   10 1   
    18    8   19 1   
    19    9   20 1   
    20    9   21 1   
    21    9   22 1   
    22   10   23 1   
    23   10   24 1   
    24   10   25 1   
    25   11   26 1   
    26   11   27 1   
    27   11   28 1   
@<TRIPOS>SUBSTRUCTURE
     1 DII         1 TEMP              0 ****  ****    0 ROOT
