@<TRIPOS>MOLECULE
DII
   28    27     1     0     0
SMALL
bcc


@<TRIPOS>ATOM
      1 P1         -0.0560    0.3660   -0.2410 p5        1 DII      1.549300
      2 O1          1.3780    0.6360   -0.1940 o         1 DII     -0.852300
      3 O2         -0.7460    0.5620    1.2020 os        1 DII     -0.599200
      4 C1          0.0670    0.8800    2.3180 c3        1 DII      0.183100
      5 C2         -0.4360    2.1820    2.9230 c3        1 DII     -0.109350
      6 C3         -0.0260   -0.2480    3.3340 c3        1 DII     -0.109350
      7 O3         -0.3810   -1.1780   -0.5590 os        1 DII     -0.599200
      8 C4          0.4890   -2.1670   -0.0350 c3        1 DII      0.183100
      9 C5         -0.3120   -3.0960    0.8640 c3        1 DII     -0.109350
     10 C6          1.1070   -2.9420   -1.1890 c3        1 DII     -0.109350
     11 C7         -1.0000    1.1910   -1.2870 c3        1 DII     -0.431300
     12 H1          1.1360    1.0030    1.9710 h1        1 DII      0.063200
     13 H21        -0.3450    3.0170    2.1890 hc        1 DII      0.044200
     14 H22         0.1680    2.4290    3.8280 hc        1 DII      0.044200
     15 H23        -1.5090    2.0820    3.2140 hc        1 DII      0.044200
     16 H31        -1.0950   -0.4790    3.5560 hc        1 DII      0.044200
     17 H32         0.4620   -1.1720    2.9400 hc        1 DII      0.044200
     18 H33         0.4880    0.0560    4.2760 hc        1 DII      0.044200
     19 H4          1.3010   -1.6520    0.5590 h1        1 DII      0.063200
     20 H51        -1.1220   -3.5910    0.2770 hc        1 DII      0.044200
     21 H52         0.3630   -3.8760    1.2880 hc        1 DII      0.044200
     22 H53        -0.7830   -2.5240    1.7000 hc        1 DII      0.044200
     23 H61         0.3050   -3.3510   -1.8490 hc        1 DII      0.044200
     24 H62         1.7660   -2.2790   -1.7970 hc        1 DII      0.044200
     25 H63         1.7150   -3.7850   -0.7850 hc        1 DII      0.044200
     26 H71        -0.4220    1.9480   -1.8730 hc        1 DII      0.115033
     27 H72        -1.8290    1.7460   -0.7800 hc        1 DII      0.115033
     28 H73        -1.4960    0.5240   -2.0370 hc        1 DII      0.115033
@<TRIPOS>BOND
     1    1    2 2   
     2    1    3 1   
     3    1    7 1   
     4    1   11 1   
     5    3    4 1   
     6    4    5 1   
     7    4    6 1   
     8    4   12 1   
     9    5   13 1   
    10    5   14 1   
    11    5   15 1   
    12    6   16 1   
    13    6   17 1   
    14    6   18 1   
    15    7    8 1   
    16    8    9 1   
    17    8   10 1   
    18    8   19 1   
    19    9   20 1   
    20    9   21 1   
    21    9   22 1   
    22   10   23 1   
    23   10   24 1   
    24   10   25 1   
    25   11   26 1   
    26   11   27 1   
    27   11   28 1   
@<TRIPOS>SUBSTRUCTURE
     1 DII         1 TEMP              0 ****  ****    0 ROOT
