@<TRIPOS>MOLECULE
DII
   28    27     1     0     0
SMALL
bcc


@<TRIPOS>ATOM
      1 P1         -0.0530    0.3510   -0.2530 p5        1 DII      1.549300
      2 O1          1.3870    0.5920   -0.2270 o         1 DII     -0.852300
      3 O2         -0.7200    0.5810    1.1960 os        1 DII     -0.599200
      4 C1          0.1140    0.8980    2.2980 c3        1 DII      0.183100
      5 C2         -0.3550    2.2180    2.8900 c3        1 DII     -0.109350
      6 C3          0.0120   -0.2130    3.3310 c3        1 DII     -0.109350
      7 O3         -0.4130   -1.1910   -0.5440 os        1 DII     -0.599200
      8 C4          0.4430   -2.1900   -0.0190 c3        1 DII      0.183100
      9 C5         -0.3640   -3.0900    0.9050 c3        1 DII     -0.109350
     10 C6          1.0290   -2.9930   -1.1690 c3        1 DII     -0.109350
     11 C7         -0.9940    1.1800   -1.2980 c3        1 DII     -0.431300
     12 H1          1.1810    0.9950    1.9350 h1        1 DII      0.063200
     13 H21         0.2650    2.4660    3.7830 hc        1 DII      0.044283
     14 H22        -1.4260    2.1440    3.1960 hc        1 DII      0.044283
     15 H23        -0.2570    3.0410    2.1430 hc        1 DII      0.044283
     16 H31         0.5440    0.0940    4.2620 hc        1 DII      0.044283
     17 H32        -1.0580   -0.4200    3.5690 hc        1 DII      0.044283
     18 H33         0.4760   -1.1520    2.9430 hc        1 DII      0.044283
     19 H4          1.2740   -1.6840    0.5570 h1        1 DII      0.063200
     20 H51         0.3010   -3.8770    1.3310 hc        1 DII      0.044283
     21 H52        -1.1920   -3.5760    0.3370 hc        1 DII      0.044283
     22 H53        -0.8100   -2.4970    1.7390 hc        1 DII      0.044283
     23 H61         1.6260   -3.8430   -0.7620 hc        1 DII      0.044283
     24 H62         1.6930   -2.3530   -1.7960 hc        1 DII      0.044283
     25 H63         0.2100   -3.3950   -1.8120 hc        1 DII      0.044283
     26 H71        -1.8040    1.7600   -0.7890 hc        1 DII      0.115033
     27 H72        -0.4080    1.9160   -1.9030 hc        1 DII      0.115033
     28 H73        -1.5130    0.5130   -2.0310 hc        1 DII      0.115033
@<TRIPOS>BOND
     1    1    2 2   
     2    1    3 1   
     3    1    7 1   
     4    1   11 1   
     5    3    4 1   
     6    4    5 1   
     7    4    6 1   
     8    4   12 1   
     9    5   13 1   
    10    5   14 1   
    11    5   15 1   
    12    6   16 1   
    13    6   17 1   
    14    6   18 1   
    15    7    8 1   
    16    8    9 1   
    17    8   10 1   
    18    8   19 1   
    19    9   20 1   
    20    9   21 1   
    21    9   22 1   
    22   10   23 1   
    23   10   24 1   
    24   10   25 1   
    25   11   26 1   
    26   11   27 1   
    27   11   28 1   
@<TRIPOS>SUBSTRUCTURE
     1 DII         1 TEMP              0 ****  ****    0 ROOT
