@<TRIPOS>MOLECULE
DII
   28    26     1     0     0
SMALL
bcc


@<TRIPOS>ATOM
      1 P1          0.0300    0.4420   -0.1970 p4        1 DII      1.782900
      2 O1          1.5310    0.2780   -0.1550 o         1 DII     -0.852300
      3 O2         -0.5500    0.3660    1.2710 o         1 DII     -0.916500
      4 C1          0.2610    0.8020    2.3350 c3        1 DII      0.279800
      5 C2         -0.4410    1.9150    3.0810 c3        1 DII     -0.110600
      6 C3          0.5180   -0.3530    3.2780 c3        1 DII     -0.110600
      7 O3         -0.6020   -0.7120   -1.0740 os        1 DII     -0.605200
      8 C4          0.1130   -1.1700   -2.1950 c3        1 DII      0.176100
      9 C5          0.5970   -2.5810   -1.9440 c3        1 DII     -0.108100
     10 C6         -0.7900   -1.1560   -3.4090 c3        1 DII     -0.108100
     11 C7         -0.3820    2.0520   -0.9290 c3        1 DII     -0.431300
     12 H1          1.1110    1.1310    1.9830 h1        1 DII      0.049700
     13 H21        -0.4180    2.7340    2.5420 hc        1 DII      0.045700
     14 H22        -1.3730    1.6600    3.2470 hc        1 DII      0.045700
     15 H23         0.0120    2.0730    3.9350 hc        1 DII      0.045700
     16 H31        -0.3360   -0.6980    3.6120 hc        1 DII      0.045700
     17 H32         1.0620   -0.0440    4.0320 hc        1 DII      0.045700
     18 H33         0.9940   -1.0640    2.8020 hc        1 DII      0.045700
     19 H4          0.8810   -0.5850   -2.3540 h1        1 DII      0.076700
     20 H51        -0.1520   -3.1330   -1.6350 hc        1 DII      0.043033
     21 H52         1.2980   -2.5690   -1.2590 hc        1 DII      0.043033
     22 H53         0.9580   -2.9550   -2.7740 hc        1 DII      0.043033
     23 H61        -1.0970   -0.2400   -3.5770 hc        1 DII      0.043033
     24 H62        -1.5640   -1.7350   -3.2470 hc        1 DII      0.043033
     25 H63        -0.2950   -1.4830   -4.1890 hc        1 DII      0.043033
     26 H71        -0.0490    2.7690   -0.3490 hc        1 DII      0.115033
     27 H72         0.0360    2.1260   -1.8120 hc        1 DII      0.115033
     28 H73        -1.3550    2.1300   -1.0200 hc        1 DII      0.115033
@<TRIPOS>BOND
     1    1    2 2   
     2    1    7 1   
     3    1   11 1   
     4    3    4 1   
     5    4    5 1   
     6    4    6 1   
     7    4   12 1   
     8    5   13 1   
     9    5   14 1   
    10    5   15 1   
    11    6   16 1   
    12    6   17 1   
    13    6   18 1   
    14    7    8 1   
    15    8    9 1   
    16    8   10 1   
    17    8   19 1   
    18    9   20 1   
    19    9   21 1   
    20    9   22 1   
    21   10   23 1   
    22   10   24 1   
    23   10   25 1   
    24   11   26 1   
    25   11   27 1   
    26   11   28 1   
@<TRIPOS>SUBSTRUCTURE
     1 DII         1 TEMP              0 ****  ****    0 ROOT
