@<TRIPOS>MOLECULE
DIK
   45    45     1     0     0
SMALL
bcc


@<TRIPOS>ATOM
      1 C1         -8.3060   -0.5090   -0.1520 c3        1 DIK     -0.076400
      2 C2         -7.2940   -1.5840   -0.2710 c2        1 DIK     -0.022400
      3 C3         -5.9690   -1.3570   -0.1940 ce        1 DIK     -0.286200
      4 C4         -5.3510   -0.0410    0.0120 c         1 DIK      0.566300
      5 O1         -6.0050    1.0040    0.1460 o         1 DIK     -0.555100
      6 C5         -3.8490   -0.0680    0.0500 c3        1 DIK     -0.173400
      7 C6         -3.2390    1.3070    0.2400 c3        1 DIK     -0.019100
      8 C7         -1.7530    1.2400    0.2440 ca        1 DIK     -0.133300
      9 C8         -1.0320    1.3450    1.4360 ca        1 DIK     -0.102000
     10 C9          0.3570    1.2790    1.4490 ca        1 DIK     -0.177500
     11 C10        -1.0480    1.0710   -0.9530 ca        1 DIK     -0.102000
     12 C11         0.3370    1.0000   -0.9630 ca        1 DIK     -0.177500
     13 C12         1.0750    1.1000    0.2460 ca        1 DIK      0.089600
     14 N1          2.4700    1.0350    0.1810 n         1 DIK     -0.470100
     15 C13         3.3730    0.9620    1.2380 c         1 DIK      0.668100
     16 O2          3.0070    1.0120    2.4290 o         1 DIK     -0.624100
     17 C14         4.8460    0.8660    0.8860 c3        1 DIK     -0.151400
     18 C15         5.1600    0.0620   -0.3560 c3        1 DIK     -0.078400
     19 C16         6.6430   -0.1830   -0.4990 c3        1 DIK     -0.199400
     20 C17         6.9890   -0.6640   -1.9230 c         1 DIK      0.910600
     21 O3          6.2720   -0.2620   -2.8850 o         1 DIK     -0.846800
     22 O4          7.9880   -1.4250   -2.0530 o         1 DIK     -0.846800
     23 H1         -8.1380    0.2660   -0.9430 hc        1 DIK      0.052367
     24 H1A        -9.3440   -0.9090   -0.2490 hc        1 DIK      0.052367
     25 H1B        -8.2030    0.0070    0.8370 hc        1 DIK      0.052367
     26 C18        -7.8270   -2.9530   -0.4840 c3        1 DIK     -0.076400
     27 H3         -5.2570   -2.1950   -0.2890 ha        1 DIK      0.134000
     28 H5         -3.5280   -0.7470    0.8850 hc        1 DIK      0.069700
     29 H5A        -3.4760   -0.5180   -0.9090 hc        1 DIK      0.069700
     30 H6         -3.5900    1.9820   -0.5870 hc        1 DIK      0.054200
     31 H6A        -3.6150    1.7470    1.2010 hc        1 DIK      0.054200
     32 H8         -1.5690    1.4850    2.3870 ha        1 DIK      0.124500
     33 H9          0.8910    1.3640    2.4100 ha        1 DIK      0.155500
     34 H10        -1.6000    0.9920   -1.9020 ha        1 DIK      0.124500
     35 H11         0.8600    0.8620   -1.9220 ha        1 DIK      0.155500
     36 HN1         2.8510    0.9210   -0.7360 hn        1 DIK      0.335500
     37 H14         5.2300    1.9140    0.7690 hc        1 DIK      0.068700
     38 H14A        5.3630    0.4120    1.7740 hc        1 DIK      0.068700
     39 H15         4.6220   -0.9210   -0.3220 hc        1 DIK      0.053200
     40 H15A        4.8190    0.6020   -1.2830 hc        1 DIK      0.053200
     41 H16         7.2100    0.7640   -0.3160 hc        1 DIK      0.025200
     42 H16A        6.9910   -0.9430    0.2430 hc        1 DIK      0.025200
     43 H21        -8.4300   -2.9830   -1.4260 hc        1 DIK      0.052367
     44 H22        -7.0100   -3.7110   -0.5620 hc        1 DIK      0.052367
     45 H23        -8.4950   -3.2370    0.3680 hc        1 DIK      0.052367
@<TRIPOS>BOND
     1    1    2 1   
     2    1   23 1   
     3    1   24 1   
     4    1   25 1   
     5    2    3 2   
     6    2   26 1   
     7    3    4 1   
     8    3   27 1   
     9    4    5 2   
    10    4    6 1   
    11    6    7 1   
    12    6   28 1   
    13    6   29 1   
    14    7    8 1   
    15    7   30 1   
    16    7   31 1   
    17    8    9 ar  
    18    8   11 ar  
    19    9   10 ar  
    20    9   32 1   
    21   10   13 ar  
    22   10   33 1   
    23   11   12 ar  
    24   11   34 1   
    25   12   13 ar  
    26   12   35 1   
    27   13   14 1   
    28   14   15 1   
    29   14   36 1   
    30   15   16 2   
    31   15   17 1   
    32   17   18 1   
    33   17   37 1   
    34   17   38 1   
    35   18   19 1   
    36   18   39 1   
    37   18   40 1   
    38   19   20 1   
    39   19   41 1   
    40   19   42 1   
    41   20   21 1   
    42   20   22 1   
    43   26   43 1   
    44   26   44 1   
    45   26   45 1   
@<TRIPOS>SUBSTRUCTURE
     1 DIK         1 TEMP              0 ****  ****    0 ROOT
