@<TRIPOS>MOLECULE
DIK
   45    45     1     0     0
SMALL
bcc


@<TRIPOS>ATOM
      1 C1          0.5030    0.8820   -0.4110 c3        1 DIK     -0.076400
      2 C2          1.6760    0.0390   -0.0840 c2        1 DIK     -0.022400
      3 C3          2.0590   -0.2290    1.1780 ce        1 DIK     -0.286200
      4 C4          1.3850    0.2670    2.3860 c         1 DIK      0.566300
      5 O1          0.3750    0.9850    2.3550 o         1 DIK     -0.555100
      6 C5          2.0260   -0.1750    3.6710 c3        1 DIK     -0.173400
      7 C6          1.3250    0.3720    4.8990 c3        1 DIK     -0.019100
      8 C7          2.0060   -0.0640    6.1460 ca        1 DIK     -0.133300
      9 C8          1.4640   -1.0720    6.9470 ca        1 DIK     -0.102000
     10 C9          2.0960   -1.4900    8.1130 ca        1 DIK     -0.177500
     11 C10         3.2080    0.5320    6.5440 ca        1 DIK     -0.102000
     12 C11         3.8580    0.1300    7.7020 ca        1 DIK     -0.177500
     13 C12         3.3140   -0.8980    8.5160 ca        1 DIK      0.089600
     14 N1          4.0000   -1.2580    9.6790 n         1 DIK     -0.470100
     15 C13         3.7340   -2.3240   10.5340 c         1 DIK      0.668100
     16 O2          2.7560   -3.0790   10.3700 o         1 DIK     -0.624100
     17 C14         4.6640   -2.5110   11.7200 c3        1 DIK     -0.151400
     18 C15         6.1140   -2.1690   11.4600 c3        1 DIK     -0.078400
     19 C16         7.0000   -2.6050   12.6020 c3        1 DIK     -0.199400
     20 C17         8.3880   -1.9380   12.5120 c         1 DIK      0.910600
     21 O3          8.4700   -0.7880   11.9900 o         1 DIK     -0.846800
     22 O4          9.3710   -2.5760   12.9830 o         1 DIK     -0.846800
     23 H1          0.3630    0.9820   -1.5140 hc        1 DIK      0.052367
     24 H1A        -0.4240    0.4410    0.0370 hc        1 DIK      0.052367
     25 H1B         0.6260    1.9020    0.0360 hc        1 DIK      0.052367
     26 C18         2.4230   -0.5080   -1.2440 c3        1 DIK     -0.076400
     27 H3          2.9410   -0.8640    1.3670 ha        1 DIK      0.134000
     28 H5          2.0260   -1.2970    3.6990 hc        1 DIK      0.069700
     29 H5A         3.0990    0.1590    3.6680 hc        1 DIK      0.069700
     30 H6          1.3090    1.4940    4.8440 hc        1 DIK      0.054200
     31 H6A         0.2560    0.0310    4.8950 hc        1 DIK      0.054200
     32 H8          0.5150   -1.5490    6.6540 ha        1 DIK      0.124500
     33 H9          1.6380   -2.2900    8.7170 ha        1 DIK      0.155500
     34 H10         3.6460    1.3330    5.9280 ha        1 DIK      0.124500
     35 H11         4.8040    0.6180    7.9830 ha        1 DIK      0.155500
     36 HN1         4.8430   -0.7490    9.8540 hn        1 DIK      0.335500
     37 H14         4.5760   -3.5850   12.0350 hc        1 DIK      0.068700
     38 H14A        4.2660   -1.8780   12.5570 hc        1 DIK      0.068700
     39 H15         6.2520   -1.0590   11.3350 hc        1 DIK      0.053200
     40 H15A        6.4600   -2.6610   10.5140 hc        1 DIK      0.053200
     41 H16         7.1230   -3.7160   12.6050 hc        1 DIK      0.025200
     42 H16A        6.5450   -2.3060   13.5800 hc        1 DIK      0.025200
     43 H21         2.8060    0.3310   -1.8780 hc        1 DIK      0.052367
     44 H22         1.7430   -1.1370   -1.8720 hc        1 DIK      0.052367
     45 H23         3.2910   -1.1350   -0.9240 hc        1 DIK      0.052367
@<TRIPOS>BOND
     1    1    2 1   
     2    1   23 1   
     3    1   24 1   
     4    1   25 1   
     5    2    3 2   
     6    2   26 1   
     7    3    4 1   
     8    3   27 1   
     9    4    5 2   
    10    4    6 1   
    11    6    7 1   
    12    6   28 1   
    13    6   29 1   
    14    7    8 1   
    15    7   30 1   
    16    7   31 1   
    17    8    9 ar  
    18    8   11 ar  
    19    9   10 ar  
    20    9   32 1   
    21   10   13 ar  
    22   10   33 1   
    23   11   12 ar  
    24   11   34 1   
    25   12   13 ar  
    26   12   35 1   
    27   13   14 1   
    28   14   15 1   
    29   14   36 1   
    30   15   16 2   
    31   15   17 1   
    32   17   18 1   
    33   17   37 1   
    34   17   38 1   
    35   18   19 1   
    36   18   39 1   
    37   18   40 1   
    38   19   20 1   
    39   19   41 1   
    40   19   42 1   
    41   20   21 1   
    42   20   22 1   
    43   26   43 1   
    44   26   44 1   
    45   26   45 1   
@<TRIPOS>SUBSTRUCTURE
     1 DIK         1 TEMP              0 ****  ****    0 ROOT
