@<TRIPOS>MOLECULE
DIK
   46    46     1     0     0
SMALL
bcc


@<TRIPOS>ATOM
      1 C1          0.1330    0.6060   -0.4640 c3        1 DIK     -0.079900
      2 C2          1.5360    0.2200   -0.1910 c2        1 DIK     -0.008400
      3 C3          2.0050   -0.0160    1.0510 ce        1 DIK     -0.296200
      4 C4          1.2080    0.0760    2.2780 c         1 DIK      0.567300
      5 O1          0.0060    0.3790    2.2960 o         1 DIK     -0.551100
      6 C5          1.9760   -0.2330    3.5350 c3        1 DIK     -0.173400
      7 C6          1.1210   -0.1070    4.7810 c3        1 DIK     -0.029100
      8 C7          1.9050   -0.3870    6.0130 ca        1 DIK     -0.103300
      9 C8          1.7120   -1.5730    6.7290 ca        1 DIK     -0.102500
     10 C9          2.4340   -1.8340    7.8860 ca        1 DIK     -0.166000
     11 C10         2.8400    0.5380    6.4870 ca        1 DIK     -0.102500
     12 C11         3.5750    0.2970    7.6430 ca        1 DIK     -0.166000
     13 C12         3.3850   -0.9000    8.3650 ca        1 DIK      0.062600
     14 N1          4.0890   -1.2120    9.5410 n         1 DIK     -0.467100
     15 C13         5.0810   -0.4670   10.1560 c         1 DIK      0.668100
     16 O2          5.4970    0.6230    9.7250 o         1 DIK     -0.586100
     17 C14         5.6630   -1.0540   11.4350 c3        1 DIK     -0.173400
     18 C15         6.5420   -2.2500   11.1370 c3        1 DIK     -0.076400
     19 C16         7.2110   -2.7810   12.3890 c3        1 DIK     -0.176400
     20 C17         6.2070   -3.3640   13.3400 c         1 DIK      0.619100
     21 O3          5.8060   -4.5260   13.3730 o         1 DIK     -0.482000
     22 O4          5.6380   -2.5630   14.2920 oh        1 DIK     -0.582100
     23 H1         -0.0460    0.7560   -1.5560 hc        1 DIK      0.055367
     24 H1A        -0.1190    1.5510    0.0820 hc        1 DIK      0.055367
     25 H1B        -0.5640   -0.1850   -0.0840 hc        1 DIK      0.055367
     26 C18         2.4190    0.1030   -1.3770 c3        1 DIK     -0.079900
     27 H3          3.0600   -0.3010    1.1990 ha        1 DIK      0.132000
     28 H5          2.8510    0.4680    3.6010 hc        1 DIK      0.067700
     29 H5A         2.3850   -1.2750    3.4540 hc        1 DIK      0.067700
     30 H6          0.6950    0.9320    4.8310 hc        1 DIK      0.061700
     31 H6A         0.2490   -0.8100    4.7010 hc        1 DIK      0.061700
     32 H8          0.9750   -2.3120    6.3750 ha        1 DIK      0.135000
     33 H9          2.2550   -2.7770    8.4250 ha        1 DIK      0.151000
     34 H10         2.9980    1.4790    5.9380 ha        1 DIK      0.135000
     35 H11         4.3020    1.0520    7.9840 ha        1 DIK      0.151000
     36 HN1         3.8330   -2.0710    9.9760 hn        1 DIK      0.318500
     37 H14         4.8400   -1.3410   12.1430 hc        1 DIK      0.074200
     38 H14A        6.2680   -0.2440   11.9240 hc        1 DIK      0.074200
     39 H15         7.3390   -1.9540   10.4030 hc        1 DIK      0.068200
     40 H15A        5.9380   -3.0700   10.6650 hc        1 DIK      0.068200
     41 H16         7.7910   -1.9650   12.8960 hc        1 DIK      0.079700
     42 H16A        7.9340   -3.5930   12.1050 hc        1 DIK      0.079700
     43 H21         2.0090   -0.6650   -2.0800 hc        1 DIK      0.055367
     44 H22         2.4600    1.0830   -1.9170 hc        1 DIK      0.055367
     45 H23         3.4600   -0.1920   -1.0980 hc        1 DIK      0.055367
     46 H12         5.9870   -1.6640   14.2190 ho        1 DIK      0.425000
@<TRIPOS>BOND
     1    1    2 1   
     2    1   23 1   
     3    1   24 1   
     4    1   25 1   
     5    2    3 2   
     6    2   26 1   
     7    3    4 1   
     8    3   27 1   
     9    4    5 2   
    10    4    6 1   
    11    6    7 1   
    12    6   28 1   
    13    6   29 1   
    14    7    8 1   
    15    7   30 1   
    16    7   31 1   
    17    8    9 ar  
    18    8   11 ar  
    19    9   10 ar  
    20    9   32 1   
    21   10   13 ar  
    22   10   33 1   
    23   11   12 ar  
    24   11   34 1   
    25   12   13 ar  
    26   12   35 1   
    27   13   14 1   
    28   14   15 1   
    29   14   36 1   
    30   15   16 2   
    31   15   17 1   
    32   17   18 1   
    33   17   37 1   
    34   17   38 1   
    35   18   19 1   
    36   18   39 1   
    37   18   40 1   
    38   19   20 1   
    39   19   41 1   
    40   19   42 1   
    41   20   21 2   
    42   20   22 1   
    43   22   46 1   
    44   26   43 1   
    45   26   44 1   
    46   26   45 1   
@<TRIPOS>SUBSTRUCTURE
     1 DIK         1 TEMP              0 ****  ****    0 ROOT
