@<TRIPOS>MOLECULE
DIK
   45    42     1     0     0
SMALL
bcc


@<TRIPOS>ATOM
      1 C1         -3.3820    1.9110   -6.1630 c3        1 DIK     -0.198500
      2 C2         -4.0900    1.4730   -4.9000 c2        1 DIK     -0.014000
      3 C3         -3.3750    1.0320   -3.8450 c1        1 DIK     -0.267000
      4 C4         -1.8640    0.9770   -3.9240 c1        1 DIK      0.258000
      5 O1         -1.3110    0.9960   -5.0060 o         1 DIK     -0.316000
      6 C5         -1.0410    0.9110   -2.6550 c3        1 DIK     -0.202000
      7 C6          0.3010    0.2770   -2.9560 c3        1 DIK     -0.105000
      8 C7          1.0060   -0.0540   -1.6570 c2        1 DIK     -0.126000
      9 C8          0.7830   -1.2740   -1.0380 c2        1 DIK     -0.102000
     10 C9          1.4060   -1.5660    0.1650 c1        1 DIK     -0.167000
     11 C10         1.8520    0.8750   -1.0720 c1        1 DIK     -0.102000
     12 C11         2.4760    0.5840    0.1320 c1        1 DIK     -0.188000
     13 C12         2.2530   -0.6370    0.7500 c1        1 DIK      0.097000
     14 N1          2.9040   -0.9420    1.9740 n         1 DIK     -0.324000
     15 C13         2.1760   -0.9140    3.1920 c2        1 DIK      0.312000
     16 O2          0.9950   -0.6280    3.1870 o         1 DIK     -0.385000
     17 C14         2.8590   -1.2830    4.4920 c3        1 DIK     -0.180000
     18 C15         1.9180   -1.0250    5.6480 c3        1 DIK     -0.157000
     19 C16         2.5380   -1.5410    6.9290 c3        1 DIK     -0.228000
     20 C17         1.5520   -1.3850    8.0660 c2        1 DIK      0.330000
     21 O3          1.5860   -0.3560    8.7900 o         1 DIK     -0.581500
     22 O4          0.7210   -2.2990    8.3090 o         1 DIK     -0.581500
     23 H1         -2.7080    2.5860   -5.9420 hc        1 DIK      0.091667
     24 H1A        -2.9470    1.1380   -6.5780 hc        1 DIK      0.091667
     25 H1B        -4.0350    2.2930   -6.7870 hc        1 DIK      0.091667
     26 C18        -5.6000    1.5280   -4.8210 c3        1 DIK     -0.198500
     27 H3         -3.8320    0.7500   -3.0300 ha        1 DIK      0.134000
     28 H5         -1.5130    0.3740   -1.9880 hc        1 DIK      0.109000
     29 H5A        -0.9040    1.8150   -2.3080 hc        1 DIK      0.109000
     30 H6          0.8480    0.9010   -3.4730 hc        1 DIK      0.093500
     31 H6A         0.1660   -0.5430   -3.4710 hc        1 DIK      0.093500
     32 H8          0.1870   -1.9280   -1.4500 ha        1 DIK      0.125000
     33 H9          1.2490   -2.4250    0.6000 ha        1 DIK      0.173000
     34 H10         2.0310    1.7230   -1.5210 ha        1 DIK      0.124000
     35 H11         3.0720    1.2380    0.5440 ha        1 DIK      0.138000
     36 HN1         3.7900   -1.1610    1.9770 hn        1 DIK      0.249000
     37 H14         3.1020   -2.2310    4.4740 hc        1 DIK      0.108000
     38 H14A        3.6660   -0.7420    4.6010 hc        1 DIK      0.108000
     39 H15         1.7560   -0.0640    5.7290 hc        1 DIK      0.092500
     40 H15A        1.0700   -1.4860    5.4880 hc        1 DIK      0.092500
     41 H16         3.3490   -1.0310    7.1270 hc        1 DIK      0.064500
     42 H16A        2.7660   -2.4870    6.8230 hc        1 DIK      0.064500
     43 H21        -5.8830    2.4450   -4.6180 hc        1 DIK      0.091667
     44 H22        -5.9120    0.9260   -4.1140 hc        1 DIK      0.091667
     45 H23        -5.9830    1.2510   -5.6800 hc        1 DIK      0.091667
@<TRIPOS>BOND
     1    1    2 1   
     2    1   23 1   
     3    1   24 1   
     4    1   25 1   
     5    2    3 1   
     6    2   26 1   
     7    3   27 1   
     8    4    5 1   
     9    4    6 1   
    10    6    7 1   
    11    6   28 1   
    12    6   29 1   
    13    7    8 1   
    14    7   30 1   
    15    7   31 1   
    16    8    9 1   
    17    8   11 1   
    18    9   10 1   
    19    9   32 1   
    20   10   33 1   
    21   11   34 1   
    22   12   13 1   
    23   12   35 1   
    24   13   14 1   
    25   14   15 1   
    26   14   36 1   
    27   15   16 1   
    28   15   17 1   
    29   17   18 1   
    30   17   37 1   
    31   17   38 1   
    32   18   19 1   
    33   18   39 1   
    34   18   40 1   
    35   19   20 1   
    36   19   41 1   
    37   19   42 1   
    38   20   21 1   
    39   20   22 1   
    40   26   43 1   
    41   26   44 1   
    42   26   45 1   
@<TRIPOS>SUBSTRUCTURE
     1 DIK         1 TEMP              0 ****  ****    0 ROOT
