@<TRIPOS>MOLECULE
DIK
   45    45     1     0     0
SMALL
bcc


@<TRIPOS>ATOM
      1 C1          0.4640    0.8270   -0.4080 c3        1 DIK     -0.076400
      2 C2          1.5910   -0.0750   -0.0750 c2        1 DIK     -0.022400
      3 C3          1.9850   -0.3220    1.1880 ce        1 DIK     -0.286200
      4 C4          1.3690    0.2550    2.3900 c         1 DIK      0.566300
      5 O1          0.4040    1.0320    2.3550 o         1 DIK     -0.555100
      6 C5          2.0110   -0.1820    3.6780 c3        1 DIK     -0.173400
      7 C6          1.3710    0.4490    4.8990 c3        1 DIK     -0.019100
      8 C7          2.0520    0.0130    6.1470 ca        1 DIK     -0.133300
      9 C8          1.4650   -0.9310    6.9940 ca        1 DIK     -0.102000
     10 C9          2.0970   -1.3470    8.1610 ca        1 DIK     -0.177500
     11 C10         3.2970    0.5450    6.4990 ca        1 DIK     -0.102000
     12 C11         3.9460    0.1430    7.6570 ca        1 DIK     -0.177500
     13 C12         3.3580   -0.8210    8.5180 ca        1 DIK      0.089600
     14 N1          4.0470   -1.1830    9.6790 ns        1 DIK     -0.470100
     15 C13         3.7340   -2.2010   10.5760 c         1 DIK      0.668100
     16 O2          2.7070   -2.8980   10.4580 o         1 DIK     -0.624100
     17 C14         4.6770   -2.4060   11.7480 c3        1 DIK     -0.151400
     18 C15         6.1400   -2.1670   11.4460 c3        1 DIK     -0.078400
     19 C16         7.0230   -2.6190   12.5840 c3        1 DIK     -0.199400
     20 C17         8.4470   -2.0450   12.4410 c         1 DIK      0.910600
     21 O3          8.5890   -0.9210   11.8780 o         1 DIK     -0.846800
     22 O4          9.3990   -2.7280   12.9140 o         1 DIK     -0.846800
     23 H1          0.3060    0.8980   -1.5110 hc        1 DIK      0.052367
     24 H1A         0.6580    1.8520    0.0010 hc        1 DIK      0.052367
     25 H1B        -0.4780    0.4590    0.0740 hc        1 DIK      0.052367
     26 C18         2.2780   -0.7050   -1.2300 c3        1 DIK     -0.076400
     27 H3          2.8320   -1.0030    1.3810 ha        1 DIK      0.134000
     28 H5          3.1010    0.0850    3.6410 hc        1 DIK      0.069700
     29 H5A         1.9420   -1.3010    3.7450 hc        1 DIK      0.069700
     30 H6          1.4230    1.5670    4.8050 hc        1 DIK      0.054200
     31 H6A         0.2830    0.1740    4.9280 hc        1 DIK      0.054200
     32 H8          0.4830   -1.3570    6.7380 ha        1 DIK      0.124500
     33 H9          1.6040   -2.0960    8.8030 ha        1 DIK      0.155500
     34 H10         3.7710    1.2950    5.8460 ha        1 DIK      0.124500
     35 H11         4.9280    0.5800    7.9010 ha        1 DIK      0.155500
     36 HN1         4.9240   -0.7240    9.8180 hn        1 DIK      0.335500
     37 H14         4.3400   -1.7210   12.5700 hc        1 DIK      0.068700
     38 H14A        4.5300   -3.4620   12.1020 hc        1 DIK      0.068700
     39 H15         6.4320   -2.7110   10.5110 hc        1 DIK      0.053200
     40 H15A        6.3440   -1.0720   11.2800 hc        1 DIK      0.053200
     41 H16         6.6110   -2.2590   13.5600 hc        1 DIK      0.025200
     42 H16A        7.0760   -3.7350   12.6240 hc        1 DIK      0.025200
     43 H21         1.5480   -1.3120   -1.8210 hc        1 DIK      0.052367
     44 H22         2.6970    0.0880   -1.9010 hc        1 DIK      0.052367
     45 H23         3.1130   -1.3720   -0.9060 hc        1 DIK      0.052367
@<TRIPOS>BOND
     1    1    2 1   
     2    1   23 1   
     3    1   24 1   
     4    1   25 1   
     5    2    3 2   
     6    2   26 1   
     7    3    4 1   
     8    3   27 1   
     9    4    5 2   
    10    4    6 1   
    11    6    7 1   
    12    6   28 1   
    13    6   29 1   
    14    7    8 1   
    15    7   30 1   
    16    7   31 1   
    17    8    9 ar  
    18    8   11 ar  
    19    9   10 ar  
    20    9   32 1   
    21   10   13 ar  
    22   10   33 1   
    23   11   12 ar  
    24   11   34 1   
    25   12   13 ar  
    26   12   35 1   
    27   13   14 1   
    28   14   15 1   
    29   14   36 1   
    30   15   16 2   
    31   15   17 1   
    32   17   18 1   
    33   17   37 1   
    34   17   38 1   
    35   18   19 1   
    36   18   39 1   
    37   18   40 1   
    38   19   20 1   
    39   19   41 1   
    40   19   42 1   
    41   20   21 1   
    42   20   22 1   
    43   26   43 1   
    44   26   44 1   
    45   26   45 1   
@<TRIPOS>SUBSTRUCTURE
     1 DIK         1 TEMP              0 ****  ****    0 ROOT
