@<TRIPOS>MOLECULE
DIL
   21    20     1     0     0
SMALL
bcc


@<TRIPOS>ATOM
      1 N          -2.1120    0.9360    0.4940 n3        1 DIL     -0.890800
      2 CA         -0.6900    0.9360    0.4940 c3        1 DIL      0.024500
      3 C          -0.1860    0.9360    1.9190 c         1 DIL      0.886600
      4 O           0.9510    1.4070    2.1850 o         1 DIL     -0.846300
      5 CB         -0.1860   -0.2980   -0.2180 c3        1 DIL     -0.035700
      6 CG1         1.2290   -0.0600   -0.7000 c3        1 DIL     -0.095400
      7 CG2        -0.2030   -1.4740    0.7350 c3        1 DIL     -0.087100
      8 CD1         1.3270   -0.4120   -2.1680 c3        1 DIL     -0.079100
      9 OXT        -0.9030    0.4650    2.8400 o         1 DIL     -0.846300
     10 H          -2.4160    1.1560   -0.3370 hn        1 DIL      0.328800
     11 H2         -2.4160    1.5450    1.1010 hn        1 DIL      0.328800
     12 HA         -0.3640    1.7330    0.0340 h1        1 DIL      0.041700
     13 HB         -0.7620   -0.4910   -0.9830 hc        1 DIL      0.019700
     14 HG12        1.4620    0.8790   -0.5740 hc        1 DIL      0.057200
     15 HG13        1.8450   -0.6200   -0.1900 hc        1 DIL      0.057200
     16 HG21       -1.0820   -1.5400    1.1540 hc        1 DIL      0.028367
     17 HG22       -0.0150   -2.2950    0.2420 hc        1 DIL      0.028367
     18 HG23        0.4770   -1.3440    1.4230 hc        1 DIL      0.028367
     19 HD11        0.7030    0.1400   -2.6780 hc        1 DIL      0.016367
     20 HD12        1.1050   -1.3540   -2.2930 hc        1 DIL      0.016367
     21 HD13        2.2370   -0.2480   -2.4820 hc        1 DIL      0.016367
@<TRIPOS>BOND
     1    1    2 1   
     2    1   10 1   
     3    1   11 1   
     4    2    3 1   
     5    2    5 1   
     6    2   12 1   
     7    3    4 1   
     8    3    9 1   
     9    5    6 1   
    10    5    7 1   
    11    5   13 1   
    12    6    8 1   
    13    6   14 1   
    14    6   15 1   
    15    7   16 1   
    16    7   17 1   
    17    7   18 1   
    18    8   19 1   
    19    8   20 1   
    20    8   21 1   
@<TRIPOS>SUBSTRUCTURE
     1 DIL         1 TEMP              0 ****  ****    0 ROOT
