@<TRIPOS>MOLECULE
DIL
   21    20     1     0     0
SMALL
bcc


@<TRIPOS>ATOM
      1 N           1.9070    0.5640   -0.3640 n3        1 DIL     -0.891800
      2 CA          0.4500    0.4990   -0.4050 c3        1 DIL      0.023500
      3 C          -0.0750   -0.2140   -1.6980 c         1 DIL      0.884600
      4 O           0.6050   -1.1770   -2.1550 o         1 DIL     -0.844300
      5 CB         -0.1640   -0.2090    0.8200 c3        1 DIL     -0.043700
      6 CG1         0.4790    0.2390    2.1250 c3        1 DIL     -0.072400
      7 CG2        -1.6590    0.0440    0.8440 c3        1 DIL     -0.095100
      8 CD1        -0.1720   -0.3760    3.3380 c3        1 DIL     -0.088100
      9 OXT        -1.1350    0.2250   -2.2260 o         1 DIL     -0.844300
     10 H           2.2150    0.9260   -1.2500 hn        1 DIL      0.329300
     11 H2          2.2580   -0.3780   -0.3090 hn        1 DIL      0.329300
     12 HA          0.0740    1.5620   -0.4180 h1        1 DIL      0.042700
     13 HB          0.0110   -1.3150    0.6970 hc        1 DIL      0.047700
     14 HG12        0.4270    1.3570    2.1950 hc        1 DIL      0.035700
     15 HG13        1.5650   -0.0430    2.1230 hc        1 DIL      0.035700
     16 HG21       -1.8740    1.0840    1.1890 hc        1 DIL      0.032700
     17 HG22       -2.0840   -0.0830   -0.1850 hc        1 DIL      0.032700
     18 HG23       -2.1640   -0.6700    1.5380 hc        1 DIL      0.032700
     19 HD11        0.4180   -0.1430    4.2580 hc        1 DIL      0.017367
     20 HD12       -1.2070    0.0210    3.4790 hc        1 DIL      0.017367
     21 HD13       -0.2360   -1.4850    3.2310 hc        1 DIL      0.017367
@<TRIPOS>BOND
     1    1    2 1   
     2    1   10 1   
     3    1   11 1   
     4    2    3 1   
     5    2    5 1   
     6    2   12 1   
     7    3    4 1   
     8    3    9 1   
     9    5    6 1   
    10    5    7 1   
    11    5   13 1   
    12    6    8 1   
    13    6   14 1   
    14    6   15 1   
    15    7   16 1   
    16    7   17 1   
    17    7   18 1   
    18    8   19 1   
    19    8   20 1   
    20    8   21 1   
@<TRIPOS>SUBSTRUCTURE
     1 DIL         1 TEMP              0 ****  ****    0 ROOT
