@<TRIPOS>MOLECULE
DIM
   46    47     1     0     0
SMALL
bcc


@<TRIPOS>ATOM
      1 O1          8.1440   -1.7090    0.2970 o         1 DIM     -0.588100
      2 C1          7.3440   -2.5950    0.6310 c         1 DIM      0.668900
      3 N1          5.9730   -2.4250    0.6600 n         1 DIM     -0.541400
      4 C2          5.3290   -1.2330    0.3170 cc        1 DIM      0.404200
      5 N2          3.9380   -1.0600    0.3420 nc        1 DIM     -0.674000
      6 C3          3.7260    0.2290   -0.0570 cd        1 DIM      0.321000
      7 N3          4.9380    0.8880   -0.3360 na        1 DIM     -0.131900
      8 C4          5.9570   -0.0190   -0.1050 cd        1 DIM     -0.223600
      9 C5          5.0920    2.2400   -0.7750 c3        1 DIM      0.015600
     10 C6          2.4050    0.8980   -0.1930 c         1 DIM      0.622600
     11 O2          2.3140    2.0830   -0.5740 o         1 DIM     -0.615100
     12 N4          1.2910    0.1340    0.1230 n         1 DIM     -0.510400
     13 C7         -0.0110    0.6250    0.0450 cc        1 DIM      0.427200
     14 N5         -1.1450   -0.1370    0.3470 nc        1 DIM     -0.663000
     15 C8         -2.2110    0.7000    0.1460 cd        1 DIM      0.296000
     16 N6         -1.7920    1.9760   -0.2750 na        1 DIM     -0.123900
     17 C9         -0.4130    1.9490   -0.3420 cd        1 DIM     -0.212600
     18 C10        -2.6320    3.0950   -0.5680 c3        1 DIM      0.015600
     19 C11        -3.6280    0.3340    0.3380 c         1 DIM      0.633600
     20 O3         -4.5630    1.1130    0.0210 o         1 DIM     -0.683100
     21 N7         -3.9050   -0.9110    0.8670 n         1 DIM     -0.560900
     22 C12        -5.2240   -1.3010    1.2560 c3        1 DIM      0.098000
     23 C13        -5.9990   -2.0990    0.1860 c3        1 DIM     -0.195700
     24 C14        -7.2310   -1.3600   -0.3260 c2        1 DIM      0.446800
     25 N9         -7.0910   -0.1140   -0.8090 nh        1 DIM     -0.469100
     26 N8         -8.4240   -2.0020   -0.3070 nh        1 DIM     -0.453200
     27 H1          7.6580   -3.6190    0.9420 h5        1 DIM      0.046200
     28 HN1         5.3930   -3.1830    0.9410 hn        1 DIM      0.334500
     29 H4          7.0190    0.2050   -0.2380 h4        1 DIM      0.224000
     30 H51         4.5490    2.3850   -1.7480 h1        1 DIM      0.072033
     31 H52         4.6420    2.9370   -0.0150 h1        1 DIM      0.072033
     32 H53         6.1820    2.4700   -0.9060 h1        1 DIM      0.072033
     33 HN4         1.4070   -0.8110    0.4250 hn        1 DIM      0.361500
     34 H9          0.2030    2.8030   -0.6390 h4        1 DIM      0.230000
     35 H101       -3.2610    2.8680   -1.4710 h1        1 DIM      0.072367
     36 H102       -3.3180    3.2910    0.3000 h1        1 DIM      0.072367
     37 H103       -1.9970    3.9990   -0.7650 h1        1 DIM      0.072367
     38 HN7        -3.1540   -1.5210    1.1060 hn        1 DIM      0.357500
     39 H121       -5.1380   -1.9650    2.1670 h1        1 DIM      0.081200
     40 H122       -5.8120   -0.3860    1.5580 h1        1 DIM      0.081200
     41 H131       -5.3520   -2.3280   -0.7090 hc        1 DIM      0.109700
     42 H132       -6.2980   -3.0860    0.6320 hc        1 DIM      0.109700
     43 HN91       -6.1900    0.3400   -0.7570 hn        1 DIM      0.331950
     44 HN92       -7.8570    0.4220   -1.1570 hn        1 DIM      0.331950
     45 HN81       -9.2660   -1.5890   -0.6450 hn        1 DIM      0.331950
     46 HN82       -8.4730   -2.9350    0.0400 hn        1 DIM      0.331950
@<TRIPOS>BOND
     1    1    2 2   
     2    2    3 1   
     3    2   27 1   
     4    3    4 1   
     5    3   28 1   
     6    4    5 1   
     7    4    8 2   
     8    5    6 2   
     9    6    7 1   
    10    6   10 1   
    11    7    8 1   
    12    7    9 1   
    13    8   29 1   
    14    9   30 1   
    15    9   31 1   
    16    9   32 1   
    17   10   11 2   
    18   10   12 1   
    19   12   13 1   
    20   12   33 1   
    21   13   14 1   
    22   13   17 2   
    23   14   15 2   
    24   15   16 1   
    25   15   19 1   
    26   16   17 1   
    27   16   18 1   
    28   17   34 1   
    29   18   35 1   
    30   18   36 1   
    31   18   37 1   
    32   19   20 2   
    33   19   21 1   
    34   21   22 1   
    35   21   38 1   
    36   22   23 1   
    37   22   39 1   
    38   22   40 1   
    39   23   24 1   
    40   23   41 1   
    41   23   42 1   
    42   24   25 2   
    43   24   26 1   
    44   25   43 1   
    45   25   44 1   
    46   26   45 1   
    47   26   46 1   
@<TRIPOS>SUBSTRUCTURE
     1 DIM         1 TEMP              0 ****  ****    0 ROOT
