@<TRIPOS>MOLECULE
DIM
   46    39     1     0     0
SMALL
bcc


@<TRIPOS>ATOM
      1 O1          5.5270   -5.2840   -1.7620 o         1 DIM     -0.351000
      2 C1          5.5090   -4.9680   -2.9570 c1        1 DIM      0.270000
      3 N1          4.2380   -4.4210   -3.5760 n2        1 DIM     -0.308000
      4 C2          3.0400   -4.2660   -2.7640 c2        1 DIM     -0.002000
      5 N2          2.8180   -3.3020   -1.8750 n2        1 DIM     -0.149000
      6 C3          1.5850   -3.4670   -1.3830 c1        1 DIM     -0.120000
      7 N3          1.0380   -4.5510   -1.9790 n2        1 DIM     -0.092000
      8 C4          1.9260   -5.0430   -2.8240 c1        1 DIM     -0.138000
      9 C5         -0.3330   -5.0330   -1.7920 c2        1 DIM     -0.085000
     10 C6          0.8890   -2.5560   -0.3810 c1        1 DIM      0.408000
     11 O2         -0.2520   -2.8170   -0.0050 o         1 DIM     -0.357000
     12 N4          1.6020   -1.3750    0.1750 n3        1 DIM     -0.289000
     13 C7          0.9500   -0.5350    1.1550 c2        1 DIM      0.015000
     14 N5          0.2560    0.5700    0.8940 n2        1 DIM     -0.100000
     15 C8         -0.1100    1.1330    2.0860 c1        1 DIM     -0.150000
     16 N6          0.3710    0.3530    3.0810 n2        1 DIM     -0.082000
     17 C9          1.0250   -0.6770    2.5200 c1        1 DIM     -0.133000
     18 C10         0.0850    0.5140    4.5180 c2        1 DIM     -0.085000
     19 C11        -0.8210    2.4470    2.2610 c1        1 DIM      0.395000
     20 O3         -1.0930    2.8390    3.3640 o         1 DIM     -0.421000
     21 N7         -1.2700    3.1620    1.1270 n3        1 DIM     -0.375000
     22 C12        -1.7990    4.4980    1.2820 c3        1 DIM     -0.022000
     23 C13        -3.3280    4.5170    0.8410 c3        1 DIM     -0.190000
     24 C14        -3.4550    5.1820   -0.5190 c2        1 DIM      0.293000
     25 N9         -3.9480    6.4420   -0.6130 n2        1 DIM     -0.325000
     26 N8         -3.0440    4.4670   -1.7220 n3        1 DIM     -0.297000
     27 H1          6.2770   -5.1610   -3.5210 ha        1 DIM      0.140000
     28 HN1         4.2440   -4.1200   -4.4520 hn        1 DIM      0.249000
     29 H4          1.8050   -5.8210   -3.3900 DU        1 DIM      0.235000
     30 H51        -0.4960   -5.7860   -2.3840 ha        1 DIM      0.111500
     31 H52        -0.4540   -5.3110   -0.8770 ha        1 DIM      0.111500
     32 H53        -0.9730   -4.3010   -2.0020 ha        1 DIM      0.111500
     33 HN4         2.4060   -1.1450   -0.1460 hn        1 DIM      0.267000
     34 H9          1.4610   -1.3750    2.9820 DU        1 DIM      0.235000
     35 H101       -0.9000    0.5740    4.6540 ha        1 DIM      0.111500
     36 H102        0.5250    1.3630    4.8570 ha        1 DIM      0.111500
     37 H103        0.4440   -0.2720    5.0210 ha        1 DIM      0.111500
     38 HN7        -1.2530    2.7850    0.3360 hn        1 DIM      0.269000
     39 H121       -1.7260    4.7680    2.2100 h1        1 DIM      0.117000
     40 H122       -1.2840    5.1280    0.7140 h1        1 DIM      0.117000
     41 H131       -3.6680    3.5890    0.7880 hc        1 DIM      0.156500
     42 H132       -3.8570    5.0260    1.5070 hc        1 DIM      0.156500
     43 HN91       -4.2120    6.9000    0.1690 DU        1 DIM      0.235000
     44 HN92       -4.0250    6.8430   -1.4380 hn        1 DIM      0.268000
     45 HN81       -3.1690    3.5570   -1.7870 hn        1 DIM      0.286000
     46 HN82       -2.5480    4.9280   -2.3900 hn        1 DIM      0.286000
@<TRIPOS>BOND
     1    1    2 1   
     2    2   27 1   
     3    3    4 1   
     4    3   28 1   
     5    4    5 1   
     6    4    8 1   
     7    5    6 1   
     8    6    7 1   
     9    7    8 1   
    10    9   30 1   
    11    9   31 1   
    12    9   32 1   
    13   10   11 1   
    14   10   12 1   
    15   12   13 1   
    16   12   33 1   
    17   13   14 1   
    18   13   17 1   
    19   14   15 1   
    20   15   16 1   
    21   16   17 1   
    22   18   35 1   
    23   18   36 1   
    24   18   37 1   
    25   19   20 1   
    26   19   21 1   
    27   21   22 1   
    28   21   38 1   
    29   22   23 1   
    30   22   39 1   
    31   22   40 1   
    32   23   24 1   
    33   23   41 1   
    34   23   42 1   
    35   24   25 1   
    36   24   26 1   
    37   25   44 1   
    38   26   45 1   
    39   26   46 1   
@<TRIPOS>SUBSTRUCTURE
     1 DIM         1 TEMP              0 ****  ****    0 ROOT
