@<TRIPOS>MOLECULE
DIN
   20    21     1     0     0
SMALL
bcc


@<TRIPOS>ATOM
      1 C1         -0.0060   -0.0180    0.0370 ca        1 DIN      0.032000
      2 C2          1.4140   -0.0530    0.0760 ca        1 DIN     -0.222000
      3 C3          2.0710    0.0170    1.2870 ca        1 DIN      0.137100
      4 C4          1.3490    0.1250    2.5110 ca        1 DIN     -0.141000
      5 C5         -0.0200    0.1600    2.4790 ca        1 DIN     -0.092000
      6 C6         -2.1630    0.1240    1.1700 ca        1 DIN      0.145100
      7 C7         -2.0700   -0.0540   -1.2380 ca        1 DIN     -0.081000
      8 C8         -0.6960   -0.0890   -1.2010 ca        1 DIN     -0.168000
      9 O1         -2.9810    0.2270    2.2720 oh        1 DIN     -0.497100
     10 O2          3.4400   -0.0120    1.4110 oh        1 DIN     -0.495100
     11 C9         -2.8190    0.0530   -0.0510 ca        1 DIN     -0.179000
     12 C10        -0.7370    0.0910    1.2520 ca        1 DIN     -0.118000
     13 H2          1.9700   -0.1370   -0.8690 ha        1 DIN      0.138000
     14 H4          1.9120    0.1780    3.4530 ha        1 DIN      0.154000
     15 H5         -0.5680    0.2440    3.4300 ha        1 DIN      0.126000
     16 H7         -2.6050   -0.1100   -2.1980 ha        1 DIN      0.135000
     17 H8         -0.1100   -0.1730   -2.1280 ha        1 DIN      0.134000
     18 HO1        -2.4350    0.2740    3.0680 ho        1 DIN      0.420000
     19 HO2         3.8200   -0.0870    0.5230 ho        1 DIN      0.422000
     20 H9         -3.9170    0.0810   -0.0840 ha        1 DIN      0.151000
@<TRIPOS>BOND
     1    1    2 ar  
     2    1    8 ar  
     3    1   12 ar  
     4    2    3 ar  
     5    2   13 1   
     6    3    4 ar  
     7    3   10 1   
     8    4    5 ar  
     9    4   14 1   
    10    5   12 ar  
    11    5   15 1   
    12    6    9 1   
    13    6   11 ar  
    14    6   12 ar  
    15    7    8 ar  
    16    7   11 ar  
    17    7   16 1   
    18    8   17 1   
    19    9   18 1   
    20   10   19 1   
    21   11   20 1   
@<TRIPOS>SUBSTRUCTURE
     1 DIN         1 TEMP              0 ****  ****    0 ROOT
