@<TRIPOS>MOLECULE
DIN
   20    21     1     0     0
SMALL
bcc


@<TRIPOS>ATOM
      1 C1         -0.0050   -0.0230    0.0380 ca        1 DIN      0.032000
      2 C2          1.4140   -0.0840    0.0810 ca        1 DIN     -0.222000
      3 C3          2.0690   -0.0220    1.2930 ca        1 DIN      0.137100
      4 C4          1.3450    0.1010    2.5150 ca        1 DIN     -0.141000
      5 C5         -0.0230    0.1600    2.4790 ca        1 DIN     -0.092000
      6 C6         -2.1630    0.1580    1.1650 ca        1 DIN      0.145100
      7 C7         -2.0660   -0.0270   -1.2430 ca        1 DIN     -0.081000
      8 C8         -0.6930   -0.0850   -1.2020 ca        1 DIN     -0.168000
      9 O1         -2.9810    0.2770    2.2650 oh        1 DIN     -0.497100
     10 O2          3.4370   -0.0740    1.4210 oh        1 DIN     -0.495100
     11 C9         -2.8160    0.0960   -0.0580 ca        1 DIN     -0.179000
     12 C10        -0.7370    0.1000    1.2500 ca        1 DIN     -0.118000
     13 H2          1.9710   -0.1790   -0.8620 ha        1 DIN      0.138000
     14 H4          1.9070    0.1470    3.4590 ha        1 DIN      0.154000
     15 H5         -0.5710    0.2560    3.4290 ha        1 DIN      0.126000
     16 H7         -2.5990   -0.0750   -2.2040 ha        1 DIN      0.135000
     17 H8         -0.1060   -0.1800   -2.1270 ha        1 DIN      0.134000
     18 HO1        -2.4370    0.3120    3.0620 ho        1 DIN      0.420000
     19 HO2         3.8180   -0.1570    0.5340 ho        1 DIN      0.422000
     20 H9         -3.9130    0.1420   -0.0940 ha        1 DIN      0.151000
@<TRIPOS>BOND
     1    1    2 ar  
     2    1    8 ar  
     3    1   12 ar  
     4    2    3 ar  
     5    2   13 1   
     6    3    4 ar  
     7    3   10 1   
     8    4    5 ar  
     9    4   14 1   
    10    5   12 ar  
    11    5   15 1   
    12    6    9 1   
    13    6   11 ar  
    14    6   12 ar  
    15    7    8 ar  
    16    7   11 ar  
    17    7   16 1   
    18    8   17 1   
    19    9   18 1   
    20   10   19 1   
    21   11   20 1   
@<TRIPOS>SUBSTRUCTURE
     1 DIN         1 TEMP              0 ****  ****    0 ROOT
