@<TRIPOS>MOLECULE
DIN
   20    21     1     0     0
SMALL
bcc


@<TRIPOS>ATOM
      1 C1          0.0350   -0.9200    0.0290 ca        1 DIN      0.026000
      2 C2          1.4340   -1.1490    0.0990 ca        1 DIN     -0.161000
      3 C3          2.3040   -0.0750    0.1070 ca        1 DIN      0.127100
      4 C4          1.8190    1.2600    0.0450 ca        1 DIN     -0.194000
      5 C5          0.4680    1.4870   -0.0220 ca        1 DIN     -0.083000
      6 C6         -1.8770    0.5940   -0.1020 ca        1 DIN      0.143100
      7 C7         -2.2270   -1.7970   -0.0480 ca        1 DIN     -0.082000
      8 C8         -0.8720   -2.0140    0.0200 ca        1 DIN     -0.164000
      9 O1         -2.4770    1.8310   -0.1660 oh        1 DIN     -0.497100
     10 O2          3.6510   -0.3530    0.1760 oh        1 DIN     -0.495100
     11 C9         -2.7440   -0.4880   -0.1100 ca        1 DIN     -0.178000
     12 C10        -0.4600    0.4110   -0.0330 ca        1 DIN     -0.118000
     13 H2          1.8190   -2.1780    0.1470 ha        1 DIN      0.154000
     14 H4          2.5340    2.0960    0.0530 ha        1 DIN      0.136000
     15 H5          0.1080    2.5260   -0.0700 ha        1 DIN      0.124000
     16 H7         -2.9300   -2.6440   -0.0540 ha        1 DIN      0.136000
     17 H8         -0.4660   -3.0350    0.0690 ha        1 DIN      0.137000
     18 HO1        -1.7940    2.5140   -0.1550 ho        1 DIN      0.419000
     19 HO2         4.1300    0.4880    0.1730 ho        1 DIN      0.420000
     20 H9         -3.8290   -0.3190   -0.1640 ha        1 DIN      0.151000
@<TRIPOS>BOND
     1    1    2 ar  
     2    1    8 ar  
     3    1   12 ar  
     4    2    3 ar  
     5    2   13 1   
     6    3    4 ar  
     7    3   10 1   
     8    4    5 ar  
     9    4   14 1   
    10    5   12 ar  
    11    5   15 1   
    12    6    9 1   
    13    6   11 ar  
    14    6   12 ar  
    15    7    8 ar  
    16    7   11 ar  
    17    7   16 1   
    18    8   17 1   
    19    9   18 1   
    20   10   19 1   
    21   11   20 1   
@<TRIPOS>SUBSTRUCTURE
     1 DIN         1 TEMP              0 ****  ****    0 ROOT
