@<TRIPOS>MOLECULE
DIN
   20    16     1     0     0
SMALL
bcc


@<TRIPOS>ATOM
      1 C1          0.2750    0.0060   -0.7400 c1        1 DIN      0.030000
      2 C2          1.6820    0.0060   -0.7400 c1        1 DIN     -0.199500
      3 C3          2.3770    0.0060    0.4620 c1        1 DIN      0.099000
      4 C4          1.6820    0.0060    1.6680 c1        1 DIN     -0.157000
      5 C5          0.2930    0.0060    1.6690 c1        1 DIN     -0.062000
      6 C6         -1.8200    0.0060    0.4510 c1        1 DIN      0.109000
      7 C7         -1.8200    0.0060   -1.9570 c1        1 DIN     -0.077000
      8 C8         -0.4310    0.0060   -1.9590 c1        1 DIN     -0.199500
      9 O1         -2.6290    0.3490    1.5490 o         1 DIN     -0.253000
     10 O2          3.7420    0.3250    0.5750 oh        1 DIN     -0.250000
     11 C9         -2.5150    0.0060   -0.7520 c2        1 DIN     -0.240000
     12 C10        -0.4120    0.0060    0.4510 c1        1 DIN     -0.085000
     13 H2          2.1700    0.0060   -1.5860 ha        1 DIN      0.135000
     14 H4          2.1700    0.0060    2.5130 ha        1 DIN      0.153000
     15 H5         -0.1940    0.0060    2.5150 ha        1 DIN      0.153000
     16 H7         -2.3080    0.0060   -2.8020 ha        1 DIN      0.133000
     17 H8          0.0560    0.0060   -2.8050 ha        1 DIN      0.135000
     18 HO1        -3.0580   -0.3720    1.8380 ho        1 DIN      0.221000
     19 HO2         4.2300   -0.3970    0.4040 ho        1 DIN      0.219000
     20 H9         -3.4910    0.0060   -0.7510 ha        1 DIN      0.134000
@<TRIPOS>BOND
     1    1    2 1   
     2    1    8 1   
     3    2   13 1   
     4    3    4 1   
     5    3   10 1   
     6    4   14 1   
     7    5   12 1   
     8    5   15 1   
     9    6   11 1   
    10    6   12 1   
    11    7   11 1   
    12    7   16 1   
    13    8   17 1   
    14    9   18 1   
    15   10   19 1   
    16   11   20 1   
@<TRIPOS>SUBSTRUCTURE
     1 DIN         1 TEMP              0 ****  ****    0 ROOT
