@<TRIPOS>MOLECULE
DIO
   14    14     1     0     0
SMALL
bcc


@<TRIPOS>ATOM
      1 C1          0.0020    0.0280   -0.0260 c3        1 DIO      0.091400
      2 C2          0.0030   -1.2050    1.9950 c3        1 DIO      0.091400
      3 C1'         1.5250    0.0100   -0.0370 c3        1 DIO      0.091400
      4 C2'         1.5260   -1.2230    1.9840 c3        1 DIO      0.091400
      5 O1         -0.5170   -1.1000    0.6720 os        1 DIO     -0.412600
      6 O1'         2.0450   -0.0950    1.2860 os        1 DIO     -0.412600
      7 H11        -0.4110   -0.0730   -1.0630 h1        1 DIO      0.057200
      8 H12        -0.3760    0.9690    0.4540 h1        1 DIO      0.057200
      9 H21        -0.4110   -2.1740    2.3790 h1        1 DIO      0.057200
     10 H22        -0.3760   -0.3490    2.6130 h1        1 DIO      0.057200
     11 H1'1        1.9390    0.9790   -0.4210 h1        1 DIO      0.057200
     12 H1'2        1.9040   -0.8460   -0.6550 h1        1 DIO      0.057200
     13 H2'1        1.9040   -2.1640    1.5050 h1        1 DIO      0.057200
     14 H2'2        1.9390   -1.1230    3.0210 h1        1 DIO      0.057200
@<TRIPOS>BOND
     1    1    3 1   
     2    1    5 1   
     3    1    7 1   
     4    1    8 1   
     5    2    4 1   
     6    2    5 1   
     7    2    9 1   
     8    2   10 1   
     9    3    6 1   
    10    3   11 1   
    11    3   12 1   
    12    4    6 1   
    13    4   13 1   
    14    4   14 1   
@<TRIPOS>SUBSTRUCTURE
     1 DIO         1 TEMP              0 ****  ****    0 ROOT
