@<TRIPOS>MOLECULE
DIO
   14    14     1     0     0
SMALL
bcc


@<TRIPOS>ATOM
      1 C1         -1.1840    0.2540    0.7180 c3        1 DIO      0.091400
      2 C2          1.1840    0.2540    0.7180 c3        1 DIO      0.091400
      3 C1'        -1.1840   -0.2540   -0.7180 c3        1 DIO      0.091400
      4 C2'         1.1840   -0.2540   -0.7180 c3        1 DIO      0.091400
      5 O1         -0.0000   -0.1470    1.4020 os        1 DIO     -0.412600
      6 O1'        -0.0000    0.1470   -1.4020 os        1 DIO     -0.412600
      7 H11        -1.2650    1.3730    0.7390 h1        1 DIO      0.057200
      8 H12        -2.0160   -0.2060    1.3100 h1        1 DIO      0.057200
      9 H21         2.0160   -0.2060    1.3100 h1        1 DIO      0.057200
     10 H22         1.2650    1.3730    0.7390 h1        1 DIO      0.057200
     11 H1'1       -1.2650   -1.3730   -0.7390 h1        1 DIO      0.057200
     12 H1'2       -2.0160    0.2060   -1.3100 h1        1 DIO      0.057200
     13 H2'1        1.2650   -1.3730   -0.7390 h1        1 DIO      0.057200
     14 H2'2        2.0160    0.2060   -1.3100 h1        1 DIO      0.057200
@<TRIPOS>BOND
     1    1    3 1   
     2    1    5 1   
     3    1    7 1   
     4    1    8 1   
     5    2    4 1   
     6    2    5 1   
     7    2    9 1   
     8    2   10 1   
     9    3    6 1   
    10    3   11 1   
    11    3   12 1   
    12    4    6 1   
    13    4   13 1   
    14    4   14 1   
@<TRIPOS>SUBSTRUCTURE
     1 DIO         1 TEMP              0 ****  ****    0 ROOT
