@<TRIPOS>MOLECULE
DIO
   14    14     1     0     0
SMALL
bcc


@<TRIPOS>ATOM
      1 C1          0.0020    0.0290   -0.0250 c3        1 DIO      0.091400
      2 C2          0.0030   -1.2060    1.9950 c3        1 DIO      0.091400
      3 C1'         1.5250    0.0100   -0.0370 c3        1 DIO      0.091400
      4 C2'         1.5260   -1.2240    1.9830 c3        1 DIO      0.091400
      5 O1         -0.5170   -1.0990    0.6730 os        1 DIO     -0.412600
      6 O1'         2.0450   -0.0960    1.2850 os        1 DIO     -0.412600
      7 H11        -0.3760    0.9700    0.4550 h1        1 DIO      0.057200
      8 H12        -0.4120   -0.0710   -1.0620 h1        1 DIO      0.057200
      9 H21        -0.4110   -2.1740    2.3790 h1        1 DIO      0.057200
     10 H22        -0.3750   -0.3490    2.6140 h1        1 DIO      0.057200
     11 H1'1        1.9030   -0.8460   -0.6560 h1        1 DIO      0.057200
     12 H1'2        1.9390    0.9790   -0.4210 h1        1 DIO      0.057200
     13 H2'1        1.9040   -2.1650    1.5030 h1        1 DIO      0.057200
     14 H2'2        1.9400   -1.1250    3.0190 h1        1 DIO      0.057200
@<TRIPOS>BOND
     1    1    3 1   
     2    1    5 1   
     3    1    7 1   
     4    1    8 1   
     5    2    4 1   
     6    2    5 1   
     7    2    9 1   
     8    2   10 1   
     9    3    6 1   
    10    3   11 1   
    11    3   12 1   
    12    4    6 1   
    13    4   13 1   
    14    4   14 1   
@<TRIPOS>SUBSTRUCTURE
     1 DIO         1 TEMP              0 ****  ****    0 ROOT
