@<TRIPOS>MOLECULE
DIP
   34    33     1     0     0
SMALL
bcc


@<TRIPOS>ATOM
      1 N           0.4480   -0.2670    0.0000 n3        1 DIP     -0.825200
      2 C1         -0.3410   -0.1350    1.2080 c3        1 DIP      0.164800
      3 C2          0.5080   -0.0700    2.4760 c3        1 DIP     -0.083400
      4 C3         -0.3840    0.0080    3.6970 c3        1 DIP     -0.079400
      5 C4          0.4350    0.0760    4.9690 c3        1 DIP     -0.080400
      6 C5         -0.4470    0.1520    6.1890 c3        1 DIP     -0.093100
      7 C1'        -0.3410   -0.1350   -1.2080 c3        1 DIP      0.164800
      8 C2'         0.5090   -0.0690   -2.4760 c3        1 DIP     -0.083400
      9 C3'        -0.3820    0.0090   -3.6970 c3        1 DIP     -0.079400
     10 C4'         0.4360    0.0770   -4.9690 c3        1 DIP     -0.080400
     11 C5'        -0.4450    0.1530   -6.1890 c3        1 DIP     -0.093100
     12 HN          1.2080    0.3890    0.0000 hn        1 DIP      0.354800
     13 H11        -1.0160   -1.0370    1.2650 h1        1 DIP      0.027700
     14 H12        -1.0110    0.7770    1.1830 h1        1 DIP      0.027700
     15 H21         1.1800    0.8280    2.4440 hc        1 DIP      0.046200
     16 H22         1.1640   -0.9770    2.5440 hc        1 DIP      0.046200
     17 H31        -1.0550   -0.8910    3.7310 hc        1 DIP      0.040200
     18 H32        -1.0440    0.9120    3.6270 hc        1 DIP      0.040200
     19 H41         1.1070    0.9740    4.9330 hc        1 DIP      0.039700
     20 H42         1.0960   -0.8280    5.0370 hc        1 DIP      0.039700
     21 H51         0.1760    0.2020    7.1150 hc        1 DIP      0.032700
     22 H52        -1.0960    1.0600    6.1510 hc        1 DIP      0.032700
     23 H53        -1.1060   -0.7470    6.2550 hc        1 DIP      0.032700
     24 H1'1       -1.0150   -1.0360   -1.2660 h1        1 DIP      0.027700
     25 H1'2       -1.0100    0.7770   -1.1830 h1        1 DIP      0.027700
     26 H2'1        1.1810    0.8280   -2.4430 hc        1 DIP      0.046200
     27 H2'2        1.1650   -0.9760   -2.5440 hc        1 DIP      0.046200
     28 H3'1       -1.0540   -0.8890   -3.7310 hc        1 DIP      0.040200
     29 H3'2       -1.0430    0.9130   -3.6270 hc        1 DIP      0.040200
     30 H4'1        1.1090    0.9750   -4.9320 hc        1 DIP      0.039700
     31 H4'2        1.0970   -0.8270   -5.0370 hc        1 DIP      0.039700
     32 H5'1        0.1780    0.2030   -7.1140 hc        1 DIP      0.032700
     33 H5'2       -1.1050   -0.7450   -6.2560 hc        1 DIP      0.032700
     34 H5'3       -1.0930    1.0620   -6.1510 hc        1 DIP      0.032700
@<TRIPOS>BOND
     1    1    2 1   
     2    1    7 1   
     3    1   12 1   
     4    2    3 1   
     5    2   13 1   
     6    2   14 1   
     7    3    4 1   
     8    3   15 1   
     9    3   16 1   
    10    4    5 1   
    11    4   17 1   
    12    4   18 1   
    13    5    6 1   
    14    5   19 1   
    15    5   20 1   
    16    6   21 1   
    17    6   22 1   
    18    6   23 1   
    19    7    8 1   
    20    7   24 1   
    21    7   25 1   
    22    8    9 1   
    23    8   26 1   
    24    8   27 1   
    25    9   10 1   
    26    9   28 1   
    27    9   29 1   
    28   10   11 1   
    29   10   30 1   
    30   10   31 1   
    31   11   32 1   
    32   11   33 1   
    33   11   34 1   
@<TRIPOS>SUBSTRUCTURE
     1 DIP         1 TEMP              0 ****  ****    0 ROOT
