@<TRIPOS>MOLECULE
DIP
   35    34     1     0     0
SMALL
bcc


@<TRIPOS>ATOM
      1 N           0.0060   -0.0000   -0.0080 n4        1 DIP     -0.764000
      2 C1          1.4990    0.0000    0.0620 c3        1 DIP      0.101800
      3 C2          2.0150   -0.0010    1.4950 c3        1 DIP     -0.110400
      4 C3          3.5320    0.0010    1.4800 c3        1 DIP     -0.079400
      5 C4          4.0800   -0.0010    2.8930 c3        1 DIP     -0.078400
      6 C5          5.5880    0.0010    2.8880 c3        1 DIP     -0.098100
      7 C1'        -0.4900    0.0000   -1.4180 c3        1 DIP      0.101800
      8 C2'        -2.0110   -0.0010   -1.5000 c3        1 DIP     -0.110400
      9 C3'        -2.4330   -0.0010   -2.9570 c3        1 DIP     -0.079400
     10 C4'        -3.9440   -0.0020   -3.0760 c3        1 DIP     -0.078400
     11 C5'        -4.3730   -0.0020   -4.5210 c3        1 DIP     -0.098100
     12 HN         -0.3550   -0.8290    0.4780 hn        1 DIP      0.449800
     13 H11         1.8710   -0.9150   -0.4840 hx        1 DIP      0.107700
     14 H12         1.8700    0.9170   -0.4820 hx        1 DIP      0.107700
     15 H21         1.6490   -0.9090    2.0440 hc        1 DIP      0.067700
     16 H22         1.6470    0.9060    2.0460 hc        1 DIP      0.067700
     17 H31         3.9060    0.9070    0.9330 hc        1 DIP      0.055950
     18 H32         3.9070   -0.9030    0.9310 hc        1 DIP      0.055950
     19 H41         3.7050   -0.9060    3.4400 hc        1 DIP      0.047700
     20 H42         3.7040    0.9020    3.4430 hc        1 DIP      0.047700
     21 H51         5.9820    0.9080    2.3690 hc        1 DIP      0.046367
     22 H52         5.9730   -0.0000    3.9370 hc        1 DIP      0.046367
     23 H53         5.9840   -0.9040    2.3670 hc        1 DIP      0.046367
     24 H1'1       -0.0760    0.9160   -1.9300 hx        1 DIP      0.107700
     25 H1'2       -0.0750   -0.9150   -1.9300 hx        1 DIP      0.107700
     26 H2'1       -2.4320   -0.9080   -0.9910 hc        1 DIP      0.067700
     27 H2'2       -2.4330    0.9060   -0.9910 hc        1 DIP      0.067700
     28 H3'1       -2.0160   -0.9050   -3.4740 hc        1 DIP      0.055950
     29 H3'2       -2.0170    0.9040   -3.4740 hc        1 DIP      0.055950
     30 H4'1       -4.3620    0.9020   -2.5580 hc        1 DIP      0.047700
     31 H4'2       -4.3610   -0.9050   -2.5590 hc        1 DIP      0.047700
     32 H5'1       -5.4880   -0.0020   -4.5880 hc        1 DIP      0.046367
     33 H5'2       -3.9890    0.9050   -5.0490 hc        1 DIP      0.046367
     34 H5'3       -3.9880   -0.9070   -5.0500 hc        1 DIP      0.046367
     35 HN3        -0.3560    0.8280    0.4790 hn        1 DIP      0.449800
@<TRIPOS>BOND
     1    1    2 1   
     2    1    7 1   
     3    1   12 1   
     4    1   35 1   
     5    2    3 1   
     6    2   13 1   
     7    2   14 1   
     8    3    4 1   
     9    3   15 1   
    10    3   16 1   
    11    4    5 1   
    12    4   17 1   
    13    4   18 1   
    14    5    6 1   
    15    5   19 1   
    16    5   20 1   
    17    6   21 1   
    18    6   22 1   
    19    6   23 1   
    20    7    8 1   
    21    7   24 1   
    22    7   25 1   
    23    8    9 1   
    24    8   26 1   
    25    8   27 1   
    26    9   10 1   
    27    9   28 1   
    28    9   29 1   
    29   10   11 1   
    30   10   30 1   
    31   10   31 1   
    32   11   32 1   
    33   11   33 1   
    34   11   34 1   
@<TRIPOS>SUBSTRUCTURE
     1 DIP         1 TEMP              0 ****  ****    0 ROOT
