@<TRIPOS>MOLECULE
DIQ
   32    33     1     0     0
SMALL
bcc


@<TRIPOS>ATOM
      1 N1          0.0200    0.0470   -0.1210 n3        1 DIQ     -0.704600
      2 CM         -0.5320   -0.0320   -1.4510 c3        1 DIQ      0.157100
      3 C2          1.4830   -0.0300   -0.0900 c3        1 DIQ      0.056500
      4 C           2.1450   -1.2430   -0.8300 c         1 DIQ      0.920600
      5 O           1.4610   -2.2160   -1.2450 o         1 DIQ     -0.835800
      6 C3          2.0020   -0.0570    1.3530 c3        1 DIQ     -0.059400
      7 C3A         1.5170    1.1540    2.1340 c3        1 DIQ     -0.060700
      8 C4          1.9940    1.1290    3.5770 c3        1 DIQ     -0.066400
      9 C5          1.2670    0.1050    4.4230 c3        1 DIQ     -0.073400
     10 C6         -0.2340    0.2890    4.3430 c3        1 DIQ     -0.071400
     11 C7         -0.7090    0.2410    2.9060 c3        1 DIQ     -0.071400
     12 C7A        -0.0030    1.2860    2.0580 c3        1 DIQ     -0.046700
     13 C8         -0.4700    1.2150    0.5980 c3        1 DIQ      0.175800
     14 OXT         3.3990   -1.1500   -0.9680 o         1 DIQ     -0.835800
     15 HM1        -1.6520   -0.0720   -1.3800 h1        1 DIQ      0.027700
     16 HM2        -0.1570   -0.9770   -1.9310 h1        1 DIQ      0.027700
     17 HM3        -0.2590    0.8460   -2.1020 h1        1 DIQ      0.027700
     18 H2          1.9150    0.8940   -0.5890 h1        1 DIQ      0.004700
     19 H31         3.1220   -0.0660    1.3090 hc        1 DIQ      0.054700
     20 H32         1.6690   -1.0010    1.8540 hc        1 DIQ      0.054700
     21 H3A         1.9570    2.0710    1.6460 hc        1 DIQ      0.033700
     22 H41         1.8430    2.1470    4.0270 hc        1 DIQ      0.025700
     23 H42         3.0940    0.9110    3.5950 hc        1 DIQ      0.025700
     24 H51         1.5330   -0.9270    4.0690 hc        1 DIQ      0.033700
     25 H52         1.6020    0.1940    5.4890 hc        1 DIQ      0.033700
     26 H61        -0.7440   -0.5140    4.9360 hc        1 DIQ      0.021200
     27 H62        -0.5150    1.2740    4.8010 hc        1 DIQ      0.021200
     28 H71        -0.5150   -0.7780    2.4770 hc        1 DIQ      0.049700
     29 H72        -1.8150    0.4190    2.8700 hc        1 DIQ      0.049700
     30 H7A        -0.2880    2.3030    2.4500 hc        1 DIQ      0.017700
     31 H81        -1.5960    1.1800    0.5850 h1        1 DIQ      0.004700
     32 H82        -0.1600    2.1800    0.0940 h1        1 DIQ      0.004700
@<TRIPOS>BOND
     1    1    2 1   
     2    1    3 1   
     3    1   13 1   
     4    2   15 1   
     5    2   16 1   
     6    2   17 1   
     7    3    4 1   
     8    3    6 1   
     9    3   18 1   
    10    4    5 1   
    11    4   14 1   
    12    6    7 1   
    13    6   19 1   
    14    6   20 1   
    15    7    8 1   
    16    7   12 1   
    17    7   21 1   
    18    8    9 1   
    19    8   22 1   
    20    8   23 1   
    21    9   10 1   
    22    9   24 1   
    23    9   25 1   
    24   10   11 1   
    25   10   26 1   
    26   10   27 1   
    27   11   12 1   
    28   11   28 1   
    29   11   29 1   
    30   12   13 1   
    31   12   30 1   
    32   13   31 1   
    33   13   32 1   
@<TRIPOS>SUBSTRUCTURE
     1 DIQ         1 TEMP              0 ****  ****    0 ROOT
