@<TRIPOS>MOLECULE
DIQ
   32    33     1     0     0
SMALL
bcc


@<TRIPOS>ATOM
      1 N1          0.0210    0.0470   -0.1220 n3        1 DIQ     -0.704600
      2 CM         -0.5300   -0.0330   -1.4520 c3        1 DIQ      0.157100
      3 C2          1.4850   -0.0240   -0.0910 c3        1 DIQ      0.056500
      4 C           2.1520   -1.2330   -0.8320 c         1 DIQ      0.920600
      5 O           1.4730   -2.2090   -1.2460 o         1 DIQ     -0.835800
      6 C3          2.0030   -0.0510    1.3520 c3        1 DIQ     -0.059400
      7 C3A         1.5130    1.1570    2.1350 c3        1 DIQ     -0.060700
      8 C4          1.9900    1.1320    3.5790 c3        1 DIQ     -0.066400
      9 C5          1.2670    0.1030    4.4230 c3        1 DIQ     -0.073400
     10 C6         -0.2340    0.2810    4.3430 c3        1 DIQ     -0.071400
     11 C7         -0.7090    0.2330    2.9050 c3        1 DIQ     -0.071400
     12 C7A        -0.0070    1.2820    2.0590 c3        1 DIQ     -0.046700
     13 C8         -0.4730    1.2120    0.5990 c3        1 DIQ      0.175800
     14 OXT         3.4050   -1.1330   -0.9730 o         1 DIQ     -0.835800
     15 HM1        -0.2600    0.8470   -2.1020 h1        1 DIQ      0.027700
     16 HM2        -0.1500   -0.9760   -1.9330 h1        1 DIQ      0.027700
     17 HM3        -1.6490   -0.0770   -1.3810 h1        1 DIQ      0.027700
     18 H2          1.9130    0.9030   -0.5880 h1        1 DIQ      0.004700
     19 H31         3.1240   -0.0540    1.3090 hc        1 DIQ      0.054700
     20 H32         1.6750   -0.9970    1.8530 hc        1 DIQ      0.054700
     21 H3A         1.9500    2.0770    1.6490 hc        1 DIQ      0.033700
     22 H41         3.0910    0.9180    3.5970 hc        1 DIQ      0.025700
     23 H42         1.8350    2.1480    4.0300 hc        1 DIQ      0.025700
     24 H51         1.6020    0.1910    5.4890 hc        1 DIQ      0.033700
     25 H52         1.5380   -0.9270    4.0670 hc        1 DIQ      0.033700
     26 H61        -0.5200    1.2640    4.8030 hc        1 DIQ      0.021200
     27 H62        -0.7410   -0.5260    4.9340 hc        1 DIQ      0.021200
     28 H71        -1.8160    0.4060    2.8690 hc        1 DIQ      0.049700
     29 H72        -0.5110   -0.7850    2.4750 hc        1 DIQ      0.049700
     30 H7A        -0.2960    2.2980    2.4530 hc        1 DIQ      0.017700
     31 H81        -1.5990    1.1720    0.5860 h1        1 DIQ      0.004700
     32 H82        -0.1670    2.1790    0.0960 h1        1 DIQ      0.004700
@<TRIPOS>BOND
     1    1    2 1   
     2    1    3 1   
     3    1   13 1   
     4    2   15 1   
     5    2   16 1   
     6    2   17 1   
     7    3    4 1   
     8    3    6 1   
     9    3   18 1   
    10    4    5 1   
    11    4   14 1   
    12    6    7 1   
    13    6   19 1   
    14    6   20 1   
    15    7    8 1   
    16    7   12 1   
    17    7   21 1   
    18    8    9 1   
    19    8   22 1   
    20    8   23 1   
    21    9   10 1   
    22    9   24 1   
    23    9   25 1   
    24   10   11 1   
    25   10   26 1   
    26   10   27 1   
    27   11   12 1   
    28   11   28 1   
    29   11   29 1   
    30   12   13 1   
    31   12   30 1   
    32   13   31 1   
    33   13   32 1   
@<TRIPOS>SUBSTRUCTURE
     1 DIQ         1 TEMP              0 ****  ****    0 ROOT
