@<TRIPOS>MOLECULE
DIQ
   32    33     1     0     0
SMALL
bcc


@<TRIPOS>ATOM
      1 N1          1.2180   -0.0090    0.9970 n3        1 DIQ     -0.704600
      2 CM          2.0930    0.0370    2.1430 c3        1 DIQ      0.157100
      3 C2         -0.1270    0.5050    1.2670 c3        1 DIQ      0.056500
      4 C          -0.8870   -0.1090    2.4940 c         1 DIQ      0.920600
      5 O          -0.4600   -1.1340    3.0880 o         1 DIQ     -0.835800
      6 C3         -1.0400    0.3250    0.0480 c3        1 DIQ     -0.059400
      7 C3A        -0.4520    0.9970   -1.1820 c3        1 DIQ     -0.060700
      8 C4         -1.3270    0.8030   -2.4100 c3        1 DIQ     -0.066400
      9 C5         -1.2630   -0.6050   -2.9650 c3        1 DIQ     -0.073400
     10 C6          0.1660   -1.0270   -3.2350 c3        1 DIQ     -0.071400
     11 C7          1.0130   -0.8970   -1.9870 c3        1 DIQ     -0.071400
     12 C7A         0.9760    0.5210   -1.4410 c3        1 DIQ     -0.046700
     13 C8          1.8150    0.6400   -0.1620 c3        1 DIQ      0.175800
     14 OXT        -1.9400    0.5110    2.8210 o         1 DIQ     -0.835800
     15 HM1         2.3280    1.0840    2.4850 h1        1 DIQ      0.027700
     16 HM2         1.5970   -0.5220    2.9840 h1        1 DIQ      0.027700
     17 HM3         3.0620   -0.4660    1.8830 h1        1 DIQ      0.027700
     18 H2         -0.0650    1.6180    1.4830 h1        1 DIQ      0.004700
     19 H31        -2.0330    0.7790    0.3000 hc        1 DIQ      0.054700
     20 H32        -1.1990   -0.7660   -0.1450 hc        1 DIQ      0.054700
     21 H3A        -0.4030    2.1050   -0.9720 hc        1 DIQ      0.033700
     22 H41        -1.0010    1.5230   -3.2070 hc        1 DIQ      0.025700
     23 H42        -2.3890    1.0480   -2.1460 hc        1 DIQ      0.025700
     24 H51        -1.8600   -0.6620   -3.9130 hc        1 DIQ      0.033700
     25 H52        -1.7270   -1.3160   -2.2300 hc        1 DIQ      0.033700
     26 H61         0.5960   -0.3890   -4.0520 hc        1 DIQ      0.021200
     27 H62         0.1840   -2.0890   -3.5930 hc        1 DIQ      0.021200
     28 H71         2.0730   -1.1760   -2.2220 hc        1 DIQ      0.049700
     29 H72         0.6410   -1.6070   -1.2010 hc        1 DIQ      0.049700
     30 H7A         1.4390    1.2020   -2.2100 hc        1 DIQ      0.017700
     31 H81         2.0020    1.7420    0.0210 h1        1 DIQ      0.004700
     32 H82         2.8180    0.1600   -0.3480 h1        1 DIQ      0.004700
@<TRIPOS>BOND
     1    1    2 1   
     2    1    3 1   
     3    1   13 1   
     4    2   15 1   
     5    2   16 1   
     6    2   17 1   
     7    3    4 1   
     8    3    6 1   
     9    3   18 1   
    10    4    5 1   
    11    4   14 1   
    12    6    7 1   
    13    6   19 1   
    14    6   20 1   
    15    7    8 1   
    16    7   12 1   
    17    7   21 1   
    18    8    9 1   
    19    8   22 1   
    20    8   23 1   
    21    9   10 1   
    22    9   24 1   
    23    9   25 1   
    24   10   11 1   
    25   10   26 1   
    26   10   27 1   
    27   11   12 1   
    28   11   28 1   
    29   11   29 1   
    30   12   13 1   
    31   12   30 1   
    32   13   31 1   
    33   13   32 1   
@<TRIPOS>SUBSTRUCTURE
     1 DIQ         1 TEMP              0 ****  ****    0 ROOT
