@<TRIPOS>MOLECULE
DIQ
   32    33     1     0     0
SMALL
bcc


@<TRIPOS>ATOM
      1 N1          0.0370    0.0560   -0.1310 n3        1 DIQ     -0.704600
      2 CM         -0.5030   -0.0130   -1.4670 c3        1 DIQ      0.157100
      3 C2          1.5000   -0.0250   -0.0880 c3        1 DIQ      0.056500
      4 C           2.1660   -1.2350   -0.8290 c         1 DIQ      0.920600
      5 O           1.4820   -2.2030   -1.2570 o         1 DIQ     -0.835800
      6 C3          2.0060   -0.0620    1.3600 c3        1 DIQ     -0.059400
      7 C3A         1.5170    1.1450    2.1440 c3        1 DIQ     -0.060700
      8 C4          1.9810    1.1100    3.5910 c3        1 DIQ     -0.066400
      9 C5          1.2440    0.0820    4.4240 c3        1 DIQ     -0.073400
     10 C6         -0.2560    0.2720    4.3320 c3        1 DIQ     -0.071400
     11 C7         -0.7180    0.2330    2.8900 c3        1 DIQ     -0.071400
     12 C7A        -0.0020    1.2810    2.0550 c3        1 DIQ     -0.046700
     13 C8         -0.4560    1.2210    0.5910 c3        1 DIQ      0.175800
     14 OXT         3.4210   -1.1460   -0.9540 o         1 DIQ     -0.835800
     15 HM1        -0.2210    0.8690   -2.1090 h1        1 DIQ      0.027700
     16 HM2        -1.6230   -0.0500   -1.4050 h1        1 DIQ      0.027700
     17 HM3        -0.1250   -0.9560   -1.9490 h1        1 DIQ      0.027700
     18 H2          1.9390    0.9010   -0.5770 h1        1 DIQ      0.004700
     19 H31         3.1260   -0.0740    1.3260 hc        1 DIQ      0.054700
     20 H32         1.6660   -1.0080    1.8530 hc        1 DIQ      0.054700
     21 H3A         1.9640    2.0640    1.6660 hc        1 DIQ      0.033700
     22 H41         1.8290    2.1250    4.0460 hc        1 DIQ      0.025700
     23 H42         3.0800    0.8890    3.6180 hc        1 DIQ      0.025700
     24 H51         1.5110   -0.9470    4.0670 hc        1 DIQ      0.033700
     25 H52         1.5700    0.1640    5.4940 hc        1 DIQ      0.033700
     26 H61        -0.5380    1.2540    4.7940 hc        1 DIQ      0.021200
     27 H62        -0.7730   -0.5340    4.9150 hc        1 DIQ      0.021200
     28 H71        -0.5230   -0.7840    2.4570 hc        1 DIQ      0.049700
     29 H72        -1.8230    0.4140    2.8460 hc        1 DIQ      0.049700
     30 H7A        -0.2870    2.2970    2.4510 hc        1 DIQ      0.017700
     31 H81        -1.5820    1.1890    0.5680 h1        1 DIQ      0.004700
     32 H82        -0.1380    2.1890    0.0960 h1        1 DIQ      0.004700
@<TRIPOS>BOND
     1    1    2 1   
     2    1    3 1   
     3    1   13 1   
     4    2   15 1   
     5    2   16 1   
     6    2   17 1   
     7    3    4 1   
     8    3    6 1   
     9    3   18 1   
    10    4    5 1   
    11    4   14 1   
    12    6    7 1   
    13    6   19 1   
    14    6   20 1   
    15    7    8 1   
    16    7   12 1   
    17    7   21 1   
    18    8    9 1   
    19    8   22 1   
    20    8   23 1   
    21    9   10 1   
    22    9   24 1   
    23    9   25 1   
    24   10   11 1   
    25   10   26 1   
    26   10   27 1   
    27   11   12 1   
    28   11   28 1   
    29   11   29 1   
    30   12   13 1   
    31   12   30 1   
    32   13   31 1   
    33   13   32 1   
@<TRIPOS>SUBSTRUCTURE
     1 DIQ         1 TEMP              0 ****  ****    0 ROOT
