@<TRIPOS>MOLECULE
DIR
   20    19     1     0     0
SMALL
bcc


@<TRIPOS>ATOM
      1 CA          1.5690    0.5470    0.3960 c3        1 DIR      0.005500
      2 CB          0.3210   -0.2640   -0.0090 c3        1 DIR      0.184800
      3 N           1.5250    1.9210   -0.0820 n3        1 DIR     -0.896800
      4 C           2.8220   -0.2710   -0.0700 c         1 DIR      0.892600
      5 NG         -0.9080    0.2380    0.5780 nh        1 DIR     -0.794200
      6 CD         -2.1440   -0.2030    0.0310 c2        1 DIR      0.731100
      7 OXT         2.8270   -1.5110    0.1610 o         1 DIR     -0.835800
      8 O           3.7590    0.3650   -0.6280 o         1 DIR     -0.835800
      9 NH1        -3.2010    0.6280    0.1420 n2        1 DIR     -0.623200
     10 NH2        -2.1880   -1.4870   -0.5830 nh        1 DIR     -0.907800
     11 OH1        -4.3770    0.1110   -0.1950 oh        1 DIR     -0.386500
     12 HA          1.6240    0.5930    1.5220 h1        1 DIR      0.052700
     13 HB2         0.2620   -0.3010   -1.1340 h1        1 DIR      0.054700
     14 HB3         0.4910   -1.3150    0.3670 h1        1 DIR      0.054700
     15 H           2.4180    2.3370    0.1250 hn        1 DIR      0.336300
     16 H2          1.4480    1.9070   -1.0850 hn        1 DIR      0.336300
     17 HG         -0.8850    1.2240    0.7570 hn        1 DIR      0.423800
     18 HH21       -3.0840   -1.9190   -0.5190 hn        1 DIR      0.396800
     19 HH22       -1.4410   -2.0990   -0.3370 hn        1 DIR      0.396800
     20 HH1        -5.0020    0.8230    0.0320 ho        1 DIR      0.416000
@<TRIPOS>BOND
     1    1    2 1   
     2    1    3 1   
     3    1    4 1   
     4    1   12 1   
     5    2    5 1   
     6    2   13 1   
     7    2   14 1   
     8    3   15 1   
     9    3   16 1   
    10    4    7 1   
    11    4    8 1   
    12    5    6 1   
    13    5   17 1   
    14    6    9 2   
    15    6   10 1   
    16    9   11 1   
    17   10   18 1   
    18   10   19 1   
    19   11   20 1   
@<TRIPOS>SUBSTRUCTURE
     1 DIR         1 TEMP              0 ****  ****    0 ROOT
