@<TRIPOS>MOLECULE
DIS
    3     2     1     0     0
SMALL
bcc


@<TRIPOS>ATOM
      1 O          -0.1970    0.0000   -0.2790 oh        1 DIS     -0.785000
      2 H1          0.6900    0.0000   -0.2790 ho        1 DIS      0.392000
      3 H2         -0.4930    0.0000    0.5580 ho        1 DIS      0.392000
@<TRIPOS>BOND
     1    1    2 1   
     2    1    3 1   
@<TRIPOS>SUBSTRUCTURE
     1 DIS         1 TEMP              0 ****  ****    0 ROOT
