@<TRIPOS>MOLECULE
DIT
  104   113     1     0     0
SMALL
bcc


@<TRIPOS>ATOM
      1 C1         -0.5600   -0.6090    0.4140 ca        1 DIT      0.006700
      2 N2          0.6090   -1.2700    0.2750 na        1 DIT      0.036900
      3 C3          1.1320   -1.9820    1.3420 ca        1 DIT     -0.113300
      4 C4          0.4840   -2.0210    2.5590 ca        1 DIT     -0.086000
      5 C5         -1.4230   -1.3580    3.9930 ca        1 DIT     -0.112000
      6 C6         -2.6090   -0.6890    4.1770 ca        1 DIT     -0.066000
      7 N7         -4.3260    0.7800    3.0450 na        1 DIT     -0.148300
      8 C8         -5.4670    2.1410    1.2360 ca        1 DIT     -0.094000
      9 C9         -5.3650    2.5510   -0.0840 ca        1 DIT     -0.151000
     10 C10        -4.2670    2.1520   -0.8780 ca        1 DIT      0.129100
     11 O10        -4.0990    2.5180   -2.1970 os        1 DIT     -0.328900
     12 C11        -3.2460    1.3360   -0.3730 ca        1 DIT     -0.133000
     13 C12        -0.7430   -1.3330    2.7470 ca        1 DIT     -0.008000
     14 C13        -3.1560    0.0380    3.0900 ca        1 DIT      0.008800
     15 C14        -4.4550    1.3230    1.7580 ca        1 DIT     -0.041200
     16 C15        -3.3260    0.9110    0.9500 cp        1 DIT     -0.050000
     17 C16        -2.4960    0.0890    1.8050 cp        1 DIT     -0.080000
     18 C17        -1.2820   -0.6030    1.6380 ca        1 DIT     -0.015000
     19 C18        -5.0950    3.3730   -2.7550 c3        1 DIT      0.109700
     20 C19         1.3400   -1.2560   -0.9950 c3        1 DIT     -0.019700
     21 C20         1.1770   -2.5760   -1.7970 c3        1 DIT      0.168800
     22 N21         2.0750   -2.5710   -2.9350 n3        1 DIT     -0.749600
     23 C22         2.7550   -3.8430   -3.1390 c3        1 DIT      0.175800
     24 C23         3.7440   -3.8150   -4.3020 c3        1 DIT     -0.076900
     25 C24         3.0920   -3.3290   -5.5880 c3        1 DIT     -0.060700
     26 C25         2.4240   -1.9860   -5.3310 c3        1 DIT     -0.076900
     27 C26         1.4580   -2.0540   -4.1490 c3        1 DIT      0.175800
     28 C1X         6.2500   -3.9800  -13.9090 ca        1 DIT      0.006700
     29 N2X         6.2500   -4.8280  -12.8580 na        1 DIT      0.036900
     30 C3X         7.1170   -5.9090  -12.8430 ca        1 DIT     -0.113300
     31 C4X         7.9800   -6.1460  -13.8930 ca        1 DIT     -0.086000
     32 C5X         8.8800   -5.5110  -16.1100 ca        1 DIT     -0.112000
     33 C6X         8.9020   -4.6770  -17.2010 ca        1 DIT     -0.066000
     34 N7X         7.8720   -2.6010  -18.2100 na        1 DIT     -0.148300
     35 C8X         6.3800   -0.5650  -18.4520 ca        1 DIT     -0.094000
     36 C9X         5.3880    0.1720  -17.8250 ca        1 DIT     -0.151000
     37 CAX         4.8970   -0.2130  -16.5580 ca        1 DIT      0.129100
     38 OAX         3.9160    0.4720  -15.8730 os        1 DIT     -0.328900
     39 CBX         5.3850   -1.3430  -15.8880 ca        1 DIT     -0.133000
     40 CCX         8.0020   -5.2820  -15.0180 ca        1 DIT     -0.008000
     41 CDX         8.0230   -3.5650  -17.2260 ca        1 DIT      0.008800
     42 CEX         6.8800   -1.6990  -17.7950 ca        1 DIT     -0.041200
     43 CFX         6.3810   -2.1000  -16.4970 cp        1 DIT     -0.050000
     44 CGX         7.1140   -3.2950  -16.1340 cp        1 DIT     -0.080000
     45 CHX         7.1090   -4.1630  -15.0260 ca        1 DIT     -0.015000
     46 CIX         3.3620    1.6140  -16.5220 c3        1 DIT      0.109700
     47 CJX         5.3500   -4.6250  -11.7200 c3        1 DIT     -0.019700
     48 NLX         5.1770   -4.0360   -9.3420 n3        1 DIT     -0.749600
     49 CMX         5.8190   -4.4680   -8.1080 c3        1 DIT      0.175800
     50 CNX         4.8590   -4.5340   -6.9220 c3        1 DIT     -0.076900
     51 COX         4.1150   -3.2210   -6.7230 c3        1 DIT     -0.060700
     52 CPX         3.4380   -2.8300   -8.0290 c3        1 DIT     -0.076900
     53 CQX         4.4300   -2.7950   -9.1900 c3        1 DIT      0.175800
     54 H1         -0.9480   -0.0540   -0.4650 h4        1 DIT      0.201000
     55 H3          2.0920   -2.5030    1.1620 h4        1 DIT      0.197000
     56 H4          0.9260   -2.5920    3.3940 ha        1 DIT      0.186000
     57 H5         -0.9770   -1.9300    4.8240 ha        1 DIT      0.166000
     58 H6         -3.1290   -0.7130    5.1490 ha        1 DIT      0.170000
     59 HN7        -4.9590    0.9130    3.7920 hn        1 DIT      0.325700
     60 H8         -6.3220    2.4510    1.8550 ha        1 DIT      0.159000
     61 H9         -6.1520    3.1940   -0.5080 ha        1 DIT      0.160000
     62 H11        -2.4170    1.0590   -1.0360 ha        1 DIT      0.137000
     63 H181       -5.1370    4.3410   -2.2000 h1        1 DIT      0.055700
     64 H182       -6.0910    2.8690   -2.7540 h1        1 DIT      0.055700
     65 H183       -4.7340    3.5340   -3.8030 h1        1 DIT      0.055700
     66 H191        2.4300   -1.0830   -0.7580 h1        1 DIT      0.100200
     67 H192        0.9710   -0.3900   -1.6130 h1        1 DIT      0.100200
     68 H201        0.0950   -2.6750   -2.1040 h1        1 DIT      0.052700
     69 H202        1.4180   -3.4420   -1.1170 h1        1 DIT      0.052700
     70 H221        3.3220   -4.0840   -2.1960 h1        1 DIT      0.036200
     71 H222        2.0130   -4.6770   -3.3180 h1        1 DIT      0.036200
     72 H231        4.6140   -3.1550   -4.0490 hc        1 DIT      0.056700
     73 H232        4.1280   -4.8610   -4.4330 hc        1 DIT      0.056700
     74 H24         2.3030   -4.0720   -5.8930 hc        1 DIT      0.054700
     75 H251        1.8320   -1.6670   -6.2280 hc        1 DIT      0.056700
     76 H252        3.2070   -1.2070   -5.1390 hc        1 DIT      0.056700
     77 H261        0.5650   -2.6780   -4.4520 h1        1 DIT      0.036200
     78 H262        1.0880   -1.0140   -3.9250 h1        1 DIT      0.036200
     79 H3X         7.0690   -6.5650  -11.9520 h4        1 DIT      0.197000
     80 H4X         8.6550   -7.0180  -13.8560 ha        1 DIT      0.186000
     81 H5X         9.5540   -6.3840  -16.0690 ha        1 DIT      0.166000
     82 H6X         9.5860   -4.8640  -18.0460 ha        1 DIT      0.170000
     83 HN7X        8.3690   -2.5580  -19.0640 hn        1 DIT      0.325700
     84 H8X         6.7620   -0.2660  -19.4390 ha        1 DIT      0.159000
     85 H9X         4.9850    1.0650  -18.3280 ha        1 DIT      0.160000
     86 H11X        4.9650   -1.5950  -14.9060 ha        1 DIT      0.137000
     87 HX81        4.1470    2.3910  -16.6870 h1        1 DIT      0.055700
     88 HX82        2.5950    1.9760  -15.7900 h1        1 DIT      0.055700
     89 HX83        2.8790    1.3240  -17.4860 h1        1 DIT      0.055700
     90 HX91        4.9020   -5.6270  -11.4570 h1        1 DIT      0.100200
     91 HX92        4.5160   -3.9380  -12.0390 h1        1 DIT      0.100200
     92 HX21        6.2380   -5.5000   -8.2830 h1        1 DIT      0.036200
     93 HX22        6.6790   -3.7880   -7.8360 h1        1 DIT      0.036200
     94 HX31        4.1210   -5.3640   -7.0730 hc        1 DIT      0.056700
     95 HX32        5.4720   -4.7740   -6.0150 hc        1 DIT      0.056700
     96 H24X        4.8630   -2.4240   -6.4510 hc        1 DIT      0.054700
     97 HX51        2.9890   -1.8060   -7.9420 hc        1 DIT      0.056700
     98 HX52        2.6110   -3.5530   -8.2550 hc        1 DIT      0.056700
     99 HX61        5.1240   -1.9150   -9.0420 h1        1 DIT      0.036200
    100 HX62        3.8590   -2.6230  -10.1460 h1        1 DIT      0.036200
    101 CKX         6.0720   -4.0270  -10.4820 c3        1 DIT      0.168800
    102 H1X         5.5430   -3.1240  -13.8820 h4        1 DIT      0.201000
    103 HX01        6.9860   -4.6500  -10.2630 h1        1 DIT      0.052700
    104 HX02        6.4240   -2.9860  -10.7430 h1        1 DIT      0.052700
@<TRIPOS>BOND
     1    1    2 1   
     2    1   18 ar  
     3    1   54 1   
     4    2    3 2   
     5    2   20 1   
     6    3    4 ar  
     7    3   55 1   
     8    4   13 ar  
     9    4   56 1   
    10    5    6 ar  
    11    5   13 ar  
    12    5   57 1   
    13    6   14 ar  
    14    6   58 1   
    15    7   14 1   
    16    7   15 1   
    17    7   59 1   
    18    8    9 ar  
    19    8   15 ar  
    20    8   60 1   
    21    9   10 ar  
    22    9   61 1   
    23   10   11 1   
    24   10   12 ar  
    25   11   19 1   
    26   12   16 ar  
    27   12   62 1   
    28   13   18 ar  
    29   14   17 ar  
    30   15   16 ar  
    31   16   17 1   
    32   17   18 ar  
    33   19   63 1   
    34   19   64 1   
    35   19   65 1   
    36   20   21 1   
    37   20   66 1   
    38   20   67 1   
    39   21   22 1   
    40   21   68 1   
    41   21   69 1   
    42   22   23 1   
    43   22   27 1   
    44   23   24 1   
    45   23   70 1   
    46   23   71 1   
    47   24   25 1   
    48   24   72 1   
    49   24   73 1   
    50   25   26 1   
    51   25   51 1   
    52   25   74 1   
    53   26   27 1   
    54   26   75 1   
    55   26   76 1   
    56   27   77 1   
    57   27   78 1   
    58   28   29 1   
    59   28   45 ar  
    60   28  102 1   
    61   29   30 2   
    62   29   47 1   
    63   30   31 ar  
    64   30   79 1   
    65   31   40 ar  
    66   31   80 1   
    67   32   33 ar  
    68   32   40 ar  
    69   32   81 1   
    70   33   41 ar  
    71   33   82 1   
    72   34   41 1   
    73   34   42 1   
    74   34   83 1   
    75   35   36 ar  
    76   35   42 ar  
    77   35   84 1   
    78   36   37 ar  
    79   36   85 1   
    80   37   38 1   
    81   37   39 ar  
    82   38   46 1   
    83   39   43 ar  
    84   39   86 1   
    85   40   45 ar  
    86   41   44 ar  
    87   42   43 ar  
    88   43   44 1   
    89   44   45 ar  
    90   46   87 1   
    91   46   88 1   
    92   46   89 1   
    93   47   90 1   
    94   47   91 1   
    95   47  101 1   
    96   48   49 1   
    97   48   53 1   
    98   48  101 1   
    99   49   50 1   
   100   49   92 1   
   101   49   93 1   
   102   50   51 1   
   103   50   94 1   
   104   50   95 1   
   105   51   52 1   
   106   51   96 1   
   107   52   53 1   
   108   52   97 1   
   109   52   98 1   
   110   53   99 1   
   111   53  100 1   
   112  101  103 1   
   113  101  104 1   
@<TRIPOS>SUBSTRUCTURE
     1 DIT         1 TEMP              0 ****  ****    0 ROOT
