@<TRIPOS>MOLECULE
DIU
   15    15     1     0     0
SMALL
bcc


@<TRIPOS>ATOM
      1 C          -0.0790    3.5740    0.1250 c         1 DIU      0.920200
      2 O1         -1.2080    4.1520    0.1910 o         1 DIU     -0.822300
      3 O2          1.0180    4.1910    0.0970 o         1 DIU     -0.822300
      4 O3         -2.4710    1.7870    0.1740 oh        1 DIU     -0.533100
      5 C1         -0.0470    2.0540    0.0780 ca        1 DIU     -0.228600
      6 C2         -1.2200    1.2620    0.1040 ca        1 DIU      0.239100
      7 C3         -1.1190   -0.1460    0.0580 ca        1 DIU     -0.054100
      8 C4          0.1390   -0.7430   -0.0140 ca        1 DIU     -0.048000
      9 C5          1.2920    0.0330   -0.0400 ca        1 DIU     -0.045100
     10 C6          1.1920    1.4270    0.0060 ca        1 DIU     -0.020000
     11 I1         -2.7250   -1.3820    0.0900 i         1 DIU     -0.182900
     12 I2          3.1030   -0.8620   -0.1440 i         1 DIU     -0.199900
     13 H3         -2.4170    2.7710    0.2010 ho        1 DIU      0.495000
     14 H4          0.2150   -1.8420   -0.0500 ha        1 DIU      0.131000
     15 H6          2.0900    2.0730   -0.0130 ha        1 DIU      0.172000
@<TRIPOS>BOND
     1    1    2 1   
     2    1    3 1   
     3    1    5 1   
     4    4    6 1   
     5    4   13 1   
     6    5    6 ar  
     7    5   10 ar  
     8    6    7 ar  
     9    7    8 ar  
    10    7   11 1   
    11    8    9 ar  
    12    8   14 1   
    13    9   10 ar  
    14    9   12 1   
    15   10   15 1   
@<TRIPOS>SUBSTRUCTURE
     1 DIU         1 TEMP              0 ****  ****    0 ROOT
