@<TRIPOS>MOLECULE
DIU
   15    13     1     0     0
SMALL
bcc


@<TRIPOS>ATOM
      1 C           1.2100   -0.2190    2.0420 c1        1 DIU      0.369000
      2 O1          2.4690   -0.2190    2.0420 o         1 DIU     -0.532000
      3 O2          0.5800   -0.2190    3.1320 os        1 DIU     -0.582000
      4 O3          0.6270    2.1920    0.6430 oh        1 DIU     -0.287000
      5 C1          0.4530   -0.2190    0.7320 c2        1 DIU     -0.208000
      6 C2          0.1940    0.9770    0.0810 c2        1 DIU      0.194000
      7 C3         -0.4990    0.9770   -1.1190 c2        1 DIU     -0.340000
      8 C4         -0.9330   -0.2190   -1.6690 c1        1 DIU     -0.048000
      9 C5         -0.6740   -1.4150   -1.0180 c1        1 DIU     -0.331000
     10 C6          0.0190   -1.4150    0.1820 c2        1 DIU     -0.020000
     11 I1         -0.8650    2.7930   -2.1240 i         1 DIU      0.103000
     12 I2         -1.2960   -3.2360   -1.8760 i         1 DIU      0.086000
     13 H3         -0.0770    2.6980    0.8320 ho        1 DIU      0.294000
     14 H4         -1.4180   -0.2190   -2.5160 ha        1 DIU      0.131000
     15 H6          0.2080   -2.2580    0.6360 ha        1 DIU      0.172000
@<TRIPOS>BOND
     1    1    2 1   
     2    1    5 1   
     3    4    6 1   
     4    4   13 1   
     5    5    6 1   
     6    5   10 1   
     7    6    7 1   
     8    7    8 1   
     9    7   11 1   
    10    8   14 1   
    11    9   10 1   
    12    9   12 1   
    13   10   15 1   
@<TRIPOS>SUBSTRUCTURE
     1 DIU         1 TEMP              0 ****  ****    0 ROOT
