@<TRIPOS>MOLECULE
DIU
   15    15     1     0     0
SMALL
bcc


@<TRIPOS>ATOM
      1 C           0.0450    0.1110   -0.0390 c         1 DIU      0.920200
      2 O1          1.3140    0.1710   -0.0620 o         1 DIU     -0.822300
      3 O2         -0.6300    0.0850    1.0240 o         1 DIU     -0.822300
      4 O3          1.3080    0.1550   -2.7450 oh        1 DIU     -0.533100
      5 C1         -0.7020    0.0670   -1.3620 ca        1 DIU     -0.228600
      6 C2         -0.0430    0.0910   -2.6150 ca        1 DIU      0.239100
      7 C3         -0.7980    0.0470   -3.8080 ca        1 DIU     -0.054100
      8 C4         -2.1890   -0.0190   -3.7390 ca        1 DIU     -0.048000
      9 C5         -2.8380   -0.0430   -2.5100 ca        1 DIU     -0.045100
     10 C6         -2.0910    0.0000   -1.3290 ca        1 DIU     -0.020000
     11 I1          0.0330    0.0760   -5.6570 i         1 DIU     -0.182900
     12 I2         -4.8570   -0.1390   -2.4420 i         1 DIU     -0.199900
     13 H3          1.7260    0.1800   -1.8520 ho        1 DIU      0.495000
     14 H4         -2.7760   -0.0530   -4.6710 ha        1 DIU      0.131000
     15 H6         -2.5760   -0.0170   -0.3350 ha        1 DIU      0.172000
@<TRIPOS>BOND
     1    1    2 1   
     2    1    3 1   
     3    1    5 1   
     4    4    6 1   
     5    4   13 1   
     6    5    6 ar  
     7    5   10 ar  
     8    6    7 ar  
     9    7    8 ar  
    10    7   11 1   
    11    8    9 ar  
    12    8   14 1   
    13    9   10 ar  
    14    9   12 1   
    15   10   15 1   
@<TRIPOS>SUBSTRUCTURE
     1 DIU         1 TEMP              0 ****  ****    0 ROOT
