@<TRIPOS>MOLECULE
DIV
   18    17     1     0     0
SMALL
bcc


@<TRIPOS>ATOM
      1 N           1.3910   -0.1660   -0.4230 n3        1 DIV     -0.882800
      2 CA         -0.0310   -0.2010   -0.4240 c3        1 DIV      0.025200
      3 CB1        -0.5370   -0.1930    1.0020 c3        1 DIV     -0.059400
      4 CG1         0.4210    0.5890    1.8730 c3        1 DIV     -0.080100
      5 CB2        -0.5650    1.0120   -1.1550 c3        1 DIV     -0.061100
      6 C          -0.5050   -1.4580   -1.1200 c         1 DIV      0.891600
      7 O           0.2690   -2.0760   -1.8970 o         1 DIV     -0.842300
      8 OXT        -1.6720   -1.8850   -0.9220 o         1 DIV     -0.842300
      9 H           1.6880    0.1880   -1.2130 hn        1 DIV      0.329800
     10 H2          1.7170   -1.0170   -0.3280 hn        1 DIV      0.329800
     11 HB11       -1.4210    0.2250    1.0320 hc        1 DIV      0.042200
     12 HB12       -0.6000   -1.1120    1.3310 hc        1 DIV      0.042200
     13 HG11        1.2240    0.0520    2.0400 hc        1 DIV      0.014700
     14 HG12        0.6730    1.4200    1.4170 hc        1 DIV      0.014700
     15 HG13       -0.0120    0.8030    2.7250 hc        1 DIV      0.014700
     16 HB21       -1.5360    1.0650   -1.0330 hc        1 DIV      0.021033
     17 HB22       -0.3590    0.9340   -2.1100 hc        1 DIV      0.021033
     18 HB23       -0.1450    1.8210   -0.7950 hc        1 DIV      0.021033
@<TRIPOS>BOND
     1    1    2 1   
     2    1    9 1   
     3    1   10 1   
     4    2    3 1   
     5    2    5 1   
     6    2    6 1   
     7    3    4 1   
     8    3   11 1   
     9    3   12 1   
    10    4   13 1   
    11    4   14 1   
    12    4   15 1   
    13    5   16 1   
    14    5   17 1   
    15    5   18 1   
    16    6    7 1   
    17    6    8 1   
@<TRIPOS>SUBSTRUCTURE
     1 DIV         1 TEMP              0 ****  ****    0 ROOT
