@<TRIPOS>MOLECULE
DIV
   18    17     1     0     0
SMALL
bcc


@<TRIPOS>ATOM
      1 N           0.5920    1.4810   -0.8070 n3        1 DIV     -0.882800
      2 CA          0.3470    0.2960    0.0270 c3        1 DIV      0.025200
      3 CB1         1.3240   -0.8430   -0.3150 c3        1 DIV     -0.059400
      4 CG1         2.7780   -0.5020   -0.1260 c3        1 DIV     -0.080100
      5 CB2         0.4580    0.6420    1.5140 c3        1 DIV     -0.061100
      6 C          -1.1040   -0.3020   -0.1810 c         1 DIV      0.891600
      7 O          -1.4060   -1.3420    0.4650 o         1 DIV     -0.842300
      8 OXT        -1.8800    0.2960   -0.9790 o         1 DIV     -0.842300
      9 H           0.4630    1.2010   -1.7640 hn        1 DIV      0.329800
     10 H2         -0.1450    2.1370   -0.6070 hn        1 DIV      0.329800
     11 HB11        1.1530   -1.1550   -1.3790 hc        1 DIV      0.042200
     12 HB12        1.0450   -1.7150    0.3340 hc        1 DIV      0.042200
     13 HG11        3.0740    0.3700   -0.7570 hc        1 DIV      0.014700
     14 HG12        2.9910   -0.2480    0.9410 hc        1 DIV      0.014700
     15 HG13        3.4180   -1.3740   -0.4090 hc        1 DIV      0.014700
     16 HB21        1.4670    1.0440    1.7700 hc        1 DIV      0.021033
     17 HB22       -0.3090    1.4030    1.7920 hc        1 DIV      0.021033
     18 HB23        0.2670   -0.2850    2.1060 hc        1 DIV      0.021033
@<TRIPOS>BOND
     1    1    2 1   
     2    1    9 1   
     3    1   10 1   
     4    2    3 1   
     5    2    5 1   
     6    2    6 1   
     7    3    4 1   
     8    3   11 1   
     9    3   12 1   
    10    4   13 1   
    11    4   14 1   
    12    4   15 1   
    13    5   16 1   
    14    5   17 1   
    15    5   18 1   
    16    6    7 1   
    17    6    8 1   
@<TRIPOS>SUBSTRUCTURE
     1 DIV         1 TEMP              0 ****  ****    0 ROOT
