@<TRIPOS>MOLECULE
DIW
   60    63     1     0     0
SMALL
bcc


@<TRIPOS>ATOM
      1 C           1.4030   -1.6600   -1.5410 ca        1 DIW     -0.157000
      2 C2          1.9730    0.6350   -0.8910 ca        1 DIW     -0.138300
      3 C3          2.3450   -0.7280   -1.1080 ca        1 DIW      0.012800
      4 N7          3.7270   -0.8940   -0.8640 nh        1 DIW     -0.208200
      5 C8          4.2830    0.3200   -0.4140 ce        1 DIW      0.327600
      6 C9          3.1880    1.4110   -0.4230 c3        1 DIW     -0.049000
      7 C10         5.6000    0.4530   -0.0890 ce        1 DIW     -0.376600
      8 C11         6.2310    1.6640    0.3390 cf        1 DIW      0.000000
      9 C12         7.5580    1.8440    0.5150 cf        1 DIW     -0.239000
     10 C13         8.6070    0.8980    0.2060 cc        1 DIW      0.142800
     11 C14         9.7180    0.7250    1.0900 ca        1 DIW     -0.093800
     12 C15        10.7820   -0.1700    0.7330 ca        1 DIW      0.126600
     13 N16        10.7220   -0.8560   -0.4870 na        1 DIW     -0.351800
     14 C17         9.6520   -0.6940   -1.2940 cd        1 DIW      0.111000
     15 C18         8.5900    0.1690   -0.9800 cc        1 DIW     -0.222000
     16 C19        11.8770   -0.3430    1.6320 ca        1 DIW     -0.115000
     17 C20        11.8990    0.3370    2.8290 ca        1 DIW     -0.062000
     18 C21        10.8520    1.2120    3.1870 ca        1 DIW     -0.114000
     19 C22         9.7890    1.3990    2.3360 ca        1 DIW     -0.108000
     20 C23        11.8020   -1.7670   -0.8930 c3        1 DIW      0.132800
     21 C24        11.7470   -3.1370   -0.2100 c3        1 DIW     -0.042400
     22 C25        13.0860   -3.8080   -0.3120 c3        1 DIW     -0.301600
     23 S26        14.3010   -3.1220    0.8190 s6        1 DIW      1.429800
     24 C27         3.5240    2.5150   -1.4080 c3        1 DIW     -0.081600
     25 C28         2.9400    1.9640    0.9690 c3        1 DIW     -0.081600
     26 C29         4.3590   -2.1610   -0.6730 c3        1 DIW      0.028600
     27 C30         0.0920   -1.2160   -1.7540 ca        1 DIW     -0.095000
     28 O30        15.3760   -4.0130    0.7800 o         1 DIW     -0.741867
     29 C31        -0.2700    0.1110   -1.5440 ca        1 DIW     -0.154000
     30 O31        14.5310   -1.8250    0.2740 o         1 DIW     -0.741867
     31 C32         0.6750    1.0510   -1.1090 ca        1 DIW     -0.077000
     32 O32        13.6010   -3.0130    2.0460 o         1 DIW     -0.741867
     33 H           1.6660   -2.7110   -1.7180 ha        1 DIW      0.142000
     34 H10         6.2540   -0.4370   -0.1350 ha        1 DIW      0.135000
     35 H11         5.5670    2.5140    0.5860 ha        1 DIW      0.132000
     36 H12         7.9150    2.8070    0.9240 ha        1 DIW      0.148000
     37 H17         9.6430   -1.2670   -2.2440 h4        1 DIW      0.185000
     38 H18         7.7580    0.2710   -1.6950 ha        1 DIW      0.178000
     39 H19        12.7180   -1.0380    1.3990 ha        1 DIW      0.234000
     40 H20        12.7470    0.1810    3.5190 ha        1 DIW      0.176000
     41 H21        10.8940    1.7380    4.1540 ha        1 DIW      0.151000
     42 H22         8.9640    2.0710    2.6200 ha        1 DIW      0.148000
     43 H23        11.7340   -1.9060   -2.0090 h1        1 DIW      0.116700
     44 H23A       12.7940   -1.2560   -0.6700 h1        1 DIW      0.116700
     45 H24        10.9480   -3.7560   -0.6950 hc        1 DIW      0.051700
     46 H24A       11.4820   -3.0290    0.8790 hc        1 DIW      0.051700
     47 H25        12.9660   -4.8930   -0.0760 h1        1 DIW      0.082200
     48 H25A       13.4830   -3.7450   -1.3520 h1        1 DIW      0.082200
     49 H27         2.6810    3.2470   -1.4470 hc        1 DIW      0.047533
     50 H27A        4.4520    3.0530   -1.0990 hc        1 DIW      0.047533
     51 H27B        3.6790    2.0940   -2.4300 hc        1 DIW      0.047533
     52 H28         1.9680    2.5170    0.9770 hc        1 DIW      0.047533
     53 H28A        3.7460    2.6730    1.2740 hc        1 DIW      0.047533
     54 H28B        2.8860    1.1380    1.7170 hc        1 DIW      0.047533
     55 H29         4.6940   -2.2890    0.3930 h1        1 DIW      0.050033
     56 H29A        5.2600   -2.2310   -1.3410 h1        1 DIW      0.050033
     57 H29B        3.6480   -2.9880   -0.9340 h1        1 DIW      0.050033
     58 H30        -0.6640   -1.9410   -2.0960 ha        1 DIW      0.139000
     59 H31        -1.3080    0.4310   -1.7210 ha        1 DIW      0.139000
     60 H32         0.3850    2.0990   -0.9450 ha        1 DIW      0.139000
@<TRIPOS>BOND
     1    1    3 ar  
     2    1   27 ar  
     3    1   33 1   
     4    2    3 ar  
     5    2    6 1   
     6    2   31 ar  
     7    3    4 1   
     8    4    5 2   
     9    4   26 1   
    10    5    6 1   
    11    5    7 1   
    12    6   24 1   
    13    6   25 1   
    14    7    8 2   
    15    7   34 1   
    16    8    9 1   
    17    8   35 1   
    18    9   10 2   
    19    9   36 1   
    20   10   11 1   
    21   10   15 1   
    22   11   12 ar  
    23   11   19 ar  
    24   12   13 1   
    25   12   16 ar  
    26   13   14 1   
    27   13   20 1   
    28   14   15 2   
    29   14   37 1   
    30   15   38 1   
    31   16   17 ar  
    32   16   39 1   
    33   17   18 ar  
    34   17   40 1   
    35   18   19 ar  
    36   18   41 1   
    37   19   42 1   
    38   20   21 1   
    39   20   43 1   
    40   20   44 1   
    41   21   22 1   
    42   21   45 1   
    43   21   46 1   
    44   22   23 1   
    45   22   47 1   
    46   22   48 1   
    47   23   28 1   
    48   23   30 1   
    49   23   32 1   
    50   24   49 1   
    51   24   50 1   
    52   24   51 1   
    53   25   52 1   
    54   25   53 1   
    55   25   54 1   
    56   26   55 1   
    57   26   56 1   
    58   26   57 1   
    59   27   29 ar  
    60   27   58 1   
    61   29   31 ar  
    62   29   59 1   
    63   31   60 1   
@<TRIPOS>SUBSTRUCTURE
     1 DIW         1 TEMP              0 ****  ****    0 ROOT
