@<TRIPOS>MOLECULE
DIW
   60    63     1     0     0
SMALL
bcc


@<TRIPOS>ATOM
      1 C           8.2210    0.0150   -0.5150 ca        1 DIW     -0.159000
      2 C2          6.2240   -1.3010    0.0340 ca        1 DIW     -0.140300
      3 C3          6.8460   -0.0550   -0.2920 ca        1 DIW      0.018800
      4 N7          5.8770    0.9700   -0.3140 nh        1 DIW     -0.212200
      5 C8          4.6020    0.4400   -0.0530 ce        1 DIW      0.338600
      6 C9          4.7370   -1.0770    0.2200 c3        1 DIW     -0.050000
      7 C10         3.4680    1.1990   -0.0510 ce        1 DIW     -0.375600
      8 C11         2.1520    0.7270    0.2380 cf        1 DIW      0.012000
      9 C12         1.0600    1.5260    0.1570 cf        1 DIW     -0.242000
     10 C13        -0.2780    1.0880    0.4640 cc        1 DIW      0.146800
     11 C14        -1.4200    1.7130   -0.1360 ca        1 DIW     -0.093800
     12 C15        -2.7410    1.2910    0.2350 ca        1 DIW      0.129600
     13 N16        -2.8980    0.2670    1.1780 na        1 DIW     -0.357800
     14 C17        -1.8080   -0.3310    1.7030 cd        1 DIW      0.117000
     15 C18        -0.5010    0.0550    1.3750 cc        1 DIW     -0.234000
     16 C19        -3.8700    1.9200   -0.3690 ca        1 DIW     -0.116000
     17 C20        -3.6880    2.9090   -1.3100 ca        1 DIW     -0.061000
     18 C21        -2.3920    3.3170   -1.6890 ca        1 DIW     -0.116000
     19 C22        -1.2880    2.7310   -1.1160 ca        1 DIW     -0.108000
     20 C23        -4.2360   -0.1770    1.5920 c3        1 DIW      0.134800
     21 C24        -4.9270   -1.0970    0.5800 c3        1 DIW     -0.043400
     22 C25        -6.4040   -1.1250    0.8480 c3        1 DIW     -0.301600
     23 S26        -7.2450    0.3650    0.3030 s6        1 DIW      1.429800
     24 C27         3.9550   -1.8910   -0.7930 c3        1 DIW     -0.080600
     25 C28         4.3350   -1.4190    1.6420 c3        1 DIW     -0.080600
     26 C29         6.1150    2.3150   -0.7210 c3        1 DIW      0.032600
     27 C30         8.9630   -1.1680   -0.4100 ca        1 DIW     -0.093000
     28 O30        -8.6080    0.0630    0.3840 o         1 DIW     -0.742200
     29 C31         8.3590   -2.3800   -0.0930 ca        1 DIW     -0.155000
     30 O31        -6.7590    1.3450    1.2160 o         1 DIW     -0.742200
     31 C32         6.9760   -2.4540    0.1320 ca        1 DIW     -0.076000
     32 O32        -6.7170    0.6030   -0.9900 o         1 DIW     -0.742200
     33 H           8.7200    0.9610   -0.7650 ha        1 DIW      0.142000
     34 H10         3.5450    2.2770   -0.2860 ha        1 DIW      0.138000
     35 H11         2.0370   -0.3350    0.5210 ha        1 DIW      0.123000
     36 H12         1.1740    2.5790   -0.1510 ha        1 DIW      0.148000
     37 H17        -1.9820   -1.1500    2.4320 h4        1 DIW      0.184000
     38 H18         0.3360   -0.4600    1.8670 ha        1 DIW      0.166000
     39 H19        -4.9120    1.6180   -0.1140 ha        1 DIW      0.234000
     40 H20        -4.5720    3.3760   -1.7780 ha        1 DIW      0.176000
     41 H21        -2.2740    4.1030   -2.4520 ha        1 DIW      0.150000
     42 H22        -0.2800    3.0430   -1.4290 ha        1 DIW      0.147000
     43 H23        -4.1310   -0.7210    2.5730 h1        1 DIW      0.116200
     44 H23A       -4.8720    0.7490    1.7780 h1        1 DIW      0.116200
     45 H24        -4.7600   -0.7310   -0.4710 hc        1 DIW      0.051700
     46 H24A       -4.4840   -2.1240    0.6570 hc        1 DIW      0.051700
     47 H25        -6.8530   -1.9940    0.3070 h1        1 DIW      0.082200
     48 H25A       -6.6080   -1.2800    1.9330 h1        1 DIW      0.082200
     49 H27         4.1870   -2.9750   -0.6540 hc        1 DIW      0.047200
     50 H27A        2.8570   -1.7420   -0.6670 hc        1 DIW      0.047200
     51 H27B        4.2370   -1.5970   -1.8330 hc        1 DIW      0.047200
     52 H28         4.8720   -0.7640    2.3700 hc        1 DIW      0.047200
     53 H28A        3.2360   -1.2930    1.7910 hc        1 DIW      0.047200
     54 H28B        4.6010   -2.4830    1.8560 hc        1 DIW      0.047200
     55 H29         7.2120    2.4740   -0.8900 h1        1 DIW      0.051367
     56 H29A        5.5610    2.5440   -1.6730 h1        1 DIW      0.051367
     57 H29B        5.7610    3.0220    0.0790 h1        1 DIW      0.051367
     58 H30        10.0500   -1.1290   -0.5840 ha        1 DIW      0.139000
     59 H31         8.9670   -3.2930   -0.0180 ha        1 DIW      0.140000
     60 H32         6.5030   -3.4150    0.3820 ha        1 DIW      0.140000
@<TRIPOS>BOND
     1    1    3 ar  
     2    1   27 ar  
     3    1   33 1   
     4    2    3 ar  
     5    2    6 1   
     6    2   31 ar  
     7    3    4 1   
     8    4    5 2   
     9    4   26 1   
    10    5    6 1   
    11    5    7 1   
    12    6   24 1   
    13    6   25 1   
    14    7    8 2   
    15    7   34 1   
    16    8    9 1   
    17    8   35 1   
    18    9   10 2   
    19    9   36 1   
    20   10   11 1   
    21   10   15 1   
    22   11   12 ar  
    23   11   19 ar  
    24   12   13 1   
    25   12   16 ar  
    26   13   14 1   
    27   13   20 1   
    28   14   15 2   
    29   14   37 1   
    30   15   38 1   
    31   16   17 ar  
    32   16   39 1   
    33   17   18 ar  
    34   17   40 1   
    35   18   19 ar  
    36   18   41 1   
    37   19   42 1   
    38   20   21 1   
    39   20   43 1   
    40   20   44 1   
    41   21   22 1   
    42   21   45 1   
    43   21   46 1   
    44   22   23 1   
    45   22   47 1   
    46   22   48 1   
    47   23   28 1   
    48   23   30 1   
    49   23   32 1   
    50   24   49 1   
    51   24   50 1   
    52   24   51 1   
    53   25   52 1   
    54   25   53 1   
    55   25   54 1   
    56   26   55 1   
    57   26   56 1   
    58   26   57 1   
    59   27   29 ar  
    60   27   58 1   
    61   29   31 ar  
    62   29   59 1   
    63   31   60 1   
@<TRIPOS>SUBSTRUCTURE
     1 DIW         1 TEMP              0 ****  ****    0 ROOT
