@<TRIPOS>MOLECULE
DIW
   60    53     1     0     0
SMALL
bcc


@<TRIPOS>ATOM
      1 C          -4.6590   -3.6800   -3.0900 c1        1 DIW     -0.152000
      2 C2         -4.9790   -2.1520   -1.2380 c1        1 DIW     -0.121000
      3 C3         -4.1270   -2.8330   -2.1060 c1        1 DIW      0.039000
      4 N7         -2.7810   -2.2530   -1.9710 n3        1 DIW     -0.201000
      5 C8         -2.7500   -1.4780   -0.7610 c2        1 DIW      0.094000
      6 C9         -4.1280   -1.4880   -0.1710 c3        1 DIW      0.015000
      7 C10        -1.6440   -0.8360   -0.2350 c1        1 DIW     -0.278000
      8 C11        -0.2950   -0.9170   -0.9570 c1        1 DIW     -0.114667
      9 C12         0.7850   -0.2070   -0.4820 c1        1 DIW     -0.114667
     10 C13         0.6380    0.6660    0.7720 c1        1 DIW      0.088000
     11 C14         1.5170    0.4140    1.8260 c2        1 DIW     -0.082000
     12 C15         2.8060    0.9040    1.7800 c1        1 DIW      0.088000
     13 N16         3.2290    1.6500    0.6820 n2        1 DIW     -0.026000
     14 C17         2.3650    1.8970   -0.3550 c1        1 DIW      0.029000
     15 C18         1.0580    1.4020   -0.3100 c1        1 DIW     -0.166000
     16 C19         3.6570    0.7590    2.8980 c1        1 DIW     -0.166000
     17 C20         3.1930    0.1200    4.0480 c1        1 DIW     -0.114667
     18 C21         1.8890   -0.3760    4.0950 c1        1 DIW     -0.114667
     19 C22         1.0480   -0.2330    2.9910 c1        1 DIW     -0.107000
     20 C23         4.5600    1.9280    0.1670 c3        1 DIW     -0.104000
     21 C24         4.9770    3.3540    0.5680 c3        1 DIW     -0.122000
     22 C25         6.3730    3.6570    0.0020 c3        1 DIW     -0.841000
     23 S26         6.8990    5.2730    0.5500 s4        1 DIW      2.075800
     24 C27        -4.6250   -0.0740    0.1690 c3        1 DIW     -0.199000
     25 C28        -4.2060   -2.1840    1.1940 c3        1 DIW     -0.199000
     26 C29        -1.6690   -2.4860   -2.8550 c3        1 DIW     -0.083000
     27 C30        -6.0410   -3.8400   -3.2000 c1        1 DIW     -0.114667
     28 O30         5.8720    6.3160    0.1680 os        1 DIW     -1.076000
     29 C31        -6.8970   -3.1560   -2.3280 c1        1 DIW     -0.114667
     30 O31         7.1680    5.2870    2.0390 o         1 DIW     -0.667900
     31 C32        -6.3690   -2.3150   -1.3490 c1        1 DIW     -0.079000
     32 O32         8.2660    5.6210    0.0010 o         1 DIW     -0.667900
     33 H          -4.0600   -4.1590   -3.7010 ha        1 DIW      0.140000
     34 H10        -1.7230   -0.3300    0.6000 ha        1 DIW      0.146000
     35 H11        -0.2010   -1.4730   -1.7550 ha        1 DIW      0.147500
     36 H12         1.6480   -0.2600   -0.9460 ha        1 DIW      0.147500
     37 H17         2.6640    2.4220   -1.1270 ha        1 DIW      0.187000
     38 H18         0.4390    1.5800   -1.0540 ha        1 DIW      0.205000
     39 H19         4.5730    1.1060    2.8660 ha        1 DIW      0.205000
     40 H20         3.7800    0.0290    4.8290 ha        1 DIW      0.147500
     41 H21         1.5630   -0.8250    4.9040 ha        1 DIW      0.147500
     42 H22         0.1190   -0.5390    3.0410 ha        1 DIW      0.159000
     43 H23         4.5550    1.8510   -0.8130 h1        1 DIW      0.156500
     44 H23A        5.1990    1.2810    0.5430 h1        1 DIW      0.156500
     45 H24         4.9990    3.4260    1.5460 hc        1 DIW      0.091500
     46 H24A        4.3310    3.9990    0.2060 hc        1 DIW      0.091500
     47 H25         6.3390    3.6400   -0.9790 h1        1 DIW      0.122000
     48 H25A        7.0090    2.9810    0.3200 h1        1 DIW      0.122000
     49 H27        -5.2540    0.2270   -0.5240 hc        1 DIW      0.086833
     50 H27A       -3.8610    0.5410    0.2060 hc        1 DIW      0.086833
     51 H27B       -5.0790   -0.0860    1.0420 hc        1 DIW      0.086833
     52 H28        -5.1340   -2.4540    1.3720 hc        1 DIW      0.086833
     53 H28A       -3.9040   -1.5650    1.8950 hc        1 DIW      0.086833
     54 H28B       -3.6290   -2.9800    1.1890 hc        1 DIW      0.086833
     55 H29        -1.3650   -1.6300   -3.2310 h1        1 DIW      0.088333
     56 H29A       -0.9340   -2.9030   -2.3540 h1        1 DIW      0.088333
     57 H29B       -1.9500   -3.0830   -3.5850 h1        1 DIW      0.088333
     58 H30        -6.4130   -4.4330   -3.8890 ha        1 DIW      0.147500
     59 H31        -7.8690   -3.2700   -2.4050 ha        1 DIW      0.147500
     60 H32        -6.9700   -1.8350   -0.7380 ha        1 DIW      0.142000
@<TRIPOS>BOND
     1    1    3 1   
     2    1   33 1   
     3    2    6 1   
     4    2   31 1   
     5    3    4 1   
     6    4    5 1   
     7    4   26 1   
     8    5    6 1   
     9    5    7 1   
    10    6   24 1   
    11    6   25 1   
    12    7   34 1   
    13    8    9 1   
    14    8   35 1   
    15    9   36 1   
    16   10   11 1   
    17   10   15 1   
    18   11   12 1   
    19   11   19 1   
    20   12   16 1   
    21   13   14 1   
    22   13   20 1   
    23   14   37 1   
    24   15   38 1   
    25   16   39 1   
    26   17   18 1   
    27   17   40 1   
    28   18   41 1   
    29   19   42 1   
    30   20   21 1   
    31   20   43 1   
    32   20   44 1   
    33   21   22 1   
    34   21   45 1   
    35   21   46 1   
    36   22   23 1   
    37   22   47 1   
    38   22   48 1   
    39   23   30 1   
    40   23   32 1   
    41   24   49 1   
    42   24   50 1   
    43   24   51 1   
    44   25   52 1   
    45   25   53 1   
    46   25   54 1   
    47   26   55 1   
    48   26   56 1   
    49   26   57 1   
    50   27   29 1   
    51   27   58 1   
    52   29   59 1   
    53   31   60 1   
@<TRIPOS>SUBSTRUCTURE
     1 DIW         1 TEMP              0 ****  ****    0 ROOT
