@<TRIPOS>MOLECULE
DIW
   60    63     1     0     0
SMALL
bcc


@<TRIPOS>ATOM
      1 C           2.0380   -2.1810   -0.2940 ca        1 DIW     -0.159000
      2 C2          2.2780    0.2600   -0.3420 ca        1 DIW     -0.142300
      3 C3          2.8510   -1.0480   -0.2740 ca        1 DIW      0.019800
      4 N7          4.2550   -0.9510   -0.1610 nh        1 DIW     -0.211200
      5 C8          4.6520    0.3980   -0.2190 ce        1 DIW      0.333600
      6 C9          3.3890    1.2890   -0.3000 c3        1 DIW     -0.049000
      7 C10         5.9570    0.7880   -0.1910 ce        1 DIW     -0.384600
      8 C11         6.4270    2.1400   -0.2080 cf        1 DIW     -0.004000
      9 C12         7.7210    2.5150   -0.2600 cf        1 DIW     -0.249000
     10 C13         8.8820    1.6470   -0.3060 cc        1 DIW      0.147800
     11 C14         9.1840    0.6950    0.7150 ca        1 DIW     -0.095800
     12 C15        10.3430   -0.1430    0.5910 ca        1 DIW      0.127600
     13 N16        11.1810    0.0060   -0.5210 na        1 DIW     -0.351800
     14 C17        10.8910    0.9330   -1.4590 cd        1 DIW      0.112000
     15 C18         9.7660    1.7680   -1.3750 cc        1 DIW     -0.218000
     16 C19        10.6140   -1.1070    1.6080 ca        1 DIW     -0.119000
     17 C20         9.7880   -1.2020    2.7050 ca        1 DIW     -0.061000
     18 C21         8.6670   -0.3560    2.8480 ca        1 DIW     -0.119000
     19 C22         8.3740    0.5670    1.8730 ca        1 DIW     -0.104000
     20 C23        12.3610   -0.8530   -0.6960 c3        1 DIW      0.134800
     21 C24        12.0320   -2.2480   -1.2370 c3        1 DIW     -0.043400
     22 C25        13.1640   -3.1890   -0.9410 c3        1 DIW     -0.301600
     23 S26        13.2010   -3.7140    0.7750 s6        1 DIW      1.429800
     24 C27         3.3800    2.1190   -1.5700 c3        1 DIW     -0.080600
     25 C28         3.2480    2.1580    0.9360 c3        1 DIW     -0.080600
     26 C29         5.1570   -2.0500   -0.2790 c3        1 DIW      0.029600
     27 C30         0.6530   -1.9920   -0.3810 ca        1 DIW     -0.094000
     28 O30        14.1250   -4.7620    0.8160 o         1 DIW     -0.742533
     29 C31         0.0950   -0.7190   -0.4470 ca        1 DIW     -0.157000
     30 O31        13.5710   -2.5160    1.4550 o         1 DIW     -0.742533
     31 C32         0.9100    0.4220   -0.4260 ca        1 DIW     -0.077000
     32 O32        11.8530   -4.0370    1.0640 o         1 DIW     -0.742533
     33 H           2.4550   -3.1950   -0.2400 ha        1 DIW      0.143000
     34 H10         6.7460    0.0140   -0.1510 ha        1 DIW      0.138000
     35 H11         5.6640    2.9410   -0.2010 ha        1 DIW      0.131000
     36 H12         7.9700    3.5900   -0.3220 ha        1 DIW      0.148000
     37 H17        11.5850    1.0140   -2.3220 h4        1 DIW      0.187000
     38 H18         9.5910    2.5030   -2.1750 ha        1 DIW      0.173000
     39 H19        11.4790   -1.8060    1.5320 ha        1 DIW      0.235000
     40 H20        10.0080   -1.9580    3.4790 ha        1 DIW      0.175000
     41 H21         8.0330   -0.4450    3.7440 ha        1 DIW      0.151000
     42 H22         7.4960    1.2290    1.9670 ha        1 DIW      0.158000
     43 H23        12.8910   -0.9370    0.3080 h1        1 DIW      0.116700
     44 H23A       13.0630   -0.3350   -1.4090 h1        1 DIW      0.116700
     45 H24        11.0970   -2.6520   -0.7560 hc        1 DIW      0.051700
     46 H24A       11.8440   -2.1780   -2.3400 hc        1 DIW      0.051700
     47 H25        13.0560   -4.0980   -1.5810 h1        1 DIW      0.083200
     48 H25A       14.1440   -2.7260   -1.2010 h1        1 DIW      0.083200
     49 H27         3.5400    1.4690   -2.4630 hc        1 DIW      0.046533
     50 H27A        2.3890    2.6260   -1.6710 hc        1 DIW      0.046533
     51 H27B        4.1770    2.8980   -1.5470 hc        1 DIW      0.046533
     52 H28         3.3110    1.5360    1.8600 hc        1 DIW      0.046533
     53 H28A        2.2550    2.6700    0.9160 hc        1 DIW      0.046533
     54 H28B        4.0470    2.9360    0.9740 hc        1 DIW      0.046533
     55 H29         5.7470   -1.9820   -1.2350 h1        1 DIW      0.052700
     56 H29A        4.5870   -3.0150   -0.2690 h1        1 DIW      0.052700
     57 H29B        5.8750   -2.0410    0.5860 h1        1 DIW      0.052700
     58 H30        -0.0020   -2.8770   -0.3980 ha        1 DIW      0.138000
     59 H31        -0.9970   -0.6020   -0.5150 ha        1 DIW      0.138000
     60 H32         0.4650    1.4260   -0.4780 ha        1 DIW      0.138000
@<TRIPOS>BOND
     1    1    3 ar  
     2    1   27 ar  
     3    1   33 1   
     4    2    3 ar  
     5    2    6 1   
     6    2   31 ar  
     7    3    4 1   
     8    4    5 2   
     9    4   26 1   
    10    5    6 1   
    11    5    7 1   
    12    6   24 1   
    13    6   25 1   
    14    7    8 2   
    15    7   34 1   
    16    8    9 1   
    17    8   35 1   
    18    9   10 2   
    19    9   36 1   
    20   10   11 1   
    21   10   15 1   
    22   11   12 ar  
    23   11   19 ar  
    24   12   13 1   
    25   12   16 ar  
    26   13   14 1   
    27   13   20 1   
    28   14   15 2   
    29   14   37 1   
    30   15   38 1   
    31   16   17 ar  
    32   16   39 1   
    33   17   18 ar  
    34   17   40 1   
    35   18   19 ar  
    36   18   41 1   
    37   19   42 1   
    38   20   21 1   
    39   20   43 1   
    40   20   44 1   
    41   21   22 1   
    42   21   45 1   
    43   21   46 1   
    44   22   23 1   
    45   22   47 1   
    46   22   48 1   
    47   23   28 1   
    48   23   30 1   
    49   23   32 1   
    50   24   49 1   
    51   24   50 1   
    52   24   51 1   
    53   25   52 1   
    54   25   53 1   
    55   25   54 1   
    56   26   55 1   
    57   26   56 1   
    58   26   57 1   
    59   27   29 ar  
    60   27   58 1   
    61   29   31 ar  
    62   29   59 1   
    63   31   60 1   
@<TRIPOS>SUBSTRUCTURE
     1 DIW         1 TEMP              0 ****  ****    0 ROOT
