@<TRIPOS>MOLECULE
DIW
   60    63     1     0     0
SMALL
bcc


@<TRIPOS>ATOM
      1 C           2.0060   -2.1100   -0.0130 ca        1 DIW     -0.159000
      2 C2          2.2820    0.3080   -0.3220 ca        1 DIW     -0.142300
      3 C3          2.8370   -0.9950   -0.1260 ca        1 DIW      0.018800
      4 N7          4.2430   -0.9100   -0.0470 nh        1 DIW     -0.211200
      5 C8          4.6590    0.4170   -0.2540 ce        1 DIW      0.333600
      6 C9          3.4100    1.3170   -0.4070 c3        1 DIW     -0.049000
      7 C10         5.9710    0.7860   -0.2880 ce        1 DIW     -0.384600
      8 C11         6.4610    2.1210   -0.4550 cf        1 DIW     -0.004000
      9 C12         7.7590    2.4670   -0.5670 cf        1 DIW     -0.249000
     10 C13         8.9060    1.5790   -0.5390 cc        1 DIW      0.147800
     11 C14         9.2110    0.7360    0.5710 ca        1 DIW     -0.095800
     12 C15        10.3550   -0.1300    0.5180 ca        1 DIW      0.127600
     13 N16        11.1760   -0.1130   -0.6160 na        1 DIW     -0.351800
     14 C17        10.8850    0.7150   -1.6420 cd        1 DIW      0.112000
     15 C18         9.7730    1.5730   -1.6290 cc        1 DIW     -0.218000
     16 C19        10.6300   -0.9860    1.6270 ca        1 DIW     -0.119000
     17 C20         9.8220   -0.9520    2.7410 ca        1 DIW     -0.061000
     18 C21         8.7160   -0.0770    2.8110 ca        1 DIW     -0.119000
     19 C22         8.4190    0.7430    1.7490 ca        1 DIW     -0.104000
     20 C23        12.3410   -1.0040   -0.7180 c3        1 DIW      0.133800
     21 C24        11.9820   -2.4430   -1.1030 c3        1 DIW     -0.043400
     22 C25        13.1060   -3.3660   -0.7270 c3        1 DIW     -0.301600
     23 S26        13.1650   -3.7080    1.0340 s6        1 DIW      1.429800
     24 C27         3.3890    2.0080   -1.7570 c3        1 DIW     -0.080600
     25 C28         3.3040    2.3130    0.7320 c3        1 DIW     -0.080600
     26 C29         5.1270   -2.0310   -0.0650 c3        1 DIW      0.029600
     27 C30         0.6230   -1.9080   -0.0970 ca        1 DIW     -0.094000
     28 O30        14.0750   -4.7600    1.1700 o         1 DIW     -0.742533
     29 C31         0.0830   -0.6400   -0.2870 ca        1 DIW     -0.157000
     30 O31        13.5630   -2.4510    1.5780 o         1 DIW     -0.742533
     31 C32         0.9150    0.4830   -0.4000 ca        1 DIW     -0.077000
     32 O32        11.8180   -3.9770    1.3760 o         1 DIW     -0.742533
     33 H           2.4090   -3.1200    0.1410 ha        1 DIW      0.143000
     34 H10         6.7490    0.0070   -0.1800 ha        1 DIW      0.138000
     35 H11         5.7100    2.9310   -0.5210 ha        1 DIW      0.131000
     36 H12         8.0230    3.5250   -0.7460 ha        1 DIW      0.148000
     37 H17        11.5640    0.6940   -2.5190 h4        1 DIW      0.187000
     38 H18         9.5950    2.2230   -2.4990 ha        1 DIW      0.173000
     39 H19        11.4840   -1.7040    1.6110 ha        1 DIW      0.235000
     40 H20        10.0440   -1.6260    3.5870 ha        1 DIW      0.175000
     41 H21         8.0960   -0.0610    3.7210 ha        1 DIW      0.151000
     42 H22         7.5530    1.4250    1.7860 ha        1 DIW      0.158000
     43 H23        12.8860   -0.9900    0.2810 h1        1 DIW      0.116700
     44 H23A       13.0380   -0.5750   -1.4920 h1        1 DIW      0.116700
     45 H24        11.0500   -2.7790   -0.5680 hc        1 DIW      0.051700
     46 H24A       11.7770   -2.4860   -2.2050 hc        1 DIW      0.051700
     47 H25        14.0880   -2.9480   -1.0500 h1        1 DIW      0.083200
     48 H25A       12.9740   -4.3350   -1.2660 h1        1 DIW      0.083200
     49 H27         2.4050    2.5190   -1.8950 hc        1 DIW      0.046533
     50 H27A        3.5230    1.2660   -2.5790 hc        1 DIW      0.046533
     51 H27B        4.1990    2.7720   -1.8300 hc        1 DIW      0.046533
     52 H28         4.1150    3.0770    0.6750 hc        1 DIW      0.046533
     53 H28A        2.3190    2.8370    0.6750 hc        1 DIW      0.046533
     54 H28B        3.3740    1.7900    1.7160 hc        1 DIW      0.046533
     55 H29         5.8610   -1.9440    0.7830 h1        1 DIW      0.052700
     56 H29A        4.5430   -2.9810    0.0570 h1        1 DIW      0.052700
     57 H29B        5.6990   -2.0740   -1.0320 h1        1 DIW      0.052700
     58 H30        -0.0460   -2.7780   -0.0090 ha        1 DIW      0.138000
     59 H31        -1.0080   -0.5110   -0.3490 ha        1 DIW      0.138000
     60 H32         0.4850    1.4840   -0.5490 ha        1 DIW      0.138000
@<TRIPOS>BOND
     1    1    3 ar  
     2    1   27 ar  
     3    1   33 1   
     4    2    3 ar  
     5    2    6 1   
     6    2   31 ar  
     7    3    4 1   
     8    4    5 2   
     9    4   26 1   
    10    5    6 1   
    11    5    7 1   
    12    6   24 1   
    13    6   25 1   
    14    7    8 2   
    15    7   34 1   
    16    8    9 1   
    17    8   35 1   
    18    9   10 2   
    19    9   36 1   
    20   10   11 1   
    21   10   15 1   
    22   11   12 ar  
    23   11   19 ar  
    24   12   13 1   
    25   12   16 ar  
    26   13   14 1   
    27   13   20 1   
    28   14   15 2   
    29   14   37 1   
    30   15   38 1   
    31   16   17 ar  
    32   16   39 1   
    33   17   18 ar  
    34   17   40 1   
    35   18   19 ar  
    36   18   41 1   
    37   19   42 1   
    38   20   21 1   
    39   20   43 1   
    40   20   44 1   
    41   21   22 1   
    42   21   45 1   
    43   21   46 1   
    44   22   23 1   
    45   22   47 1   
    46   22   48 1   
    47   23   28 1   
    48   23   30 1   
    49   23   32 1   
    50   24   49 1   
    51   24   50 1   
    52   24   51 1   
    53   25   52 1   
    54   25   53 1   
    55   25   54 1   
    56   26   55 1   
    57   26   56 1   
    58   26   57 1   
    59   27   29 ar  
    60   27   58 1   
    61   29   31 ar  
    62   29   59 1   
    63   31   60 1   
@<TRIPOS>SUBSTRUCTURE
     1 DIW         1 TEMP              0 ****  ****    0 ROOT
