@<TRIPOS>MOLECULE
DIX
   30    30     1     0     0
SMALL
bcc


@<TRIPOS>ATOM
      1 N           0.0650   -0.1380   -0.0310 n4        1 DIX     -0.759000
      2 CM          1.5430   -0.1250   -0.1170 c3        1 DIX      0.077100
      3 C3         -0.4200   -0.0040    1.3790 c3        1 DIX      0.099800
      4 C2         -1.9400   -0.0170    1.4740 c3        1 DIX     -0.112400
      5 C1         -2.3510    0.1220    2.9280 c3        1 DIX     -0.071400
      6 C1'        -3.8610    0.1570    3.0640 c3        1 DIX     -0.070700
      7 C2'        -4.2850    0.1190    4.5340 c3        1 DIX     -0.076900
      8 C5'        -4.4870    1.4210    2.4730 c3        1 DIX     -0.076900
      9 C4'        -5.6550    1.8000    3.3740 c3        1 DIX     -0.079400
     10 C3'        -5.5310    0.9860    4.6560 c3        1 DIX     -0.079400
     11 HN         -0.2950   -1.0170   -0.4240 hn        1 DIX      0.453800
     12 HM1         1.9620   -0.9810    0.4780 hx        1 DIX      0.111367
     13 HM2         1.9350    0.8430    0.2960 hx        1 DIX      0.111367
     14 HM3         1.8520   -0.2280   -1.1930 hx        1 DIX      0.111367
     15 H31        -0.0130    0.9640    1.7920 hx        1 DIX      0.108700
     16 H32         0.0130   -0.8590    1.9750 hx        1 DIX      0.108700
     17 H21        -2.3520   -0.9750    1.0590 hc        1 DIX      0.069200
     18 H22        -2.3810    0.8320    0.8840 hc        1 DIX      0.069200
     19 H11        -1.9490   -0.7450    3.5180 hc        1 DIX      0.056700
     20 H12        -1.9110    1.0590    3.3600 hc        1 DIX      0.056700
     21 H1'        -4.2910   -0.7410    2.5410 hc        1 DIX      0.054700
     22 H2'1       -3.4690    0.5210    5.1870 hc        1 DIX      0.042200
     23 H2'2       -4.4890   -0.9310    4.8580 hc        1 DIX      0.042200
     24 H5'1       -4.8310    1.2400    1.4250 hc        1 DIX      0.042200
     25 H5'2       -3.7370    2.2520    2.4440 hc        1 DIX      0.042200
     26 H4'1       -5.6390    2.8960    3.5950 hc        1 DIX      0.053450
     27 H4'2       -6.6270    1.5790    2.8650 hc        1 DIX      0.053450
     28 H3'1       -5.4560    1.6570    5.5480 hc        1 DIX      0.053450
     29 H3'2       -6.4390    0.3460    4.7980 hc        1 DIX      0.053450
     30 HN3        -0.3190    0.6340   -0.5890 hn        1 DIX      0.453800
@<TRIPOS>BOND
     1    1    2 1   
     2    1    3 1   
     3    1   11 1   
     4    1   30 1   
     5    2   12 1   
     6    2   13 1   
     7    2   14 1   
     8    3    4 1   
     9    3   15 1   
    10    3   16 1   
    11    4    5 1   
    12    4   17 1   
    13    4   18 1   
    14    5    6 1   
    15    5   19 1   
    16    5   20 1   
    17    6    7 1   
    18    6    8 1   
    19    6   21 1   
    20    7   10 1   
    21    7   22 1   
    22    7   23 1   
    23    8    9 1   
    24    8   24 1   
    25    8   25 1   
    26    9   10 1   
    27    9   26 1   
    28    9   27 1   
    29   10   28 1   
    30   10   29 1   
@<TRIPOS>SUBSTRUCTURE
     1 DIX         1 TEMP              0 ****  ****    0 ROOT
