@<TRIPOS>MOLECULE
DIX
   30    30     1     0     0
SMALL
bcc


@<TRIPOS>ATOM
      1 N           0.0690   -0.1430   -0.0260 ny        1 DIX     -0.759000
      2 CM          1.5460   -0.1410   -0.1070 c3        1 DIX      0.077100
      3 C3         -0.4200   -0.0140    1.3830 c3        1 DIX      0.099800
      4 C2         -1.9400   -0.0160    1.4720 c3        1 DIX     -0.112400
      5 C1         -2.3560    0.1160    2.9260 c3        1 DIX     -0.071400
      6 C1'        -3.8660    0.1630    3.0580 c3        1 DIX     -0.070700
      7 C2'        -4.2960    0.1170    4.5250 c3        1 DIX     -0.076900
      8 C5'        -4.4790    1.4360    2.4740 c3        1 DIX     -0.076900
      9 C4'        -5.6460    1.8190    3.3750 c3        1 DIX     -0.079400
     10 C3'        -5.5370    0.9900    4.6490 c3        1 DIX     -0.079400
     11 HN         -0.3080    0.6350   -0.5810 hn        1 DIX      0.453800
     12 HM1         1.9570   -1.0030    0.4840 hx        1 DIX      0.111367
     13 HM2         1.8590   -0.2400   -1.1830 hx        1 DIX      0.111367
     14 HM3         1.9450    0.8220    0.3130 hx        1 DIX      0.111367
     15 H31        -0.0070    0.9480    1.8030 hx        1 DIX      0.108700
     16 H32         0.0040   -0.8760    1.9750 hx        1 DIX      0.108700
     17 H21        -2.3580   -0.9680    1.0500 hc        1 DIX      0.069200
     18 H22        -2.3730    0.8400    0.8880 hc        1 DIX      0.069200
     19 H11        -1.9090    1.0470    3.3660 hc        1 DIX      0.056700
     20 H12        -1.9630   -0.7580    3.5110 hc        1 DIX      0.056700
     21 H1'        -4.3020   -0.7280    2.5260 hc        1 DIX      0.054700
     22 H2'1       -3.4790    0.5090    5.1840 hc        1 DIX      0.042200
     23 H2'2       -4.5080   -0.9340    4.8420 hc        1 DIX      0.042200
     24 H5'1       -3.7220    2.2610    2.4520 hc        1 DIX      0.042200
     25 H5'2       -4.8220    1.2660    1.4240 hc        1 DIX      0.042200
     26 H4'1       -6.6190    1.6150    2.8600 hc        1 DIX      0.053450
     27 H4'2       -5.6180    2.9130    3.6080 hc        1 DIX      0.053450
     28 H3'1       -5.4630    1.6510    5.5480 hc        1 DIX      0.053450
     29 H3'2       -6.4490    0.3550    4.7780 hc        1 DIX      0.053450
     30 HN3        -0.2970   -1.0160   -0.4260 hn        1 DIX      0.453800
@<TRIPOS>BOND
     1    1    2 1   
     2    1    3 1   
     3    1   11 1   
     4    1   30 1   
     5    2   12 1   
     6    2   13 1   
     7    2   14 1   
     8    3    4 1   
     9    3   15 1   
    10    3   16 1   
    11    4    5 1   
    12    4   17 1   
    13    4   18 1   
    14    5    6 1   
    15    5   19 1   
    16    5   20 1   
    17    6    7 1   
    18    6    8 1   
    19    6   21 1   
    20    7   10 1   
    21    7   22 1   
    22    7   23 1   
    23    8    9 1   
    24    8   24 1   
    25    8   25 1   
    26    9   10 1   
    27    9   26 1   
    28    9   27 1   
    29   10   28 1   
    30   10   29 1   
@<TRIPOS>SUBSTRUCTURE
     1 DIX         1 TEMP              0 ****  ****    0 ROOT
