@<TRIPOS>MOLECULE
DIX
   29    29     1     0     0
SMALL
bcc


@<TRIPOS>ATOM
      1 N           0.3210   -0.3670    3.5980 n3        1 DIX     -0.826200
      2 CM          0.0100    0.3210    4.8210 c3        1 DIX      0.153100
      3 C3         -0.3900    0.1500    2.4440 c3        1 DIX      0.161800
      4 C2          0.1040   -0.4310    1.1220 c3        1 DIX     -0.084400
      5 C1         -0.7260    0.1050   -0.0250 c3        1 DIX     -0.071400
      6 C1'        -0.2420   -0.4220   -1.3610 c3        1 DIX     -0.066700
      7 C2'        -1.1890   -0.0370   -2.4980 c3        1 DIX     -0.076900
      8 C5'         1.1330    0.1200   -1.7560 c3        1 DIX     -0.076900
      9 C4'         1.1180    0.3200   -3.2650 c3        1 DIX     -0.078400
     10 C3'        -0.3300    0.2140   -3.7290 c3        1 DIX     -0.078400
     11 HN          1.3100   -0.3650    3.4300 hn        1 DIX      0.355800
     12 HM1         0.5920   -0.1510    5.6560 h1        1 DIX      0.028367
     13 HM2         0.2490    1.4210    4.7990 h1        1 DIX      0.028367
     14 HM3        -1.0850    0.2090    5.0370 h1        1 DIX      0.028367
     15 H31        -1.4770   -0.1140    2.5770 h1        1 DIX      0.027700
     16 H32        -0.3290    1.2790    2.3810 h1        1 DIX      0.027700
     17 H21         1.1820   -0.1640    0.9600 hc        1 DIX      0.046700
     18 H22         0.0370   -1.5500    1.1470 hc        1 DIX      0.046700
     19 H11        -1.7980   -0.1940    0.1180 hc        1 DIX      0.041200
     20 H12        -0.6910    1.2270   -0.0260 hc        1 DIX      0.041200
     21 H1'        -0.1830   -1.5440   -1.3030 hc        1 DIX      0.049700
     22 H2'1       -1.9340   -0.8490   -2.6840 hc        1 DIX      0.040950
     23 H2'2       -1.7610    0.8870   -2.2300 hc        1 DIX      0.040950
     24 H5'1        1.3310    1.0920   -1.2370 hc        1 DIX      0.040950
     25 H5'2        1.9400   -0.5910   -1.4510 hc        1 DIX      0.040950
     26 H4'1        1.7450   -0.4580   -3.7680 hc        1 DIX      0.039200
     27 H4'2        1.5480    1.3170   -3.5330 hc        1 DIX      0.039200
     28 H3'1       -0.4420   -0.6250   -4.4610 hc        1 DIX      0.039200
     29 H3'2       -0.6500    1.1510   -4.2480 hc        1 DIX      0.039200
@<TRIPOS>BOND
     1    1    2 1   
     2    1    3 1   
     3    1   11 1   
     4    2   12 1   
     5    2   13 1   
     6    2   14 1   
     7    3    4 1   
     8    3   15 1   
     9    3   16 1   
    10    4    5 1   
    11    4   17 1   
    12    4   18 1   
    13    5    6 1   
    14    5   19 1   
    15    5   20 1   
    16    6    7 1   
    17    6    8 1   
    18    6   21 1   
    19    7   10 1   
    20    7   22 1   
    21    7   23 1   
    22    8    9 1   
    23    8   24 1   
    24    8   25 1   
    25    9   10 1   
    26    9   26 1   
    27    9   27 1   
    28   10   28 1   
    29   10   29 1   
@<TRIPOS>SUBSTRUCTURE
     1 DIX         1 TEMP              0 ****  ****    0 ROOT
