@<TRIPOS>MOLECULE
DIX
   30    30     1     0     0
SMALL
bcc


@<TRIPOS>ATOM
      1 N           0.0650   -0.1340   -0.0330 n4        1 DIX     -0.759000
      2 CM          1.5420   -0.1150   -0.1200 c3        1 DIX      0.077100
      3 C3         -0.4200    0.0010    1.3780 c3        1 DIX      0.099800
      4 C2         -1.9390   -0.0170    1.4730 c3        1 DIX     -0.112400
      5 C1         -2.3500    0.1220    2.9280 c3        1 DIX     -0.071400
      6 C1'        -3.8600    0.1540    3.0650 c3        1 DIX     -0.070700
      7 C2'        -4.2840    0.1150    4.5350 c3        1 DIX     -0.076900
      8 C5'        -4.4890    1.4170    2.4750 c3        1 DIX     -0.076900
      9 C4'        -5.6550    1.7950    3.3780 c3        1 DIX     -0.079400
     10 C3'        -5.5330    0.9760    4.6570 c3        1 DIX     -0.079400
     11 HN         -0.2920   -1.0140   -0.4230 hn        1 DIX      0.453800
     12 HM1         1.9310    0.8560    0.2910 hx        1 DIX      0.111367
     13 HM2         1.9660   -0.9670    0.4770 hx        1 DIX      0.111367
     14 HM3         1.8520   -0.2190   -1.1960 hx        1 DIX      0.111367
     15 H31        -0.0160    0.9710    1.7890 hx        1 DIX      0.108700
     16 H32         0.0170   -0.8510    1.9750 hx        1 DIX      0.108700
     17 H21        -2.3840    0.8300    0.8840 hc        1 DIX      0.069200
     18 H22        -2.3480   -0.9770    1.0600 hc        1 DIX      0.069200
     19 H11        -1.9110    1.0610    3.3590 hc        1 DIX      0.056700
     20 H12        -1.9460   -0.7430    3.5180 hc        1 DIX      0.056700
     21 H1'        -4.2890   -0.7440    2.5410 hc        1 DIX      0.054700
     22 H2'1       -4.4830   -0.9360    4.8600 hc        1 DIX      0.042200
     23 H2'2       -3.4690    0.5200    5.1870 hc        1 DIX      0.042200
     24 H5'1       -3.7400    2.2490    2.4430 hc        1 DIX      0.042200
     25 H5'2       -4.8350    1.2350    1.4270 hc        1 DIX      0.042200
     26 H4'1       -5.6350    2.8910    3.6040 hc        1 DIX      0.053450
     27 H4'2       -6.6280    1.5800    2.8690 hc        1 DIX      0.053450
     28 H3'1       -6.4380    0.3320    4.7930 hc        1 DIX      0.053450
     29 H3'2       -5.4640    1.6430    5.5520 hc        1 DIX      0.053450
     30 HN3        -0.3230    0.6360   -0.5920 hn        1 DIX      0.453800
@<TRIPOS>BOND
     1    1    2 1   
     2    1    3 1   
     3    1   11 1   
     4    1   30 1   
     5    2   12 1   
     6    2   13 1   
     7    2   14 1   
     8    3    4 1   
     9    3   15 1   
    10    3   16 1   
    11    4    5 1   
    12    4   17 1   
    13    4   18 1   
    14    5    6 1   
    15    5   19 1   
    16    5   20 1   
    17    6    7 1   
    18    6    8 1   
    19    6   21 1   
    20    7   10 1   
    21    7   22 1   
    22    7   23 1   
    23    8    9 1   
    24    8   24 1   
    25    8   25 1   
    26    9   10 1   
    27    9   26 1   
    28    9   27 1   
    29   10   28 1   
    30   10   29 1   
@<TRIPOS>SUBSTRUCTURE
     1 DIX         1 TEMP              0 ****  ****    0 ROOT
