@<TRIPOS>MOLECULE
DIX
   29    29     1     0     0
SMALL
bcc


@<TRIPOS>ATOM
      1 N           2.6000   -0.1050   -2.4340 n3        1 DIX     -0.826200
      2 CM          4.0400   -0.1240   -2.3280 c3        1 DIX      0.153100
      3 C3          2.0220   -0.3260   -1.1380 c3        1 DIX      0.161800
      4 C2          0.5800    0.1650   -1.1330 c3        1 DIX     -0.084400
      5 C1         -0.0410   -0.0760    0.2600 c3        1 DIX     -0.071400
      6 C1'        -1.5160    0.4320    0.2670 c3        1 DIX     -0.065700
      7 C2'        -2.5290   -0.7770    0.7410 c3        1 DIX     -0.076900
      8 C5'        -1.6540    1.3830    1.1370 c3        1 DIX     -0.076900
      9 C4'        -2.1110    0.6510    2.4870 c3        1 DIX     -0.078400
     10 C3'        -2.4810   -0.8010    2.0700 c3        1 DIX     -0.078400
     11 HN          2.3270   -0.7640   -3.0060 hn        1 DIX      0.355800
     12 HM1         4.4360   -0.0250   -3.2230 h1        1 DIX      0.028367
     13 HM2         4.3290   -0.9770   -1.9340 h1        1 DIX      0.028367
     14 HM3         4.3370    0.6190   -1.7550 h1        1 DIX      0.028367
     15 H31         2.5360    0.1640   -0.4640 h1        1 DIX      0.028200
     16 H32         2.0420   -1.2790   -0.9330 h1        1 DIX      0.028200
     17 H21         0.0690   -0.3210   -1.8060 hc        1 DIX      0.046700
     18 H22         0.5610    1.1220   -1.3370 hc        1 DIX      0.046700
     19 H11         0.4770    0.4120    0.9390 hc        1 DIX      0.041200
     20 H12        -0.0240   -1.0300    0.4630 hc        1 DIX      0.041200
     21 H1'        -1.7670    0.7510   -0.6240 hc        1 DIX      0.047700
     22 H2'1       -3.4480   -0.5860    0.4380 hc        1 DIX      0.041700
     23 H2'2       -2.2240   -1.6320    0.3770 hc        1 DIX      0.041700
     24 H5'1       -0.7990    1.8470    1.2730 hc        1 DIX      0.041700
     25 H5'2       -2.3430    2.0160    0.8430 hc        1 DIX      0.041700
     26 H4'1       -1.3730    0.6400    3.1330 hc        1 DIX      0.039450
     27 H4'2       -2.8900    1.1020    2.8710 hc        1 DIX      0.039450
     28 H3'1       -1.7930   -1.4300    2.3750 hc        1 DIX      0.039450
     29 H3'2       -3.3640   -1.0500    2.4410 hc        1 DIX      0.039450
@<TRIPOS>BOND
     1    1    2 1   
     2    1    3 1   
     3    1   11 1   
     4    2   12 1   
     5    2   13 1   
     6    2   14 1   
     7    3    4 1   
     8    3   15 1   
     9    3   16 1   
    10    4    5 1   
    11    4   17 1   
    12    4   18 1   
    13    5    6 1   
    14    5   19 1   
    15    5   20 1   
    16    6    7 1   
    17    6    8 1   
    18    6   21 1   
    19    7   10 1   
    20    7   22 1   
    21    7   23 1   
    22    8    9 1   
    23    8   24 1   
    24    8   25 1   
    25    9   10 1   
    26    9   26 1   
    27    9   27 1   
    28   10   28 1   
    29   10   29 1   
@<TRIPOS>SUBSTRUCTURE
     1 DIX         1 TEMP              0 ****  ****    0 ROOT
