@<TRIPOS>MOLECULE
DIY
   29    29     1     0     0
SMALL
bcc


@<TRIPOS>ATOM
      1 N1          0.1650    0.0890   -0.2040 n3        1 DIY     -0.820200
      2 C2          1.5790   -0.1100    0.0450 c3        1 DIY      0.163800
      3 C6         -0.3790    1.2880    0.4030 c3        1 DIY      0.166800
      4 C3          1.9420   -0.0260    1.5270 c3        1 DIY     -0.077400
      5 C4          1.4180    1.2520    2.1440 c3        1 DIY     -0.075400
      6 C5         -0.0780    1.3940    1.9050 c3        1 DIY     -0.064700
      7 C1'        -0.5790    2.7170    2.4600 c3        1 DIY     -0.076400
      8 C2'        -2.0880    2.7610    2.5750 c3        1 DIY     -0.079400
      9 C3'        -2.5520    4.0610    3.1970 c3        1 DIY     -0.080400
     10 C4'        -4.0540    4.1160    3.3060 c3        1 DIY     -0.092100
     11 HN1        -0.0060    0.1040   -1.1930 hn        1 DIY      0.360800
     12 H21         2.2170    0.6390   -0.5130 h1        1 DIY      0.025200
     13 H22         1.8440   -1.1340   -0.3410 h1        1 DIY      0.025200
     14 H61        -1.4960    1.2550    0.2560 h1        1 DIY      0.027200
     15 H62         0.0030    2.2270   -0.0980 h1        1 DIY      0.027200
     16 H31         3.0570   -0.0720    1.6250 hc        1 DIY      0.046200
     17 H32         1.5140   -0.9090    2.0700 hc        1 DIY      0.046200
     18 H41         1.6260    1.2520    3.2460 hc        1 DIY      0.039700
     19 H42         1.9510    2.1340    1.7010 hc        1 DIY      0.039700
     20 H5         -0.6060    0.5520    2.4360 hc        1 DIY      0.061700
     21 H1'1       -0.1290    2.8760    3.4770 hc        1 DIY      0.040700
     22 H1'2       -0.2260    3.5590    1.8090 hc        1 DIY      0.040700
     23 H2'1       -2.5500    2.6470    1.5600 hc        1 DIY      0.041700
     24 H2'2       -2.4450    1.8990    3.1990 hc        1 DIY      0.041700
     25 H3'1       -2.1870    4.9230    2.5780 hc        1 DIY      0.038200
     26 H3'2       -2.0960    4.1720    4.2160 hc        1 DIY      0.038200
     27 H4'1       -4.3750    5.0810    3.7690 hc        1 DIY      0.033033
     28 H4'2       -4.4340    3.2780    3.9380 hc        1 DIY      0.033033
     29 H4'3       -4.5260    4.0350    2.2970 hc        1 DIY      0.033033
@<TRIPOS>BOND
     1    1    2 1   
     2    1    3 1   
     3    1   11 1   
     4    2    4 1   
     5    2   12 1   
     6    2   13 1   
     7    3    6 1   
     8    3   14 1   
     9    3   15 1   
    10    4    5 1   
    11    4   16 1   
    12    4   17 1   
    13    5    6 1   
    14    5   18 1   
    15    5   19 1   
    16    6    7 1   
    17    6   20 1   
    18    7    8 1   
    19    7   21 1   
    20    7   22 1   
    21    8    9 1   
    22    8   23 1   
    23    8   24 1   
    24    9   10 1   
    25    9   25 1   
    26    9   26 1   
    27   10   27 1   
    28   10   28 1   
    29   10   29 1   
@<TRIPOS>SUBSTRUCTURE
     1 DIY         1 TEMP              0 ****  ****    0 ROOT
