@<TRIPOS>MOLECULE
DIY
   29    29     1     0     0
SMALL
bcc


@<TRIPOS>ATOM
      1 N1         -1.4900    0.0150   -2.1980 n3        1 DIY     -0.820200
      2 C2         -0.4870    0.2160   -3.2240 c3        1 DIY      0.163800
      3 C6         -1.0650    0.4130   -0.8700 c3        1 DIY      0.166800
      4 C3          0.8650   -0.4000   -2.8680 c3        1 DIY     -0.077400
      5 C4          1.3300    0.0620   -1.5040 c3        1 DIY     -0.075400
      6 C5          0.2700   -0.2180   -0.4490 c3        1 DIY     -0.064700
      7 C1'         0.7140    0.3180    0.9020 c3        1 DIY     -0.076400
      8 C2'        -0.1130   -0.2360    2.0430 c3        1 DIY     -0.079400
      9 C3'         0.3960    0.2630    3.3800 c3        1 DIY     -0.080400
     10 C4'        -0.4270   -0.2780    4.5200 c3        1 DIY     -0.092100
     11 HN1        -2.3310    0.5040   -2.4440 hn        1 DIY      0.360800
     12 H21        -0.3240    1.3130   -3.4470 h1        1 DIY      0.025200
     13 H22        -0.8740   -0.2660   -4.1670 h1        1 DIY      0.025200
     14 H61        -1.8680    0.0810   -0.1530 h1        1 DIY      0.027200
     15 H62        -0.9670    1.5360   -0.7760 h1        1 DIY      0.027200
     16 H31         1.6100   -0.1010   -3.6490 hc        1 DIY      0.046200
     17 H32         0.7840   -1.5180   -2.8800 hc        1 DIY      0.046200
     18 H41         1.5490    1.1610   -1.5300 hc        1 DIY      0.039700
     19 H42         2.2810   -0.4650   -1.2320 hc        1 DIY      0.039700
     20 H5          0.1300   -1.3330   -0.3700 hc        1 DIY      0.062700
     21 H1'1        0.6550    1.4380    0.9030 hc        1 DIY      0.040700
     22 H1'2        1.7910    0.0440    1.0630 hc        1 DIY      0.040700
     23 H2'1       -0.0800   -1.3570    2.0240 hc        1 DIY      0.041700
     24 H2'2       -1.1860    0.0660    1.9170 hc        1 DIY      0.041700
     25 H3'1        0.3700    1.3840    3.3950 hc        1 DIY      0.038200
     26 H3'2        1.4680   -0.0440    3.5100 hc        1 DIY      0.038200
     27 H4'1       -0.0340    0.1000    5.4950 hc        1 DIY      0.033033
     28 H4'2       -1.4930    0.0390    4.4230 hc        1 DIY      0.033033
     29 H4'3       -0.3950   -1.3940    4.5350 hc        1 DIY      0.033033
@<TRIPOS>BOND
     1    1    2 1   
     2    1    3 1   
     3    1   11 1   
     4    2    4 1   
     5    2   12 1   
     6    2   13 1   
     7    3    6 1   
     8    3   14 1   
     9    3   15 1   
    10    4    5 1   
    11    4   16 1   
    12    4   17 1   
    13    5    6 1   
    14    5   18 1   
    15    5   19 1   
    16    6    7 1   
    17    6   20 1   
    18    7    8 1   
    19    7   21 1   
    20    7   22 1   
    21    8    9 1   
    22    8   23 1   
    23    8   24 1   
    24    9   10 1   
    25    9   25 1   
    26    9   26 1   
    27   10   27 1   
    28   10   28 1   
    29   10   29 1   
@<TRIPOS>SUBSTRUCTURE
     1 DIY         1 TEMP              0 ****  ****    0 ROOT
