@<TRIPOS>MOLECULE
DIY
   29    29     1     0     0
SMALL
bcc


@<TRIPOS>ATOM
      1 N1          0.1660    0.0830   -0.1980 n3        1 DIY     -0.820200
      2 C2          1.5790   -0.1200    0.0570 c3        1 DIY      0.163800
      3 C6         -0.3760    1.2850    0.4040 c3        1 DIY      0.166800
      4 C3          1.9360   -0.0350    1.5400 c3        1 DIY     -0.077400
      5 C4          1.4150    1.2470    2.1520 c3        1 DIY     -0.075400
      6 C5         -0.0800    1.3930    1.9080 c3        1 DIY     -0.064700
      7 C1'        -0.5790    2.7190    2.4580 c3        1 DIY     -0.076400
      8 C2'        -2.0870    2.7660    2.5700 c3        1 DIY     -0.079400
      9 C3'        -2.5500    4.0710    3.1850 c3        1 DIY     -0.080400
     10 C4'        -4.0520    4.1290    3.2920 c3        1 DIY     -0.092100
     11 HN1        -0.0020    0.0960   -1.1880 hn        1 DIY      0.360800
     12 H21         2.2210    0.6250   -0.5010 h1        1 DIY      0.025200
     13 H22         1.8420   -1.1470   -0.3260 h1        1 DIY      0.025200
     14 H61        -1.4920    1.2550    0.2540 h1        1 DIY      0.027200
     15 H62         0.0110    2.2220   -0.0970 h1        1 DIY      0.027200
     16 H31         3.0510   -0.0840    1.6410 hc        1 DIY      0.046200
     17 H32         1.5040   -0.9150    2.0830 hc        1 DIY      0.046200
     18 H41         1.9530    2.1260    1.7080 hc        1 DIY      0.039700
     19 H42         1.6190    1.2490    3.2540 hc        1 DIY      0.039700
     20 H5         -0.6120    0.5540    2.4380 hc        1 DIY      0.062700
     21 H1'1       -0.2230    3.5590    1.8050 hc        1 DIY      0.040700
     22 H1'2       -0.1300    2.8790    3.4750 hc        1 DIY      0.040700
     23 H2'1       -2.5490    2.6490    1.5540 hc        1 DIY      0.041700
     24 H2'2       -2.4470    1.9080    3.1980 hc        1 DIY      0.041700
     25 H3'1       -2.0950    4.1860    4.2040 hc        1 DIY      0.038200
     26 H3'2       -2.1830    4.9280    2.5610 hc        1 DIY      0.038200
     27 H4'1       -4.5230    4.0420    2.2840 hc        1 DIY      0.033033
     28 H4'2       -4.4340    3.2950    3.9300 hc        1 DIY      0.033033
     29 H4'3       -4.3710    5.0970    3.7490 hc        1 DIY      0.033033
@<TRIPOS>BOND
     1    1    2 1   
     2    1    3 1   
     3    1   11 1   
     4    2    4 1   
     5    2   12 1   
     6    2   13 1   
     7    3    6 1   
     8    3   14 1   
     9    3   15 1   
    10    4    5 1   
    11    4   16 1   
    12    4   17 1   
    13    5    6 1   
    14    5   18 1   
    15    5   19 1   
    16    6    7 1   
    17    6   20 1   
    18    7    8 1   
    19    7   21 1   
    20    7   22 1   
    21    8    9 1   
    22    8   23 1   
    23    8   24 1   
    24    9   10 1   
    25    9   25 1   
    26    9   26 1   
    27   10   27 1   
    28   10   28 1   
    29   10   29 1   
@<TRIPOS>SUBSTRUCTURE
     1 DIY         1 TEMP              0 ****  ****    0 ROOT
