@<TRIPOS>MOLECULE
DIY
   29    29     1     0     0
SMALL
bcc


@<TRIPOS>ATOM
      1 N1          0.1630    0.0930   -0.2090 n7        1 DIY     -0.820200
      2 C2          1.5770   -0.1070    0.0390 c3        1 DIY      0.163800
      3 C6         -0.3810    1.2910    0.4010 c3        1 DIY      0.166800
      4 C3          1.9400   -0.0270    1.5210 c3        1 DIY     -0.077400
      5 C4          1.4180    1.2500    2.1410 c3        1 DIY     -0.075400
      6 C5         -0.0790    1.3930    1.9040 c3        1 DIY     -0.064700
      7 C1'        -0.5780    2.7160    2.4620 c3        1 DIY     -0.076400
      8 C2'        -2.0870    2.7600    2.5780 c3        1 DIY     -0.079400
      9 C3'        -2.5500    4.0590    3.2030 c3        1 DIY     -0.080400
     10 C4'        -4.0520    4.1150    3.3130 c3        1 DIY     -0.093100
     11 HN1        -0.0090    0.1100   -1.1970 hn        1 DIY      0.360800
     12 H21         1.8410   -1.1310   -0.3490 h1        1 DIY      0.025200
     13 H22         2.2140    0.6420   -0.5180 h1        1 DIY      0.025200
     14 H61         0.0020    2.2310   -0.0980 h1        1 DIY      0.027200
     15 H62        -1.4970    1.2590    0.2550 h1        1 DIY      0.027200
     16 H31         3.0550   -0.0730    1.6180 hc        1 DIY      0.046200
     17 H32         1.5120   -0.9110    2.0620 hc        1 DIY      0.046200
     18 H41         1.9520    2.1320    1.6990 hc        1 DIY      0.039700
     19 H42         1.6260    1.2480    3.2430 hc        1 DIY      0.039700
     20 H5         -0.6060    0.5510    2.4330 hc        1 DIY      0.061700
     21 H1'1       -0.2250    3.5590    1.8120 hc        1 DIY      0.040700
     22 H1'2       -0.1280    2.8720    3.4790 hc        1 DIY      0.040700
     23 H2'1       -2.4430    1.8970    3.2010 hc        1 DIY      0.041700
     24 H2'2       -2.5500    2.6480    1.5630 hc        1 DIY      0.041700
     25 H3'1       -2.0930    4.1680    4.2220 hc        1 DIY      0.038200
     26 H3'2       -2.1850    4.9220    2.5850 hc        1 DIY      0.038200
     27 H4'1       -4.4320    3.2760    3.9450 hc        1 DIY      0.033033
     28 H4'2       -4.3710    5.0790    3.7770 hc        1 DIY      0.033033
     29 H4'3       -4.5240    4.0360    2.3040 hc        1 DIY      0.033033
@<TRIPOS>BOND
     1    1    2 1   
     2    1    3 1   
     3    1   11 1   
     4    2    4 1   
     5    2   12 1   
     6    2   13 1   
     7    3    6 1   
     8    3   14 1   
     9    3   15 1   
    10    4    5 1   
    11    4   16 1   
    12    4   17 1   
    13    5    6 1   
    14    5   18 1   
    15    5   19 1   
    16    6    7 1   
    17    6   20 1   
    18    7    8 1   
    19    7   21 1   
    20    7   22 1   
    21    8    9 1   
    22    8   23 1   
    23    8   24 1   
    24    9   10 1   
    25    9   25 1   
    26    9   26 1   
    27   10   27 1   
    28   10   28 1   
    29   10   29 1   
@<TRIPOS>SUBSTRUCTURE
     1 DIY         1 TEMP              0 ****  ****    0 ROOT
