@<TRIPOS>MOLECULE
DIY
   29    29     1     0     0
SMALL
bcc


@<TRIPOS>ATOM
      1 N1          0.2790   -1.4640   -2.7100 n3        1 DIY     -0.819200
      2 C2          1.7430   -1.4640   -2.7100 c3        1 DIY      0.163800
      3 C6         -0.2880   -0.4060   -1.8780 c3        1 DIY      0.165800
      4 C3          2.3230   -1.4640   -1.3110 c3        1 DIY     -0.077400
      5 C4          1.7590   -0.3970   -0.4710 c3        1 DIY     -0.075400
      6 C5          0.2840   -0.4030   -0.4750 c3        1 DIY     -0.064700
      7 C1'        -0.2270    0.8670    0.2740 c3        1 DIY     -0.076400
      8 C2'        -1.0470    0.4430    1.5030 c3        1 DIY     -0.079400
      9 C3'        -1.6190    1.6870    2.1900 c3        1 DIY     -0.080400
     10 C4'        -2.3450    1.2760    3.4640 c3        1 DIY     -0.092100
     11 HN1        -0.0250   -1.3740   -3.5650 hn        1 DIY      0.360800
     12 H21         2.0590   -0.6700   -3.1820 h1        1 DIY      0.025700
     13 H22         2.0580   -2.2580   -3.1820 h1        1 DIY      0.025700
     14 H61        -1.2540   -0.5310   -1.8250 h1        1 DIY      0.026200
     15 H62        -0.1040    0.4570   -2.2960 h1        1 DIY      0.026200
     16 H31         2.1380   -2.3260   -0.8930 hc        1 DIY      0.046200
     17 H32         3.2890   -1.3420   -1.3700 hc        1 DIY      0.046200
     18 H41         2.0730   -0.5170    0.4460 hc        1 DIY      0.040200
     19 H42         2.0730    0.4660   -0.8020 hc        1 DIY      0.040200
     20 H5         -0.0300   -1.1970   -0.0030 hc        1 DIY      0.061700
     21 H1'1        0.5360    1.4040    0.5620 hc        1 DIY      0.039700
     22 H1'2       -0.7880    1.3950   -0.3250 hc        1 DIY      0.039700
     23 H2'1       -0.4720   -0.0380    2.1280 hc        1 DIY      0.041200
     24 H2'2       -1.7790   -0.1380    1.2210 hc        1 DIY      0.041200
     25 H3'1       -0.8920    2.2990    2.4130 hc        1 DIY      0.038200
     26 H3'2       -2.2460    2.1320    1.5880 hc        1 DIY      0.038200
     27 H4'1       -2.7290    2.0660    3.8890 hc        1 DIY      0.032700
     28 H4'2       -3.0570    0.6460    3.2440 hc        1 DIY      0.032700
     29 H4'3       -1.7130    0.8520    4.0760 hc        1 DIY      0.032700
@<TRIPOS>BOND
     1    1    2 1   
     2    1    3 1   
     3    1   11 1   
     4    2    4 1   
     5    2   12 1   
     6    2   13 1   
     7    3    6 1   
     8    3   14 1   
     9    3   15 1   
    10    4    5 1   
    11    4   16 1   
    12    4   17 1   
    13    5    6 1   
    14    5   18 1   
    15    5   19 1   
    16    6    7 1   
    17    6   20 1   
    18    7    8 1   
    19    7   21 1   
    20    7   22 1   
    21    8    9 1   
    22    8   23 1   
    23    8   24 1   
    24    9   10 1   
    25    9   25 1   
    26    9   26 1   
    27   10   27 1   
    28   10   28 1   
    29   10   29 1   
@<TRIPOS>SUBSTRUCTURE
     1 DIY         1 TEMP              0 ****  ****    0 ROOT
