@<TRIPOS>MOLECULE
DIZ
   46    49     1     0     0
SMALL
bcc


@<TRIPOS>ATOM
      1 CL1         0.0720    0.2580    0.7620 cl        1 DIZ     -0.141400
      2 C1          1.7470    0.1690    0.4300 ca        1 DIZ      0.010400
      3 C2          2.6610    0.6860    1.3510 ca        1 DIZ     -0.145500
      4 C3          4.0230    0.6110    1.0740 ca        1 DIZ     -0.112000
      5 C4          4.4830    0.0230   -0.1130 ca        1 DIZ     -0.074300
      6 C5          3.5550   -0.4890   -1.0250 ca        1 DIZ     -0.112000
      7 C6          2.1880   -0.4200   -0.7570 ca        1 DIZ     -0.145500
      8 C7          5.9730   -0.0670   -0.3490 c3        1 DIZ     -0.009000
      9 C8          6.3420   -1.3380   -1.2120 c         1 DIZ      0.923600
     10 O1          5.9660   -1.3950   -2.4170 o         1 DIZ     -0.805300
     11 O2          6.9780   -2.2290   -0.6020 o         1 DIZ     -0.805300
     12 N1          6.5400    1.1910   -0.8440 n         1 DIZ     -0.412800
     13 C9          6.9960    2.1110    0.0870 c         1 DIZ      0.703100
     14 O3          6.9100    1.8760    1.3160 o         1 DIZ     -0.662500
     15 C10         7.6110    3.4100   -0.3230 ca        1 DIZ     -0.162600
     16 C11         7.3660    4.4920    0.5370 ca        1 DIZ     -0.020000
     17 C12         7.9760    5.7240    0.3380 ca        1 DIZ     -0.022100
     18 I1          7.5900    7.2720    1.5760 i         1 DIZ     -0.159900
     19 C13         8.8710    5.8830   -0.7220 ca        1 DIZ     -0.059000
     20 C14         9.1270    4.8320   -1.5860 ca        1 DIZ     -0.201000
     21 C15         8.4830    3.5750   -1.4200 ca        1 DIZ      0.132600
     22 N2          8.7650    2.5570   -2.3300 n         1 DIZ     -0.474100
     23 C16         7.8260    1.6930   -2.8990 c         1 DIZ      0.703500
     24 O4          8.1580    1.1110   -3.9430 o         1 DIZ     -0.604500
     25 C17         6.4440    1.4900   -2.2490 c3        1 DIZ      0.064000
     26 C18         5.5370    2.6310   -2.6520 ca        1 DIZ     -0.083300
     27 C19         5.6700    3.1850   -3.9330 ca        1 DIZ     -0.115500
     28 C20         4.8160    4.1960   -4.3650 ca        1 DIZ     -0.125000
     29 C21         3.8070    4.6550   -3.5130 ca        1 DIZ      0.011400
     30 CL2         2.7640    5.8990   -4.0330 cl        1 DIZ     -0.121400
     31 C22         3.6450    4.0960   -2.2440 ca        1 DIZ     -0.125000
     32 C23         4.5070    3.0850   -1.8210 ca        1 DIZ     -0.115500
     33 H2          2.3110    1.1440    2.2880 ha        1 DIZ      0.133500
     34 H3          4.7570    1.0130    1.7940 ha        1 DIZ      0.175500
     35 H5          3.9160   -0.9630   -1.9580 ha        1 DIZ      0.175500
     36 H6          1.4660   -0.8310   -1.4780 ha        1 DIZ      0.133500
     37 H7          6.4610   -0.2580    0.6590 h1        1 DIZ      0.099700
     38 H11         6.6900    4.3250    1.3950 ha        1 DIZ      0.167000
     39 H13         9.3790    6.8470   -0.8840 ha        1 DIZ      0.137000
     40 H14         9.8360    4.9790   -2.4150 ha        1 DIZ      0.135000
     41 HN2         9.6270    2.6490   -2.8300 hn        1 DIZ      0.314500
     42 H17         6.0200    0.5460   -2.7660 h1        1 DIZ      0.201700
     43 H19         6.4480    2.8080   -4.6180 ha        1 DIZ      0.155500
     44 H20         4.9330    4.6220   -5.3720 ha        1 DIZ      0.141500
     45 H22         2.8400    4.4440   -1.5790 ha        1 DIZ      0.141500
     46 H23         4.3500    2.6320   -0.8260 ha        1 DIZ      0.155500
@<TRIPOS>BOND
     1    1    2 1   
     2    2    3 ar  
     3    2    7 ar  
     4    3    4 ar  
     5    3   33 1   
     6    4    5 ar  
     7    4   34 1   
     8    5    6 ar  
     9    5    8 1   
    10    6    7 ar  
    11    6   35 1   
    12    7   36 1   
    13    8    9 1   
    14    8   12 1   
    15    8   37 1   
    16    9   10 1   
    17    9   11 1   
    18   12   13 1   
    19   12   25 1   
    20   13   14 2   
    21   13   15 1   
    22   15   16 ar  
    23   15   21 ar  
    24   16   17 ar  
    25   16   38 1   
    26   17   18 1   
    27   17   19 ar  
    28   19   20 ar  
    29   19   39 1   
    30   20   21 ar  
    31   20   40 1   
    32   21   22 1   
    33   22   23 1   
    34   22   41 1   
    35   23   24 2   
    36   23   25 1   
    37   25   26 1   
    38   25   42 1   
    39   26   27 ar  
    40   26   32 ar  
    41   27   28 ar  
    42   27   43 1   
    43   28   29 ar  
    44   28   44 1   
    45   29   30 1   
    46   29   31 ar  
    47   31   32 ar  
    48   31   45 1   
    49   32   46 1   
@<TRIPOS>SUBSTRUCTURE
     1 DIZ         1 TEMP              0 ****  ****    0 ROOT
