@<TRIPOS>MOLECULE
DIZ
   46    49     1     0     0
SMALL
bcc


@<TRIPOS>ATOM
      1 CL1        -5.1760   -3.8330   -1.7430 cl        1 DIZ     -0.141400
      2 C1         -4.5130   -2.2840   -1.4550 ca        1 DIZ      0.010400
      3 C2         -3.5630   -1.7650   -2.3390 ca        1 DIZ     -0.145500
      4 C3         -3.0260   -0.5030   -2.0970 ca        1 DIZ     -0.112000
      5 C4         -3.4290    0.2470   -0.9830 ca        1 DIZ     -0.074300
      6 C5         -4.3800   -0.2870   -0.1080 ca        1 DIZ     -0.112000
      7 C6         -4.9250   -1.5500   -0.3410 ca        1 DIZ     -0.145500
      8 C7         -2.8440    1.6270   -0.7870 c3        1 DIZ     -0.009000
      9 C8         -3.8670    2.5870   -0.0610 c         1 DIZ      0.923600
     10 O1         -4.1860    2.3550    1.1390 o         1 DIZ     -0.805300
     11 O2         -4.3170    3.5180   -0.7690 o         1 DIZ     -0.805300
     12 N1         -1.5090    1.5880   -0.1820 n         1 DIZ     -0.412800
     13 C9         -0.4130    1.5170   -1.0250 c         1 DIZ      0.703100
     14 O3         -0.5630    1.4700   -2.2690 o         1 DIZ     -0.662500
     15 C10         0.9870    1.4980   -0.5010 ca        1 DIZ     -0.162600
     16 C11         1.9000    0.7340   -1.2450 ca        1 DIZ     -0.020000
     17 C12         3.2550    0.7270   -0.9370 ca        1 DIZ     -0.022100
     18 I1          4.5460   -0.3970   -2.0070 i         1 DIZ     -0.159900
     19 C13         3.7230    1.5180    0.1160 ca        1 DIZ     -0.059000
     20 C14         2.8410    2.2770    0.8670 ca        1 DIZ     -0.201000
     21 C15         1.4460    2.2660    0.5900 ca        1 DIZ      0.132600
     22 N2          0.6040    3.0380    1.3890 n         1 DIZ     -0.474100
     23 C16        -0.6370    2.6320    1.8880 c         1 DIZ      0.703500
     24 O4         -1.0830    3.2580    2.8620 o         1 DIZ     -0.604500
     25 C17        -1.4000    1.4560    1.2480 c3        1 DIZ      0.064000
     26 C18        -0.8380    0.1570    1.7800 ca        1 DIZ     -0.083300
     27 C19        -0.3880    0.1030    3.1070 ca        1 DIZ     -0.115500
     28 C20         0.0800   -1.0880    3.6540 ca        1 DIZ     -0.125000
     29 C21         0.0910   -2.2460    2.8720 ca        1 DIZ      0.011400
     30 CL2         0.6730   -3.7070    3.5330 cl        1 DIZ     -0.121400
     31 C22        -0.3770   -2.2160    1.5560 ca        1 DIZ     -0.125000
     32 C23        -0.8430   -1.0170    1.0180 ca        1 DIZ     -0.115500
     33 H2         -3.2450   -2.3430   -3.2180 ha        1 DIZ      0.133500
     34 H3         -2.2770   -0.0800   -2.7880 ha        1 DIZ      0.175500
     35 H5         -4.7080    0.3090    0.7660 ha        1 DIZ      0.175500
     36 H6         -5.6770   -1.9580    0.3490 ha        1 DIZ      0.133500
     37 H7         -2.7090    2.0840   -1.8190 h1        1 DIZ      0.099700
     38 H11         1.5100    0.1560   -2.1020 ha        1 DIZ      0.167000
     39 H13         4.7960    1.5400    0.3620 ha        1 DIZ      0.137000
     40 H14         3.2310    2.8920    1.6920 ha        1 DIZ      0.135000
     41 HN2         1.0410    3.7920    1.8780 hn        1 DIZ      0.314500
     42 H17        -2.4700    1.5410    1.6780 h1        1 DIZ      0.201700
     43 H19        -0.4190    1.0090    3.7350 ha        1 DIZ      0.155500
     44 H20         0.4320   -1.1150    4.6950 ha        1 DIZ      0.141500
     45 H22        -0.3860   -3.1310    0.9450 ha        1 DIZ      0.141500
     46 H23        -1.2370   -1.0130   -0.0130 ha        1 DIZ      0.155500
@<TRIPOS>BOND
     1    1    2 1   
     2    2    3 ar  
     3    2    7 ar  
     4    3    4 ar  
     5    3   33 1   
     6    4    5 ar  
     7    4   34 1   
     8    5    6 ar  
     9    5    8 1   
    10    6    7 ar  
    11    6   35 1   
    12    7   36 1   
    13    8    9 1   
    14    8   12 1   
    15    8   37 1   
    16    9   10 1   
    17    9   11 1   
    18   12   13 1   
    19   12   25 1   
    20   13   14 2   
    21   13   15 1   
    22   15   16 ar  
    23   15   21 ar  
    24   16   17 ar  
    25   16   38 1   
    26   17   18 1   
    27   17   19 ar  
    28   19   20 ar  
    29   19   39 1   
    30   20   21 ar  
    31   20   40 1   
    32   21   22 1   
    33   22   23 1   
    34   22   41 1   
    35   23   24 2   
    36   23   25 1   
    37   25   26 1   
    38   25   42 1   
    39   26   27 ar  
    40   26   32 ar  
    41   27   28 ar  
    42   27   43 1   
    43   28   29 ar  
    44   28   44 1   
    45   29   30 1   
    46   29   31 ar  
    47   31   32 ar  
    48   31   45 1   
    49   32   46 1   
@<TRIPOS>SUBSTRUCTURE
     1 DIZ         1 TEMP              0 ****  ****    0 ROOT
