@<TRIPOS>MOLECULE
DIZ
   46    43     1     0     0
SMALL
bcc


@<TRIPOS>ATOM
      1 CL1         0.9610   -2.7670    5.3520 cl        1 DIZ     -0.071000
      2 C1          0.6520   -2.0630    3.7800 c2        1 DIZ     -0.065000
      3 C2          0.6970   -2.8760    2.6250 c2        1 DIZ     -0.146000
      4 C3          0.3550   -2.3390    1.3790 c1        1 DIZ     -0.116000
      5 C4         -0.0300   -1.0000    1.2770 c1        1 DIZ     -0.020000
      6 C5         -0.0750   -0.1870    2.4350 c1        1 DIZ     -0.069000
      7 C6          0.2650   -0.7200    3.6780 c1        1 DIZ     -0.137000
      8 C7         -0.5680   -0.4590   -0.0560 c3        1 DIZ     -0.051000
      9 C8         -1.9860   -0.0060    0.1230 c2        1 DIZ      0.319000
     10 O1         -2.3380    0.5050    1.1910 o         1 DIZ     -0.547000
     11 O2         -2.8130   -0.2400   -0.7410 o         1 DIZ     -0.547000
     12 N1          0.2340    0.6460   -0.4820 n         1 DIZ     -0.265000
     13 C9          0.3280    1.7550    0.1540 c2        1 DIZ      0.355000
     14 O3          1.1840    2.5490   -0.1120 o         1 DIZ     -0.335000
     15 C10        -0.7580    2.1190    0.4430 c2        1 DIZ     -0.166000
     16 C11        -1.2480    2.6090    1.7320 c2        1 DIZ     -0.023000
     17 C12        -2.4550    3.2930    1.8020 c1        1 DIZ     -0.312000
     18 I1         -3.1240    4.0600    3.6490 i         1 DIZ      0.120000
     19 C13        -3.2050    3.5150    0.6360 c2        1 DIZ     -0.062000
     20 C14        -2.7270    3.0370   -0.6210 c1        1 DIZ     -0.199000
     21 C15        -1.4910    2.3360   -0.6930 c1        1 DIZ      0.152000
     22 N2         -0.4620    2.7950   -2.0200 n         1 DIZ     -0.323000
     23 C16         0.4980    1.4430   -2.5860 c2        1 DIZ      0.307000
     24 O4          0.7190    1.1800   -3.8080 o         1 DIZ     -0.323000
     25 C17         1.0750    0.5820   -1.3540 c3        1 DIZ      0.064000
     26 C18         1.4560   -0.9530   -1.7710 c2        1 DIZ     -0.082000
     27 C19         2.4330   -1.6450   -1.0570 c2        1 DIZ     -0.111000
     28 C20         2.8650   -2.8810   -1.4960 c1        1 DIZ     -0.151000
     29 C21         2.3260   -3.4360   -2.6510 c1        1 DIZ     -0.055000
     30 CL2         2.9040   -4.9330   -3.2250 cl        1 DIZ     -0.049000
     31 C22         1.3480   -2.7460   -3.3670 c1        1 DIZ     -0.132000
     32 C23         0.9150   -1.5090   -2.9270 c1        1 DIZ     -0.060000
     33 H2          0.9770   -3.8510    2.7000 ha        1 DIZ      0.126000
     34 H3          0.3870   -2.9060    0.5710 ha        1 DIZ      0.127000
     35 H5         -0.3420    0.7380    2.3640 ha        1 DIZ      0.184000
     36 H6          0.3570   -0.1010    4.4870 ha        1 DIZ      0.133000
     37 H7         -0.5330   -1.1820   -0.7450 h1        1 DIZ      0.107000
     38 H11        -0.6620    2.5430    2.5510 ha        1 DIZ      0.164000
     39 H13        -3.9560    4.0960    0.6650 ha        1 DIZ      0.135000
     40 H14        -3.2610    3.1960   -1.4530 ha        1 DIZ      0.137000
     41 HN2        -0.4720    3.6210   -2.4170 hn        1 DIZ      0.249000
     42 H17         1.9250    0.9190   -1.0540 h1        1 DIZ      0.104000
     43 H19         2.8020   -1.2670   -0.2700 ha        1 DIZ      0.128000
     44 H20         3.5720   -3.3810   -0.9780 ha        1 DIZ      0.134000
     45 H22         1.0640   -3.0790   -4.2660 ha        1 DIZ      0.151000
     46 H23         0.2090   -1.0100   -3.4430 ha        1 DIZ      0.218000
@<TRIPOS>BOND
     1    1    2 1   
     2    2    3 1   
     3    2    7 1   
     4    3    4 1   
     5    3   33 1   
     6    4   34 1   
     7    5    6 1   
     8    5    8 1   
     9    6   35 1   
    10    7   36 1   
    11    8    9 1   
    12    8   12 1   
    13    8   37 1   
    14    9   10 1   
    15    9   11 1   
    16   12   13 1   
    17   12   25 1   
    18   13   14 1   
    19   13   15 1   
    20   15   16 1   
    21   15   21 1   
    22   16   17 1   
    23   16   38 1   
    24   17   19 1   
    25   19   20 1   
    26   19   39 1   
    27   20   40 1   
    28   21   22 1   
    29   22   23 1   
    30   22   41 1   
    31   23   24 1   
    32   23   25 1   
    33   25   26 1   
    34   25   42 1   
    35   26   27 1   
    36   26   32 1   
    37   27   28 1   
    38   27   43 1   
    39   28   44 1   
    40   29   30 1   
    41   29   31 1   
    42   31   45 1   
    43   32   46 1   
@<TRIPOS>SUBSTRUCTURE
     1 DIZ         1 TEMP              0 ****  ****    0 ROOT
