@<TRIPOS>MOLECULE
DIZ
   46    49     1     0     0
SMALL
bcc


@<TRIPOS>ATOM
      1 Cl1         0.0690    0.2480    0.7390 cl        1 DIZ     -0.141400
      2 C1          1.7450    0.1610    0.4130 ca        1 DIZ      0.010400
      3 C2          2.6550    0.6780    1.3390 ca        1 DIZ     -0.145500
      4 C3          4.0190    0.6050    1.0660 ca        1 DIZ     -0.112000
      5 C4          4.4840    0.0190   -0.1190 ca        1 DIZ     -0.074300
      6 C5          3.5590   -0.4930   -1.0360 ca        1 DIZ     -0.112000
      7 C6          2.1910   -0.4260   -0.7720 ca        1 DIZ     -0.145500
      8 C7          5.9740   -0.0700   -0.3500 c3        1 DIZ     -0.009000
      9 C8          6.3480   -1.3390   -1.2130 c         1 DIZ      0.923600
     10 O1          5.9770   -1.3950   -2.4190 o         1 DIZ     -0.805300
     11 O2          6.9820   -2.2310   -0.6020 o         1 DIZ     -0.805300
     12 N1          6.5420    1.1900   -0.8410 n         1 DIZ     -0.412800
     13 C9          6.9930    2.1090    0.0920 c         1 DIZ      0.703100
     14 O3          6.9030    1.8730    1.3210 o         1 DIZ     -0.662500
     15 C10         7.6080    3.4100   -0.3140 ca        1 DIZ     -0.162600
     16 C11         7.3590    4.4900    0.5470 ca        1 DIZ     -0.020000
     17 C12         7.9680    5.7230    0.3520 ca        1 DIZ     -0.022100
     18 I1          7.5760    7.2690    1.5900 i         1 DIZ     -0.159900
     19 C13         8.8670    5.8840   -0.7050 ca        1 DIZ     -0.059000
     20 C14         9.1270    4.8340   -1.5690 ca        1 DIZ     -0.201000
     21 C15         8.4840    3.5760   -1.4070 ca        1 DIZ      0.132600
     22 N2          8.7710    2.5600   -2.3170 ns        1 DIZ     -0.474100
     23 C16         7.8350    1.6960   -2.8910 c         1 DIZ      0.703500
     24 O4          8.1710    1.1150   -3.9350 o         1 DIZ     -0.604500
     25 C17         6.4510    1.4900   -2.2460 c3        1 DIZ      0.064000
     26 C18         5.5440    2.6310   -2.6510 ca        1 DIZ     -0.083300
     27 C19         5.6810    3.1860   -3.9310 ca        1 DIZ     -0.115000
     28 C20         4.8270    4.1960   -4.3650 ca        1 DIZ     -0.125000
     29 C21         3.8150    4.6540   -3.5170 ca        1 DIZ      0.011400
     30 Cl2         2.7720    5.8970   -4.0390 cl        1 DIZ     -0.121400
     31 C22         3.6500    4.0940   -2.2480 ca        1 DIZ     -0.125000
     32 C23         4.5110    3.0830   -1.8230 ca        1 DIZ     -0.115000
     33 H2          2.3010    1.1340    2.2750 ha        1 DIZ      0.133500
     34 H3          4.7490    1.0060    1.7900 ha        1 DIZ      0.175500
     35 H5          3.9250   -0.9660   -1.9680 ha        1 DIZ      0.175500
     36 H6          1.4730   -0.8370   -1.4960 ha        1 DIZ      0.133500
     37 H7          6.4590   -0.2610    0.6600 h1        1 DIZ      0.099700
     38 H11         6.6800    4.3210    1.4030 ha        1 DIZ      0.167000
     39 H13         9.3740    6.8490   -0.8640 ha        1 DIZ      0.137000
     40 H14         9.8390    4.9830   -2.3960 ha        1 DIZ      0.135000
     41 HN2         9.6340    2.6540   -2.8140 hn        1 DIZ      0.314500
     42 H17         6.0300    0.5460   -2.7660 h1        1 DIZ      0.201700
     43 H19         6.4610    2.8090   -4.6140 ha        1 DIZ      0.155500
     44 H20         4.9470    4.6230   -5.3720 ha        1 DIZ      0.141500
     45 H22         2.8420    4.4400   -1.5860 ha        1 DIZ      0.141500
     46 H23         4.3510    2.6300   -0.8290 ha        1 DIZ      0.155500
@<TRIPOS>BOND
     1    1    2 1   
     2    2    3 ar  
     3    2    7 ar  
     4    3    4 ar  
     5    3   33 1   
     6    4    5 ar  
     7    4   34 1   
     8    5    6 ar  
     9    5    8 1   
    10    6    7 ar  
    11    6   35 1   
    12    7   36 1   
    13    8    9 1   
    14    8   12 1   
    15    8   37 1   
    16    9   10 1   
    17    9   11 1   
    18   12   13 1   
    19   12   25 1   
    20   13   14 2   
    21   13   15 1   
    22   15   16 ar  
    23   15   21 ar  
    24   16   17 ar  
    25   16   38 1   
    26   17   18 1   
    27   17   19 ar  
    28   19   20 ar  
    29   19   39 1   
    30   20   21 ar  
    31   20   40 1   
    32   21   22 1   
    33   22   23 1   
    34   22   41 1   
    35   23   24 2   
    36   23   25 1   
    37   25   26 1   
    38   25   42 1   
    39   26   27 ar  
    40   26   32 ar  
    41   27   28 ar  
    42   27   43 1   
    43   28   29 ar  
    44   28   44 1   
    45   29   30 1   
    46   29   31 ar  
    47   31   32 ar  
    48   31   45 1   
    49   32   46 1   
@<TRIPOS>SUBSTRUCTURE
     1 DIZ         1 TEMP              0 ****  ****    0 ROOT
