@<TRIPOS>MOLECULE
DIZ
   46    49     1     0     0
SMALL
bcc


@<TRIPOS>ATOM
      1 CL1         0.0680    0.2450    0.7330 cl        1 DIZ     -0.141400
      2 C1          1.7440    0.1570    0.4060 ca        1 DIZ      0.010400
      3 C2          2.6550    0.6680    1.3330 ca        1 DIZ     -0.145500
      4 C3          4.0190    0.5950    1.0590 ca        1 DIZ     -0.112000
      5 C4          4.4820    0.0150   -0.1310 ca        1 DIZ     -0.074300
      6 C5          3.5550   -0.4910   -1.0490 ca        1 DIZ     -0.112000
      7 C6          2.1880   -0.4240   -0.7840 ca        1 DIZ     -0.145500
      8 C7          5.9720   -0.0750   -0.3630 c3        1 DIZ     -0.009000
      9 C8          6.3430   -1.3400   -1.2340 c         1 DIZ      0.923600
     10 O1          5.9710   -1.3890   -2.4400 o         1 DIZ     -0.805300
     11 O2          6.9770   -2.2360   -0.6280 o         1 DIZ     -0.805300
     12 N1          6.5400    1.1870   -0.8480 n         1 DIZ     -0.412800
     13 C9          6.9940    2.0990    0.0900 c         1 DIZ      0.703100
     14 O3          6.9050    1.8570    1.3170 o         1 DIZ     -0.662500
     15 C10         7.6110    3.4020   -0.3090 ca        1 DIZ     -0.162600
     16 C11         7.3640    4.4780    0.5570 ca        1 DIZ     -0.020000
     17 C12         7.9750    5.7110    0.3690 ca        1 DIZ     -0.022100
     18 I1          7.5870    7.2510    1.6160 i         1 DIZ     -0.159900
     19 C13         8.8730    5.8770   -0.6890 ca        1 DIZ     -0.059000
     20 C14         9.1300    4.8320   -1.5590 ca        1 DIZ     -0.201000
     21 C15         8.4860    3.5730   -1.4030 ca        1 DIZ      0.132600
     22 N2          8.7700    2.5620   -2.3190 n         1 DIZ     -0.474100
     23 C16         7.8320    1.7020   -2.8970 c         1 DIZ      0.703500
     24 O4          8.1660    1.1270   -3.9440 o         1 DIZ     -0.604500
     25 C17         6.4480    1.4940   -2.2510 c3        1 DIZ      0.064000
     26 C18         5.5430    2.6390   -2.6480 ca        1 DIZ     -0.083300
     27 C19         5.6790    3.2010   -3.9260 ca        1 DIZ     -0.115500
     28 C20         4.8250    4.2140   -4.3540 ca        1 DIZ     -0.125000
     29 C21         3.8160    4.6690   -3.5010 ca        1 DIZ      0.011400
     30 CL2         2.7740    5.9170   -4.0150 cl        1 DIZ     -0.121400
     31 C22         3.6510    4.1030   -2.2350 ca        1 DIZ     -0.125000
     32 C23         4.5110    3.0880   -1.8170 ca        1 DIZ     -0.115500
     33 H2          2.3030    1.1190    2.2710 ha        1 DIZ      0.133500
     34 H3          4.7500    0.9910    1.7830 ha        1 DIZ      0.175500
     35 H5          3.9200   -0.9600   -1.9840 ha        1 DIZ      0.175500
     36 H6          1.4680   -0.8290   -1.5100 ha        1 DIZ      0.133500
     37 H7          6.4580   -0.2730    0.6450 h1        1 DIZ      0.099700
     38 H11         6.6860    4.3040    1.4130 ha        1 DIZ      0.167000
     39 H13         9.3810    6.8420   -0.8420 ha        1 DIZ      0.137000
     40 H14         9.8410    4.9840   -2.3850 ha        1 DIZ      0.135000
     41 HN2         9.6330    2.6570   -2.8170 hn        1 DIZ      0.314500
     42 H17         6.0250    0.5550   -2.7760 h1        1 DIZ      0.201700
     43 H19         6.4570    2.8270   -4.6120 ha        1 DIZ      0.155500
     44 H20         4.9450    4.6470   -5.3570 ha        1 DIZ      0.141500
     45 H22         2.8460    4.4470   -1.5690 ha        1 DIZ      0.141500
     46 H23         4.3520    2.6300   -0.8250 ha        1 DIZ      0.155500
@<TRIPOS>BOND
     1    1    2 1   
     2    2    3 ar  
     3    2    7 ar  
     4    3    4 ar  
     5    3   33 1   
     6    4    5 ar  
     7    4   34 1   
     8    5    6 ar  
     9    5    8 1   
    10    6    7 ar  
    11    6   35 1   
    12    7   36 1   
    13    8    9 1   
    14    8   12 1   
    15    8   37 1   
    16    9   10 1   
    17    9   11 1   
    18   12   13 1   
    19   12   25 1   
    20   13   14 2   
    21   13   15 1   
    22   15   16 ar  
    23   15   21 ar  
    24   16   17 ar  
    25   16   38 1   
    26   17   18 1   
    27   17   19 ar  
    28   19   20 ar  
    29   19   39 1   
    30   20   21 ar  
    31   20   40 1   
    32   21   22 1   
    33   22   23 1   
    34   22   41 1   
    35   23   24 2   
    36   23   25 1   
    37   25   26 1   
    38   25   42 1   
    39   26   27 ar  
    40   26   32 ar  
    41   27   28 ar  
    42   27   43 1   
    43   28   29 ar  
    44   28   44 1   
    45   29   30 1   
    46   29   31 ar  
    47   31   32 ar  
    48   31   45 1   
    49   32   46 1   
@<TRIPOS>SUBSTRUCTURE
     1 DIZ         1 TEMP              0 ****  ****    0 ROOT
