@<TRIPOS>MOLECULE
DJK
   36    38     1     0     0
SMALL
bcc


@<TRIPOS>ATOM
      1 C51         0.5930   -1.1250   -0.3810 c2        1 DJK     -0.120000
      2 C11         1.0360    0.0180    0.1460 ce        1 DJK     -0.248200
      3 C10         1.7990    0.0190    1.4250 c         1 DJK      0.669300
      4 O61         1.9820   -1.0270    2.0760 o         1 DJK     -0.589100
      5 N11         2.2870    1.2550    1.8410 ns        1 DJK     -0.471100
      6 C9          3.0440    1.5300    2.9890 ca        1 DJK      0.073600
      7 C8          3.6950    2.7640    3.0890 ca        1 DJK     -0.168000
      8 C13         3.1520    0.6050    4.0740 ca        1 DJK     -0.120000
      9 C17         3.8650    0.9250    5.1990 ca        1 DJK     -0.156300
     10 C18         4.5280    2.1840    5.3250 ca        1 DJK      0.408600
     11 C7          4.4440    3.1020    4.2330 ca        1 DJK     -0.251600
     12 C6          5.1600    4.3730    4.3980 ca        1 DJK      0.678200
     13 N3          5.8280    4.6490    5.5370 nb        1 DJK     -0.755000
     14 C19         5.8050    3.6830    6.5190 ca        1 DJK      0.657900
     15 N2          5.2210    2.4880    6.4840 nb        1 DJK     -0.699000
     16 N1          5.0950    5.3130    3.3550 nu        1 DJK     -0.721300
     17 C5          5.7830    6.5480    3.4010 ca        1 DJK      0.133600
     18 C4          5.5880    7.4500    4.4680 ca        1 DJK     -0.087000
     19 C20         6.6080    6.9330    2.3200 ca        1 DJK     -0.160000
     20 C21         7.2120    8.1860    2.3140 ca        1 DJK     -0.112000
     21 C22         7.0230    9.0720    3.3720 ca        1 DJK     -0.118000
     22 C3          6.2110    8.6980    4.4450 ca        1 DJK     -0.010900
     23 Br          5.9470    9.8880    5.8700 br        1 DJK     -0.084100
     24 H511        0.7720   -2.0990    0.1000 ha        1 DJK      0.133500
     25 H512        0.0250   -1.1510   -1.3210 ha        1 DJK      0.133500
     26 H111        0.8480    0.9880   -0.3390 ha        1 DJK      0.133000
     27 HN11        2.1410    2.0280    1.2290 hn        1 DJK      0.316500
     28 H8          3.5970    3.4890    2.2660 ha        1 DJK      0.128000
     29 H13         2.6540   -0.3780    4.0090 ha        1 DJK      0.180000
     30 H17         3.9330    0.2050    6.0320 ha        1 DJK      0.160000
     31 H19         6.3610    3.9530    7.4420 h5        1 DJK      0.056100
     32 HN1         5.0780    4.8960    2.4460 hn        1 DJK      0.424800
     33 H4          4.9490    7.1690    5.3210 ha        1 DJK      0.167000
     34 H20         6.7780    6.2490    1.4750 ha        1 DJK      0.132000
     35 H21         7.8510    8.4760    1.4670 ha        1 DJK      0.139000
     36 H22         7.5130   10.0570    3.3550 ha        1 DJK      0.149000
@<TRIPOS>BOND
     1    1    2 2   
     2    1   24 1   
     3    1   25 1   
     4    2    3 1   
     5    2   26 1   
     6    3    4 2   
     7    3    5 1   
     8    5    6 1   
     9    5   27 1   
    10    6    7 ar  
    11    6    8 ar  
    12    7   11 ar  
    13    7   28 1   
    14    8    9 ar  
    15    8   29 1   
    16    9   10 ar  
    17    9   30 1   
    18   10   11 ar  
    19   10   15 ar  
    20   11   12 ar  
    21   12   13 ar  
    22   12   16 1   
    23   13   14 ar  
    24   14   15 ar  
    25   14   31 1   
    26   16   17 1   
    27   16   32 1   
    28   17   18 ar  
    29   17   19 ar  
    30   18   22 ar  
    31   18   33 1   
    32   19   20 ar  
    33   19   34 1   
    34   20   21 ar  
    35   20   35 1   
    36   21   22 ar  
    37   21   36 1   
    38   22   23 1   
@<TRIPOS>SUBSTRUCTURE
     1 DJK         1 TEMP              0 ****  ****    0 ROOT
