@<TRIPOS>MOLECULE
DJK
   36    30     1     0     0
SMALL
bcc


@<TRIPOS>ATOM
      1 C51        -2.8730   -4.2690   -4.4260 c1        1 DJK     -0.144750
      2 C11        -2.4200   -3.1540   -3.8230 c1        1 DJK     -0.144750
      3 C10        -1.7600   -3.2430   -2.4670 c1        1 DJK      0.344000
      4 O61        -1.1840   -4.2610   -2.1370 o         1 DJK     -0.350000
      5 N11        -1.7580   -2.1180   -1.6050 n3        1 DJK     -0.325000
      6 C9         -1.0840   -2.1810   -0.3580 c2        1 DJK      0.081000
      7 C8         -0.5340   -0.9380   -0.0910 c2        1 DJK     -0.168000
      8 C13        -0.8650   -3.2370    0.5100 c1        1 DJK     -0.120000
      9 C17        -0.0970   -3.0500    1.6470 c1        1 DJK     -0.091000
     10 C18         0.4640   -1.7830    1.9210 c1        1 DJK      0.015000
     11 C7          0.2490   -0.7480    1.0680 c1        1 DJK     -0.121000
     12 C6          0.8000    0.4950    1.3380 c1        1 DJK      0.157000
     13 N3          1.5460    0.6740    2.4430 n1        1 DJK     -0.229000
     14 C19         1.7620   -0.3720    3.3020 c1        1 DJK     -0.005000
     15 N2          1.2200   -1.5980    3.0380 n1        1 DJK     -0.173000
     16 N1          1.3140    1.3950    0.3670 n3        1 DJK     -0.242000
     17 C5          1.3250    2.7910    0.6270 c2        1 DJK      0.052000
     18 C4          0.1370    3.5060    0.6150 c2        1 DJK     -0.087000
     19 C20         2.5290    3.4510    0.8100 c1        1 DJK     -0.160000
     20 C21         2.5470    4.8270    0.9820 c1        1 DJK     -0.144750
     21 C22         1.3600    5.5420    0.9700 c1        1 DJK     -0.144750
     22 C3          0.1550    4.8810    0.7870 c1        1 DJK     -0.151000
     23 BR         -1.4860    5.8620    0.8020 br        1 DJK      0.056000
     24 H511       -2.7760   -5.1380   -3.9850 DU        1 DJK      0.144000
     25 H512       -3.3000   -4.2110   -5.3030 ha        1 DJK      0.136000
     26 H111       -2.5170   -2.2880   -4.2620 ha        1 DJK      0.136000
     27 HN11       -2.2170   -1.3650   -1.8380 hn        1 DJK      0.230000
     28 H8         -0.6840   -0.1960   -0.7060 ha        1 DJK      0.128000
     29 H13        -1.2650   -4.1080    0.3290 ha        1 DJK      0.180000
     30 H17         0.0570   -3.7950    2.2590 ha        1 DJK      0.160000
     31 H19         2.3030   -0.2410    4.1030 ha        1 DJK      0.193000
     32 HN1         1.6320    1.0770   -0.4270 hn        1 DJK      0.220000
     33 H4         -0.7110    3.0410    0.4860 ha        1 DJK      0.167000
     34 H20         3.3650    2.9480    0.8190 ha        1 DJK      0.132000
     35 H21         3.3940    5.2920    1.1110 ha        1 DJK      0.136000
     36 H22         1.3720    6.5100    1.0910 ha        1 DJK      0.136000
@<TRIPOS>BOND
     1    1    2 1   
     2    1   25 1   
     3    2   26 1   
     4    3    4 1   
     5    3    5 1   
     6    5    6 1   
     7    5   27 1   
     8    6    7 1   
     9    6    8 1   
    10    7   11 1   
    11    7   28 1   
    12    8   29 1   
    13    9   10 1   
    14    9   30 1   
    15   10   15 1   
    16   11   12 1   
    17   12   16 1   
    18   13   14 1   
    19   14   31 1   
    20   16   17 1   
    21   16   32 1   
    22   17   18 1   
    23   17   19 1   
    24   18   22 1   
    25   18   33 1   
    26   19   34 1   
    27   20   21 1   
    28   20   35 1   
    29   21   36 1   
    30   22   23 1   
@<TRIPOS>SUBSTRUCTURE
     1 DJK         1 TEMP              0 ****  ****    0 ROOT
