@<TRIPOS>MOLECULE
DJK
   36    38     1     0     0
SMALL
bcc


@<TRIPOS>ATOM
      1 C51        -1.1460   -4.4680   -4.0780 c2        1 DJK     -0.120000
      2 C11        -0.2020   -3.6770   -3.5670 ce        1 DJK     -0.248200
      3 C10        -0.5620   -2.3850   -2.9180 c         1 DJK      0.669300
      4 O61        -1.7360   -1.9690   -2.9020 o         1 DJK     -0.589100
      5 N11         0.4900   -1.6810   -2.3410 n         1 DJK     -0.471100
      6 C9          0.4240   -0.4560   -1.6590 ca        1 DJK      0.073600
      7 C8          1.5210   -0.0510   -0.8920 ca        1 DJK     -0.168000
      8 C13        -0.7140    0.4050   -1.7420 ca        1 DJK     -0.120000
      9 C17        -0.7270    1.6130   -1.0970 ca        1 DJK     -0.156300
     10 C18         0.3880    2.0510   -0.3180 ca        1 DJK      0.408600
     11 C7          1.5170    1.1830   -0.2110 ca        1 DJK     -0.251600
     12 C6          2.6290    1.6650    0.6180 ca        1 DJK      0.678200
     13 N3          2.5760    2.8740    1.2120 nb        1 DJK     -0.755000
     14 C19         1.4350    3.6180    1.0040 ca        1 DJK      0.657900
     15 N2          0.3550    3.2880    0.3020 nb        1 DJK     -0.699000
     16 N1          3.7680    0.8500    0.7420 nh        1 DJK     -0.721300
     17 C5          4.8730    1.2060    1.5500 ca        1 DJK      0.133600
     18 C4          5.5470    2.4310    1.3630 ca        1 DJK     -0.087000
     19 C20         5.3730    0.2860    2.4990 ca        1 DJK     -0.160000
     20 C21         6.5160    0.5910    3.2310 ca        1 DJK     -0.112000
     21 C22         7.1760    1.8030    3.0490 ca        1 DJK     -0.118000
     22 C3          6.6870    2.7180    2.1140 ca        1 DJK     -0.010900
     23 BR          7.5740    4.3500    1.8580 br        1 DJK     -0.084100
     24 H511       -0.9050   -5.4230   -4.5640 ha        1 DJK      0.133500
     25 H512       -2.2150   -4.2030   -4.0420 ha        1 DJK      0.133500
     26 H111        0.8640   -3.9480   -3.6110 ha        1 DJK      0.133000
     27 HN11        1.3860   -2.1160   -2.3520 hn        1 DJK      0.316500
     28 H8          2.4090   -0.6990   -0.8430 ha        1 DJK      0.128000
     29 H13        -1.5940    0.0960   -2.3340 ha        1 DJK      0.180000
     30 H17        -1.6090    2.2710   -1.1770 ha        1 DJK      0.160000
     31 H19         1.4360    4.6090    1.5050 h5        1 DJK      0.056100
     32 HN1         3.5570   -0.1270    0.7570 hn        1 DJK      0.424800
     33 H4          5.1730    3.1620    0.6270 ha        1 DJK      0.167000
     34 H20         4.8660   -0.6760    2.6680 ha        1 DJK      0.132000
     35 H21         6.8980   -0.1330    3.9680 ha        1 DJK      0.139000
     36 H22         8.0760    2.0310    3.6410 ha        1 DJK      0.149000
@<TRIPOS>BOND
     1    1    2 2   
     2    1   24 1   
     3    1   25 1   
     4    2    3 1   
     5    2   26 1   
     6    3    4 2   
     7    3    5 1   
     8    5    6 1   
     9    5   27 1   
    10    6    7 ar  
    11    6    8 ar  
    12    7   11 ar  
    13    7   28 1   
    14    8    9 ar  
    15    8   29 1   
    16    9   10 ar  
    17    9   30 1   
    18   10   11 ar  
    19   10   15 ar  
    20   11   12 ar  
    21   12   13 ar  
    22   12   16 1   
    23   13   14 ar  
    24   14   15 ar  
    25   14   31 1   
    26   16   17 1   
    27   16   32 1   
    28   17   18 ar  
    29   17   19 ar  
    30   18   22 ar  
    31   18   33 1   
    32   19   20 ar  
    33   19   34 1   
    34   20   21 ar  
    35   20   35 1   
    36   21   22 ar  
    37   21   36 1   
    38   22   23 1   
@<TRIPOS>SUBSTRUCTURE
     1 DJK         1 TEMP              0 ****  ****    0 ROOT
