@<TRIPOS>MOLECULE
DJK
   38    40     1     0     0
SMALL
bcc


@<TRIPOS>ATOM
      1 C51        -0.4270    2.3510    1.3410 c2        1 DJK      0.018000
      2 C11         0.5940    1.5340    1.6580 ce        1 DJK     -0.312200
      3 C10         1.9680    1.9600    1.4620 c         1 DJK      0.585300
      4 O61         2.4260    3.0420    1.1200 o         1 DJK     -0.458100
      5 N11         3.0330    0.8710    1.6930 n4        1 DJK     -0.560200
      6 C9          3.9360    1.1880    2.8030 ca        1 DJK     -0.007400
      7 C8          4.7480    2.3140    2.7500 ca        1 DJK     -0.073000
      8 C13         3.9690    0.3120    3.9280 ca        1 DJK     -0.102000
      9 C17         4.8110    0.5740    4.9770 ca        1 DJK     -0.102300
     10 C18         5.6650    1.7260    4.9610 ca        1 DJK      0.458600
     11 C7          5.6220    2.6030    3.8210 ca        1 DJK     -0.255600
     12 C6          6.5210    3.7390    3.8960 ca        1 DJK      0.557200
     13 N3          7.3260    3.9610    4.9340 nb        1 DJK     -0.650000
     14 C19         7.2750    3.0420    5.9740 ca        1 DJK      0.703900
     15 N2          6.5000    1.9630    6.0340 nb        1 DJK     -0.608000
     16 N1          6.5850    4.7330    2.7900 n4        1 DJK     -0.624100
     17 C5          5.7690    5.9260    3.0680 ca        1 DJK     -0.070400
     18 C4          4.5120    6.0620    2.4530 ca        1 DJK     -0.094000
     19 C20         6.2780    6.9260    3.9160 ca        1 DJK     -0.074000
     20 C21         5.5150    8.0710    4.1320 ca        1 DJK     -0.096000
     21 C22         4.2690    8.2250    3.5230 ca        1 DJK     -0.034000
     22 C3          3.7660    7.2200    2.6840 ca        1 DJK     -0.016900
     23 BR          2.1040    7.4280    1.8630 br        1 DJK     -0.000100
     24 H511       -0.2850    3.3610    0.9200 ha        1 DJK      0.173500
     25 H512       -1.4760    2.0340    1.4880 ha        1 DJK      0.173500
     26 H111        0.4070    0.5290    2.0750 ha        1 DJK      0.177000
     27 HN11        3.5920    0.7790    0.8330 hn        1 DJK      0.473300
     28 H8          4.6850    2.9890    1.8780 ha        1 DJK      0.157000
     29 H13         3.3220   -0.5840    3.9660 ha        1 DJK      0.182000
     30 H17         4.8450   -0.1030    5.8550 ha        1 DJK      0.216000
     31 H19         7.9630    3.2540    6.8300 h5        1 DJK      0.122100
     32 HN1         6.2670    4.2890    1.9210 hn        1 DJK      0.476300
     33 H4          4.1120    5.2790    1.7860 ha        1 DJK      0.153000
     34 H20         7.2620    6.8240    4.4080 ha        1 DJK      0.178000
     35 H21         5.9070    8.8680    4.7910 ha        1 DJK      0.190000
     36 H22         3.6830    9.1460    3.7040 ha        1 DJK      0.194000
     37 H112        2.5710   -0.0290    1.8780 hn        1 DJK      0.473300
     38 H12         7.5660    5.0410    2.6640 hn        1 DJK      0.476300
@<TRIPOS>BOND
     1    1    2 2   
     2    1   24 1   
     3    1   25 1   
     4    2    3 1   
     5    2   26 1   
     6    3    4 2   
     7    3    5 1   
     8    5    6 1   
     9    5   27 1   
    10    5   37 1   
    11    6    7 ar  
    12    6    8 ar  
    13    7   11 ar  
    14    7   28 1   
    15    8    9 ar  
    16    8   29 1   
    17    9   10 ar  
    18    9   30 1   
    19   10   11 ar  
    20   10   15 ar  
    21   11   12 ar  
    22   12   13 ar  
    23   12   16 1   
    24   13   14 ar  
    25   14   15 ar  
    26   14   31 1   
    27   16   17 1   
    28   16   32 1   
    29   16   38 1   
    30   17   18 ar  
    31   17   19 ar  
    32   18   22 ar  
    33   18   33 1   
    34   19   20 ar  
    35   19   34 1   
    36   20   21 ar  
    37   20   35 1   
    38   21   22 ar  
    39   21   36 1   
    40   22   23 1   
@<TRIPOS>SUBSTRUCTURE
     1 DJK         1 TEMP              0 ****  ****    0 ROOT
