@<TRIPOS>MOLECULE
DJL
   35    36     1     0     0
SMALL
bcc


@<TRIPOS>ATOM
      1 C1         -3.6730   -2.0470   -0.8000 ca        1 DJL     -0.102500
      2 C2         -4.8420   -1.6380   -0.1580 ca        1 DJL     -0.126000
      3 C3         -4.7920   -0.6740    0.8510 ca        1 DJL     -0.102500
      4 C4         -3.5750   -0.1050    1.2240 ca        1 DJL     -0.143000
      5 C5         -2.4120   -0.5320    0.5700 ca        1 DJL      0.075100
      6 C6         -2.4430   -1.4990   -0.4390 ca        1 DJL     -0.143000
      7 O7         -1.2120   -0.0080    1.0760 os        1 DJL     -0.235200
      8 C8         -0.2120    0.2440    0.1570 ca        1 DJL      0.101100
      9 C9         -0.3150    1.1740   -0.8950 ca        1 DJL      0.043400
     10 C10         0.8150    1.4580   -1.6750 ca        1 DJL     -0.118000
     11 C11         2.0370    0.8470   -1.4130 ca        1 DJL     -0.075000
     12 C12         2.1660   -0.0770   -0.3740 ca        1 DJL     -0.212300
     13 C13         1.0300   -0.3830    0.4110 ca        1 DJL      0.118900
     14 CL1        -1.7620    1.9660   -1.2320 cl        1 DJL      0.005600
     15 N20         3.9610   -0.3770    1.2760 n4        1 DJL     -0.850600
     16 C23         4.5170   -0.6400   -1.1560 c3        1 DJL     -0.110400
     17 F23         1.1450   -1.2650    1.4340 f         1 DJL     -0.131900
     18 C30         3.4420   -0.8050   -0.0830 c3        1 DJL      0.199800
     19 H30         3.2050   -1.9130    0.0260 hx        1 DJL      0.119700
     20 HN20        4.8190   -0.8910    1.4920 hn        1 DJL      0.460467
     21 HN2A        4.1600    0.6270    1.2740 hn        1 DJL      0.460467
     22 HN2B        3.2480   -0.5750    1.9890 hn        1 DJL      0.460467
     23 H22         6.3420   -1.1470   -0.0670 hc        1 DJL      0.058367
     24 H22A        5.4090   -2.5740   -0.6980 hc        1 DJL      0.058367
     25 H22B        6.3610   -1.5320   -1.8270 hc        1 DJL      0.058367
     26 H23         4.8370    0.4320   -1.2390 hc        1 DJL      0.088700
     27 H23A        4.0390   -0.9250   -2.1350 hc        1 DJL      0.088700
     28 H11         2.9010    1.1000   -2.0490 ha        1 DJL      0.157000
     29 H10         0.7350    2.1830   -2.5040 ha        1 DJL      0.179000
     30 H4         -3.5170    0.6530    2.0190 ha        1 DJL      0.146000
     31 H3         -5.7170   -0.3560    1.3560 ha        1 DJL      0.148500
     32 H2         -5.8090   -2.0780   -0.4480 ha        1 DJL      0.149000
     33 H1         -3.7180   -2.8080   -1.5940 ha        1 DJL      0.148500
     34 H6         -1.5170   -1.8190   -0.9360 ha        1 DJL      0.146000
     35 C22         5.7150   -1.5210   -0.9120 c3        1 DJL     -0.122100
@<TRIPOS>BOND
     1    1    2 ar  
     2    1    6 ar  
     3    1   33 1   
     4    2    3 ar  
     5    2   32 1   
     6    3    4 ar  
     7    3   31 1   
     8    4    5 ar  
     9    4   30 1   
    10    5    6 ar  
    11    5    7 1   
    12    6   34 1   
    13    7    8 1   
    14    8    9 ar  
    15    8   13 ar  
    16    9   10 ar  
    17    9   14 1   
    18   10   11 ar  
    19   10   29 1   
    20   11   12 ar  
    21   11   28 1   
    22   12   13 ar  
    23   12   18 1   
    24   13   17 1   
    25   15   18 1   
    26   15   20 1   
    27   15   21 1   
    28   15   22 1   
    29   16   18 1   
    30   16   26 1   
    31   16   27 1   
    32   16   35 1   
    33   18   19 1   
    34   23   35 1   
    35   24   35 1   
    36   25   35 1   
@<TRIPOS>SUBSTRUCTURE
     1 DJL         1 TEMP              0 ****  ****    0 ROOT
