@<TRIPOS>MOLECULE
DJL
   35    31     1     0     0
SMALL
bcc


@<TRIPOS>ATOM
      1 C1          1.6000   -2.1950   -4.5420 c1        1 DJL     -0.113250
      2 C2          2.2310   -3.1690   -3.7830 c1        1 DJL     -0.113250
      3 C3          1.8440   -3.3830   -2.4700 c1        1 DJL     -0.113250
      4 C4          0.8270   -2.6230   -1.9140 c1        1 DJL     -0.164000
      5 C5          0.1960   -1.6490   -2.6730 c1        1 DJL      0.030000
      6 C6          0.5830   -1.4350   -3.9860 c1        1 DJL     -0.113250
      7 O7         -0.8990   -0.9480   -2.1420 os        1 DJL     -0.145000
      8 C8         -0.4410    0.0060   -1.2170 c2        1 DJL      0.056000
      9 C9          0.5270    0.9250   -1.5920 c2        1 DJL     -0.035000
     10 C10         0.9180    1.9190   -0.7100 c1        1 DJL     -0.118000
     11 C11         0.3410    1.9950    0.5480 c1        1 DJL     -0.075000
     12 C12        -0.6270    1.0780    0.9240 c1        1 DJL     -0.205000
     13 C13        -1.0180    0.0830    0.0420 c1        1 DJL      0.084000
     14 CL1         1.2180    0.8570   -3.1910 cl        1 DJL      0.084000
     15 N20        -1.9610    2.4730    2.3460 n4        1 DJL     -0.078000
     16 C22        -0.9080    0.4440    4.5790 c3        1 DJL     -0.240000
     17 C23        -0.2820    1.1010    3.3670 c3        1 DJL     -0.189000
     18 F23        -1.9570   -0.8010    0.4030 f         1 DJL     -0.097000
     19 C30        -1.3100    1.2080    2.2660 c3        1 DJL     -0.005000
     20 H30        -1.9710    0.4940    2.3660 hx        1 DJL      0.159000
     21 HN20       -2.3670    2.6600    1.5430 hn        1 DJL      0.255667
     22 HN2A       -2.5940    2.4490    3.0110 hn        1 DJL      0.255667
     23 HN2B       -1.3430    3.1240    2.5350 hn        1 DJL      0.255667
     24 H22        -0.2050    0.0440    5.1340 hc        1 DJL      0.097667
     25 H22A       -1.5310   -0.2540    4.2870 hc        1 DJL      0.097667
     26 H22B       -1.3930    1.1170    5.1010 hc        1 DJL      0.097667
     27 H23         0.0330    1.9950    3.6070 hc        1 DJL      0.128000
     28 H23A        0.4720    0.5610    3.0570 hc        1 DJL      0.128000
     29 H11         0.6170    2.6960    1.1700 ha        1 DJL      0.157000
     30 H10         1.6000    2.5660   -0.9740 ha        1 DJL      0.179000
     31 H4          0.5540   -2.7740   -0.9890 ha        1 DJL      0.135000
     32 H3          2.2880   -4.0690   -1.9360 ha        1 DJL      0.150750
     33 H2          2.9480   -3.7040   -4.1750 ha        1 DJL      0.150750
     34 H1          1.8730   -2.0440   -5.4670 ha        1 DJL      0.150750
     35 H6          0.1390   -0.7490   -4.5200 ha        1 DJL      0.150750
@<TRIPOS>BOND
     1    1    6 1   
     2    1   34 1   
     3    2    3 1   
     4    2   33 1   
     5    3   32 1   
     6    4    5 1   
     7    4   31 1   
     8    5    7 1   
     9    6   35 1   
    10    7    8 1   
    11    8    9 1   
    12    8   13 1   
    13    9   10 1   
    14    9   14 1   
    15   10   30 1   
    16   11   12 1   
    17   11   29 1   
    18   12   19 1   
    19   13   18 1   
    20   15   19 1   
    21   15   21 1   
    22   15   22 1   
    23   15   23 1   
    24   16   17 1   
    25   16   24 1   
    26   16   25 1   
    27   16   26 1   
    28   17   19 1   
    29   17   27 1   
    30   17   28 1   
    31   19   20 1   
@<TRIPOS>SUBSTRUCTURE
     1 DJL         1 TEMP              0 ****  ****    0 ROOT
