@<TRIPOS>MOLECULE
DJL
   35    35     1     0     0
SMALL
bcc


@<TRIPOS>ATOM
      1 C1          0.5630    0.4590    0.1900 c2        1 DJL     -0.236000
      2 C2          1.8770    0.5290    0.5680 c2        1 DJL      0.015000
      3 C3          2.3000    0.0900    1.8780 c2        1 DJL     -0.174000
      4 C4          1.4200   -0.4480    2.7490 c2        1 DJL     -0.091000
      5 C5          0.0150   -0.6800    2.3010 c3        1 DJL     -0.013000
      6 C6         -0.4300    0.0510    1.1040 c1        1 DJL     -0.114000
      7 O7         -0.8580   -0.4030    3.4290 os        1 DJL     -0.198000
      8 C8         -2.1870   -0.3380    3.0890 c2        1 DJL      0.161000
      9 C9         -2.9860   -1.3980    2.7270 c2        1 DJL     -0.145000
     10 C10        -4.3710   -1.2250    2.4400 c1        1 DJL     -0.010000
     11 C11        -4.9720    0.0930    2.5420 c3        1 DJL     -0.180000
     12 C12        -4.1260    1.2090    3.0300 c2        1 DJL     -0.249000
     13 C13        -2.7970    0.9860    3.2830 c2        1 DJL      0.138000
     14 CL1        -2.3810   -2.9670    2.5830 cl        1 DJL      0.074000
     15 N20        -4.6820    2.9740    4.6500 n4        1 DJL     -0.078000
     16 C23        -6.1010    2.7410    2.5910 c3        1 DJL     -0.278000
     17 F23        -2.0030    1.9780    3.7450 f         1 DJL     -0.093000
     18 C30        -4.6950    2.5820    3.1850 c3        1 DJL     -0.049000
     19 H30        -4.0010    3.3250    2.6750 hx        1 DJL      0.155000
     20 HN20       -5.0690    3.9140    4.7640 hn        1 DJL      0.254000
     21 HN2A       -5.2410    2.3110    5.1950 hn        1 DJL      0.254000
     22 HN2B       -3.7160    2.9570    4.9970 hn        1 DJL      0.254000
     23 H22        -6.1300    4.9110    2.9310 ha        1 DJL      0.047000
     24 H22A       -6.5880    4.7920    0.4740 ha        1 DJL      0.019000
     25 H22B       -5.9240    4.6940    0.6080 ha        1 DJL      0.019000
     26 H23        -6.0590    2.3610    1.5210 hc        1 DJL      0.187500
     27 H23A       -6.8410    2.0620    3.1120 hc        1 DJL      0.187500
     28 H11        -5.3360    0.3150    1.4870 hc        1 DJL      0.174000
     29 H10        -5.9010   -0.0110    3.1770 hc        1 DJL      0.174000
     30 H4         -0.0870   -1.7910    2.0510 h1        1 DJL      0.175000
     31 H3          1.6940   -0.7890    3.7580 ha        1 DJL      0.165000
     32 H2          3.3640    0.2110    2.1410 ha        1 DJL      0.162000
     33 H1          2.6460    0.9580   -0.0970 ha        1 DJL      0.155000
     34 H6          0.2410    0.8050   -0.8060 ha        1 DJL      0.166000
     35 C22        -6.6940    4.0560    2.5300 c1        1 DJL     -0.026000
@<TRIPOS>BOND
     1    1    2 1   
     2    1    6 1   
     3    1   34 1   
     4    2    3 1   
     5    2   33 1   
     6    3    4 1   
     7    3   32 1   
     8    4    5 1   
     9    4   31 1   
    10    5    6 1   
    11    5    7 1   
    12    5   30 1   
    13    7    8 1   
    14    8    9 1   
    15    8   13 1   
    16    9   10 1   
    17    9   14 1   
    18   10   11 1   
    19   11   12 1   
    20   11   28 1   
    21   11   29 1   
    22   12   13 1   
    23   12   18 1   
    24   13   17 1   
    25   15   18 1   
    26   15   20 1   
    27   15   21 1   
    28   15   22 1   
    29   16   18 1   
    30   16   26 1   
    31   16   27 1   
    32   16   35 1   
    33   18   19 1   
    34   23   35 1   
    35   24   25 1   
@<TRIPOS>SUBSTRUCTURE
     1 DJL         1 TEMP              0 ****  ****    0 ROOT
