@<TRIPOS>MOLECULE
DJL
   35    36     1     0     0
SMALL
bcc


@<TRIPOS>ATOM
      1 C1         -0.5810    0.5420   -0.0940 c2        1 DJL     -0.248000
      2 C2          0.7690    0.7350   -0.2270 c2        1 DJL      0.028000
      3 C3          1.6660    0.5080    0.8800 c2        1 DJL     -0.184000
      4 C4          1.2040    0.0470    2.0630 c2        1 DJL     -0.075000
      5 C5         -0.2350   -0.3330    2.1750 c3        1 DJL     -0.013000
      6 C6         -1.1490    0.1880    1.1470 c1        1 DJL     -0.137000
      7 O7         -0.6750    0.0220    3.5110 os        1 DJL     -0.190000
      8 C8         -2.0200   -0.1900    3.7100 c2        1 DJL      0.146000
      9 C9         -2.6040   -1.4130    3.9380 c2        1 DJL     -0.144000
     10 C10        -3.9990   -1.5400    4.2150 c1        1 DJL     -0.007000
     11 C11        -4.8260   -0.3460    4.2720 c3        1 DJL     -0.186000
     12 C12        -4.1890    0.9610    3.9780 c2        1 DJL     -0.267000
     13 C13        -2.8400    1.0310    3.7600 c2        1 DJL      0.171000
     14 CL1        -1.7150   -2.8480    3.8950 cl        1 DJL      0.073000
     15 N20        -5.6740    2.4210    2.6350 n4        1 DJL     -0.041000
     16 C23        -4.7790    3.1560    1.6860 c3        1 DJL     -0.135000
     17 F23        -2.2130    2.2080    3.5590 f         1 DJL     -0.074000
     18 C30        -5.0510    2.1720    3.9820 c3        1 DJL     -0.075000
     19 H30        -4.4600    3.0930    4.2630 hx        1 DJL      0.152000
     20 HN20       -5.8950    2.0400    4.7210 hx        1 DJL      0.152000
     21 HN2A       -5.9190    1.5150    2.2180 hn        1 DJL      0.246000
     22 HN2B       -6.5330    2.9660    2.7660 hn        1 DJL      0.246000
     23 H22        -5.7670    5.1060    1.8180 hc        1 DJL      0.118000
     24 H22A       -4.3380    4.9070    2.9270 hc        1 DJL      0.118000
     25 H22B       -4.0840    5.1090    1.1460 hc        1 DJL      0.118000
     26 H23        -3.7390    2.7230    1.7890 hx        1 DJL      0.153000
     27 H23A       -5.1530    2.9410    0.6430 hx        1 DJL      0.153000
     28 H11        -5.7080   -0.5260    3.5900 hc        1 DJL      0.168500
     29 H10        -5.2470   -0.3350    5.3290 hc        1 DJL      0.168500
     30 H4         -0.2910   -1.4730    2.0800 h1        1 DJL      0.174000
     31 H3          1.8430   -0.1220    2.9420 ha        1 DJL      0.170000
     32 H2          2.7350    0.7330    0.7320 ha        1 DJL      0.164000
     33 H1          1.2080    1.1060   -1.1690 ha        1 DJL      0.153000
     34 H6         -1.2600    0.7350   -0.9400 ha        1 DJL      0.156000
     35 C22        -4.7520    4.6510    1.9210 c3        1 DJL     -0.251000
@<TRIPOS>BOND
     1    1    2 1   
     2    1    6 1   
     3    1   34 1   
     4    2    3 1   
     5    2   33 1   
     6    3    4 1   
     7    3   32 1   
     8    4    5 1   
     9    4   31 1   
    10    5    6 1   
    11    5    7 1   
    12    5   30 1   
    13    7    8 1   
    14    8    9 1   
    15    8   13 1   
    16    9   10 1   
    17    9   14 1   
    18   10   11 1   
    19   11   12 1   
    20   11   28 1   
    21   11   29 1   
    22   12   13 1   
    23   12   18 1   
    24   13   17 1   
    25   15   16 1   
    26   15   18 1   
    27   15   21 1   
    28   15   22 1   
    29   16   26 1   
    30   16   27 1   
    31   16   35 1   
    32   18   19 1   
    33   18   20 1   
    34   23   35 1   
    35   24   35 1   
    36   25   35 1   
@<TRIPOS>SUBSTRUCTURE
     1 DJL         1 TEMP              0 ****  ****    0 ROOT
