@<TRIPOS>MOLECULE
DJL
   35    35     1     0     0
SMALL
bcc


@<TRIPOS>ATOM
      1 C1         -0.2510    0.8520    0.0960 c2        1 DJL     -0.252000
      2 C2          1.1180    0.7850    0.0640 c2        1 DJL      0.038000
      3 C3          1.8570    0.1490    1.1250 c2        1 DJL     -0.187000
      4 C4          1.2160   -0.4480    2.1540 c2        1 DJL     -0.068000
      5 C5         -0.2720   -0.5430    2.1160 c3        1 DJL     -0.011000
      6 C6         -0.9810    0.3590    1.1940 c1        1 DJL     -0.156000
      7 O7         -0.7540   -0.4150    3.4780 os        1 DJL     -0.187000
      8 C8         -2.1280   -0.3390    3.5430 c2        1 DJL      0.136000
      9 C9         -2.9660   -1.4290    3.5760 c2        1 DJL     -0.135000
     10 C10        -4.3760   -1.2820    3.7540 c1        1 DJL     -0.002000
     11 C11        -4.9570    0.0450    3.8260 c3        1 DJL     -0.186000
     12 C12        -4.0470    1.2050    3.6900 c2        1 DJL     -0.229000
     13 C13        -2.6870    1.0140    3.6410 c2        1 DJL      0.161000
     14 Cl1        -2.3850   -3.0020    3.4010 cl        1 DJL      0.083000
     15 N20        -5.9000    2.7560    4.2730 n8        1 DJL     -0.384000
     16 C23        -4.4290    2.9130    2.2240 c2        1 DJL      0.214000
     17 F23        -1.8280    2.0530    3.6290 f         1 DJL     -0.069000
     18 C30        -4.6180    2.6220    3.6860 c3        1 DJL      0.025000
     19 H30        -3.3760    3.0820    1.8990 ha        1 DJL      0.190000
     20 HN20       -3.9010    3.2940    4.2700 h1        1 DJL      0.181000
     21 HN2A       -6.6140    2.1640    3.9170 hn        1 DJL      0.208000
     22 HN2B       -6.1840    3.6940    4.4470 hn        1 DJL      0.208000
     23 H22        -6.5000    2.7650    1.6160 hc        1 DJL      0.181667
     24 H22A       -5.4120    3.8240    0.5910 hc        1 DJL      0.181667
     25 H22B       -4.4390    5.8350    2.7480 ha        1 DJL      0.004000
     26 H23        -4.5610    5.1720    2.6580 ha        1 DJL      0.004000
     27 H23A       -5.2520    2.0400    0.4910 hc        1 DJL      0.181667
     28 H11        -5.8000    0.0860    3.0750 hc        1 DJL      0.184500
     29 H10        -5.4570    0.0830    4.8520 hc        1 DJL      0.184500
     30 H4         -0.5320   -1.6000    1.7600 h1        1 DJL      0.173000
     31 H3          1.7340   -0.9240    3.0010 ha        1 DJL      0.173000
     32 H2          2.9590    0.1770    1.0760 ha        1 DJL      0.166000
     33 H1          1.6980    1.2510   -0.7530 ha        1 DJL      0.155000
     34 H6         -0.8020    1.3620   -0.7110 ha        1 DJL      0.152000
     35 C22        -5.4590    2.8840    1.2220 c3        1 DJL     -0.320000
@<TRIPOS>BOND
     1    1    2 1   
     2    1    6 1   
     3    1   34 1   
     4    2    3 1   
     5    2   33 1   
     6    3    4 1   
     7    3   32 1   
     8    4    5 1   
     9    4   31 1   
    10    5    6 1   
    11    5    7 1   
    12    5   30 1   
    13    7    8 1   
    14    8    9 1   
    15    8   13 1   
    16    9   10 1   
    17    9   14 1   
    18   10   11 1   
    19   11   12 1   
    20   11   28 1   
    21   11   29 1   
    22   12   13 1   
    23   12   18 1   
    24   13   17 1   
    25   15   18 1   
    26   15   21 1   
    27   15   22 1   
    28   16   18 1   
    29   16   19 1   
    30   16   35 1   
    31   18   20 1   
    32   23   35 1   
    33   24   35 1   
    34   25   26 1   
    35   27   35 1   
@<TRIPOS>SUBSTRUCTURE
     1 DJL         1 TEMP              0 ****  ****    0 ROOT
