@<TRIPOS>MOLECULE
DJN
   31    31     1     0     0
SMALL
bcc


@<TRIPOS>ATOM
      1 O7          1.0830    1.6960    0.4120 o         1 DJN     -0.403100
      2 C7          1.4520    0.5760    0.0990 c         1 DJN      0.555100
      3 C8          1.1660   -0.7210    0.7710 c3        1 DJN     -0.186100
      4 N2          2.3400    0.5040   -1.1290 n4        1 DJN     -0.679800
      5 C2          1.5460    0.2810   -2.3830 c3        1 DJN      0.079500
      6 C3          2.4600   -0.2650   -3.5130 c3        1 DJN      0.099100
      7 O3          3.0800   -1.4410   -3.0430 oh        1 DJN     -0.615800
      8 C4          1.6300   -0.4950   -4.7940 c3        1 DJN      0.121100
      9 O4          0.8170   -1.6340   -4.6130 oh        1 DJN     -0.593800
     10 C5          0.8680    0.7940   -5.1640 c3        1 DJN      0.133500
     11 C6          0.0150    0.5390   -6.4230 c3        1 DJN      0.137400
     12 O6         -0.5210    1.7960   -6.7970 oh        1 DJN     -0.608800
     13 N5          0.0550    1.2540   -4.0430 n3        1 DJN     -0.834200
     14 C1          0.8440    1.5740   -2.8770 c3        1 DJN      0.161800
     15 H1          0.3760   -0.5530    1.5510 hc        1 DJN      0.116033
     16 H2          0.8000   -1.4900    0.0440 hc        1 DJN      0.116033
     17 H3          2.0900   -1.1050    1.2760 hc        1 DJN      0.116033
     18 H4          2.8710    1.3790   -1.2220 hn        1 DJN      0.467800
     19 H5          0.7730   -0.5090   -2.1410 hx        1 DJN      0.114700
     20 H6          3.2910    0.4640   -3.7300 h1        1 DJN      0.091700
     21 H7          2.6140   -2.2090   -3.4120 ho        1 DJN      0.456000
     22 H8          2.3370   -0.7750   -5.6290 h1        1 DJN      0.113700
     23 H9         -0.0570   -1.3520   -4.3080 ho        1 DJN      0.431000
     24 H10         1.6490    1.5690   -5.4440 h1        1 DJN      0.062700
     25 H11        -0.8070   -0.1950   -6.2130 h1        1 DJN      0.049700
     26 H12         0.6790    0.1370   -7.2340 h1        1 DJN      0.049700
     27 H13        -1.0450    1.6530   -7.5950 ho        1 DJN      0.430000
     28 H14        -0.5400    2.0150   -4.3180 hn        1 DJN      0.429800
     29 H16         1.6340    2.3580   -3.0720 h1        1 DJN      0.062200
     30 H17         0.1520    1.9620   -2.0760 h1        1 DJN      0.062200
     31 H22         3.0010   -0.2820   -1.0390 hn        1 DJN      0.467800
@<TRIPOS>BOND
     1    1    2 2   
     2    2    3 1   
     3    2    4 1   
     4    3   15 1   
     5    3   16 1   
     6    3   17 1   
     7    4    5 1   
     8    4   18 1   
     9    4   31 1   
    10    5    6 1   
    11    5   14 1   
    12    5   19 1   
    13    6    7 1   
    14    6    8 1   
    15    6   20 1   
    16    7   21 1   
    17    8    9 1   
    18    8   10 1   
    19    8   22 1   
    20    9   23 1   
    21   10   11 1   
    22   10   13 1   
    23   10   24 1   
    24   11   12 1   
    25   11   25 1   
    26   11   26 1   
    27   12   27 1   
    28   13   14 1   
    29   13   28 1   
    30   14   29 1   
    31   14   30 1   
@<TRIPOS>SUBSTRUCTURE
     1 DJN         1 TEMP              0 ****  ****    0 ROOT
