@<TRIPOS>MOLECULE
DJN
   30    29     1     0     0
SMALL
bcc


@<TRIPOS>ATOM
      1 O7         -1.1020    0.0950    3.2880 o         1 DJN     -0.366000
      2 C7          0.1130    0.0950    3.2880 c1        1 DJN      0.302000
      3 C8          0.8690    0.0950    4.5980 c3        1 DJN     -0.243000
      4 N2          0.8220    0.1070    2.0590 n2        1 DJN     -0.366000
      5 C2          0.0500    0.1210    0.7220 c3        1 DJN     -0.015000
      6 C3          0.5540   -0.9150   -0.0920 c3        1 DJN     -0.020000
      7 O3          0.2050   -2.2310    0.5410 oh        1 DJN     -0.321000
      8 C4         -0.1130   -1.0080   -1.4190 c3        1 DJN      0.006000
      9 O4         -1.4480   -1.3950   -1.2210 oh        1 DJN     -0.328000
     10 C5         -0.1000    0.3590   -2.2580 c3        1 DJN     -0.058000
     11 C6         -0.8870    0.2710   -3.3190 c3        1 DJN     -0.017000
     12 O6         -0.5440    1.2790   -4.2440 oh        1 DJN     -0.338000
     13 N5         -0.6680    1.4080   -1.2180 n3        1 DJN     -0.308000
     14 C1          0.0080    1.4130    0.0820 c3        1 DJN     -0.082000
     15 H1          0.2350    0.0870    5.3400 hc        1 DJN      0.106667
     16 H2          1.4250    0.8960    4.6530 hc        1 DJN      0.106667
     17 H3          1.4360   -0.6980    4.6470 hc        1 DJN      0.106667
     18 H4          1.7330    0.1440    2.0600 hn        1 DJN      0.219000
     19 H5         -0.8740   -0.1130    0.9310 h1        1 DJN      0.136000
     20 H6          1.5210   -0.8320   -0.1980 h1        1 DJN      0.114000
     21 H7          0.9070   -2.7730    0.5050 ho        1 DJN      0.219000
     22 H8          0.3360   -1.6970   -1.9440 h1        1 DJN      0.128000
     23 H9         -1.5660   -2.2180   -1.5310 ho        1 DJN      0.221000
     24 H10         0.8110    0.5930   -2.5210 h1        1 DJN      0.081000
     25 H11        -0.7750   -0.6050   -3.7360 h1        1 DJN      0.079500
     26 H12        -1.8170    0.3840   -3.0450 h1        1 DJN      0.079500
     27 H13        -0.9630    1.1310   -5.0130 ho        1 DJN      0.207000
     28 H14        -0.6360    2.2440   -1.5810 hn        1 DJN      0.186000
     29 H16         0.9240    1.7270   -0.0440 h1        1 DJN      0.081500
     30 H17        -0.4570    2.0370    0.6720 h1        1 DJN      0.081500
@<TRIPOS>BOND
     1    1    2 1   
     2    2    3 1   
     3    3   15 1   
     4    3   16 1   
     5    3   17 1   
     6    4    5 1   
     7    4   18 1   
     8    5    6 1   
     9    5   14 1   
    10    5   19 1   
    11    6    7 1   
    12    6    8 1   
    13    6   20 1   
    14    7   21 1   
    15    8    9 1   
    16    8   10 1   
    17    8   22 1   
    18    9   23 1   
    19   10   11 1   
    20   10   13 1   
    21   10   24 1   
    22   11   12 1   
    23   11   25 1   
    24   11   26 1   
    25   12   27 1   
    26   13   14 1   
    27   13   28 1   
    28   14   29 1   
    29   14   30 1   
@<TRIPOS>SUBSTRUCTURE
     1 DJN         1 TEMP              0 ****  ****    0 ROOT
