@<TRIPOS>MOLECULE
DJN
   30    30     1     0     0
SMALL
bcc


@<TRIPOS>ATOM
      1 O7         -2.9140   -1.3160    1.0800 o         1 DJN     -0.608100
      2 C7         -3.1730   -0.6060    0.0890 c         1 DJN      0.654100
      3 C8         -4.5840   -0.4480   -0.4250 c3        1 DJN     -0.174100
      4 N2         -2.1700    0.0400   -0.6130 n         1 DJN     -0.564900
      5 C2         -0.8160    0.0990   -0.1130 c3        1 DJN      0.076700
      6 C3          0.0110    1.1960   -0.8300 c3        1 DJN      0.096100
      7 O3         -0.6010    2.4620   -0.6810 oh        1 DJN     -0.599800
      8 C4          1.4550    1.2210   -0.2960 c3        1 DJN      0.118100
      9 O4          1.4840    1.7310    1.0220 oh        1 DJN     -0.602800
     10 C5          2.0860   -0.1810   -0.4290 c3        1 DJN      0.139500
     11 C6          3.5200   -0.1330    0.1290 c3        1 DJN      0.133400
     12 O6          4.1350   -1.3680   -0.2020 oh        1 DJN     -0.608800
     13 N5          1.2750   -1.1830    0.2510 n3        1 DJN     -0.830200
     14 C1         -0.0750   -1.2610   -0.2660 c3        1 DJN      0.148800
     15 H1         -5.2710   -1.0400    0.2280 hc        1 DJN      0.066367
     16 H2         -4.8920    0.6250   -0.3990 hc        1 DJN      0.066367
     17 H3         -4.6630   -0.8260   -1.4720 hc        1 DJN      0.066367
     18 H4         -2.4180    0.7220   -1.2910 hn        1 DJN      0.317500
     19 H5         -0.8570    0.3470    0.9920 h1        1 DJN      0.064700
     20 H6          0.0260    1.0140   -1.9410 h1        1 DJN      0.081700
     21 H7         -0.4150    2.7670    0.2190 ho        1 DJN      0.419000
     22 H8          2.0540    1.9670   -0.8920 h1        1 DJN      0.087700
     23 H9          1.1750    1.0370    1.6190 ho        1 DJN      0.423000
     24 H10         2.1650   -0.4010   -1.5390 h1        1 DJN      0.042700
     25 H11         4.0770    0.7080   -0.3640 h1        1 DJN      0.039200
     26 H12         3.5100    0.0290    1.2380 h1        1 DJN      0.039200
     27 H13         4.9550   -1.4130    0.3020 ho        1 DJN      0.407000
     28 H14         1.7300   -2.0760    0.2100 hn        1 DJN      0.391800
     29 H16        -0.6300   -2.0340    0.3400 h1        1 DJN      0.054200
     30 H17        -0.1050   -1.5710   -1.3510 h1        1 DJN      0.054200
@<TRIPOS>BOND
     1    1    2 2   
     2    2    3 1   
     3    2    4 1   
     4    3   15 1   
     5    3   16 1   
     6    3   17 1   
     7    4    5 1   
     8    4   18 1   
     9    5    6 1   
    10    5   14 1   
    11    5   19 1   
    12    6    7 1   
    13    6    8 1   
    14    6   20 1   
    15    7   21 1   
    16    8    9 1   
    17    8   10 1   
    18    8   22 1   
    19    9   23 1   
    20   10   11 1   
    21   10   13 1   
    22   10   24 1   
    23   11   12 1   
    24   11   25 1   
    25   11   26 1   
    26   12   27 1   
    27   13   14 1   
    28   13   28 1   
    29   14   29 1   
    30   14   30 1   
@<TRIPOS>SUBSTRUCTURE
     1 DJN         1 TEMP              0 ****  ****    0 ROOT
