@<TRIPOS>MOLECULE
DJN
   31    31     1     0     0
SMALL
bcc


@<TRIPOS>ATOM
      1 O7          1.3010    1.7720    0.4540 o         1 DJN     -0.403100
      2 C7          1.4550    0.6200    0.0850 c         1 DJN      0.559100
      3 C8          0.8870   -0.6300    0.6620 c3        1 DJN     -0.185100
      4 N2          2.3660    0.4440   -1.1170 n4        1 DJN     -0.681800
      5 C2          1.5840    0.3020   -2.3890 c3        1 DJN      0.110500
      6 C3          2.4490   -0.2740   -3.5330 c3        1 DJN      0.083100
      7 O3          3.0010   -1.4860   -3.0430 oh        1 DJN     -0.631800
      8 C4          1.5330   -0.5200   -4.7520 c3        1 DJN      0.118100
      9 O4          0.5640   -1.5020   -4.4500 oh        1 DJN     -0.566800
     10 C5          0.8110    0.7950   -5.1370 c3        1 DJN      0.183500
     11 C6         -0.1740    0.5070   -6.2880 c3        1 DJN      0.140400
     12 O6         -0.6170    1.7710   -6.7510 oh        1 DJN     -0.611800
     13 N5          0.1320    1.4020   -4.0000 n3        1 DJN     -0.824200
     14 C1          0.9950    1.6570   -2.8770 c3        1 DJN      0.171800
     15 H1          1.7030   -1.2940    1.0480 hc        1 DJN      0.116700
     16 H2          0.2130   -0.3530    1.5160 hc        1 DJN      0.116700
     17 H3          0.2890   -1.1910   -0.1020 hc        1 DJN      0.116700
     18 H4          2.9910    1.2560   -1.1950 hn        1 DJN      0.464800
     19 H5          0.7460   -0.4360   -2.1880 hx        1 DJN      0.141700
     20 H6          3.2740    0.4390   -3.8130 h1        1 DJN      0.067700
     21 H7          3.5050   -1.8910   -3.7620 ho        1 DJN      0.446000
     22 H8          2.1700   -0.8510   -5.6200 h1        1 DJN      0.066700
     23 H9          1.0370   -2.3380   -4.3330 ho        1 DJN      0.415000
     24 H10         1.6160    1.4860   -5.5420 h1        1 DJN      0.048700
     25 H11        -1.0320   -0.1200   -5.9310 h1        1 DJN      0.053200
     26 H12         0.3740   -0.0320   -7.1060 h1        1 DJN      0.053200
     27 H13        -1.3290    1.6060   -7.3810 ho        1 DJN      0.426000
     28 H14        -0.3860    2.2150   -4.2810 hn        1 DJN      0.428800
     29 H16         1.8550    2.3530   -3.1100 h1        1 DJN      0.056200
     30 H17         0.3770    2.1210   -2.0560 h1        1 DJN      0.056200
     31 H22         2.9340   -0.4060   -1.0020 hn        1 DJN      0.464800
@<TRIPOS>BOND
     1    1    2 2   
     2    2    3 1   
     3    2    4 1   
     4    3   15 1   
     5    3   16 1   
     6    3   17 1   
     7    4    5 1   
     8    4   18 1   
     9    4   31 1   
    10    5    6 1   
    11    5   14 1   
    12    5   19 1   
    13    6    7 1   
    14    6    8 1   
    15    6   20 1   
    16    7   21 1   
    17    8    9 1   
    18    8   10 1   
    19    8   22 1   
    20    9   23 1   
    21   10   11 1   
    22   10   13 1   
    23   10   24 1   
    24   11   12 1   
    25   11   25 1   
    26   11   26 1   
    27   12   27 1   
    28   13   14 1   
    29   13   28 1   
    30   14   29 1   
    31   14   30 1   
@<TRIPOS>SUBSTRUCTURE
     1 DJN         1 TEMP              0 ****  ****    0 ROOT
