@<TRIPOS>MOLECULE
DJN
   31    31     1     0     0
SMALL
bcc


@<TRIPOS>ATOM
      1 O7          1.2800    1.8080    0.4390 o         1 DJN     -0.403100
      2 C7          1.4660    0.6570    0.0790 c         1 DJN      0.559100
      3 C8          0.9370   -0.6030    0.6700 c3        1 DJN     -0.185100
      4 N2          2.3740    0.4980   -1.1270 ny        1 DJN     -0.681800
      5 C2          1.5890    0.3210   -2.3930 c3        1 DJN      0.110500
      6 C3          2.4630   -0.2390   -3.5370 c3        1 DJN      0.083100
      7 O3          3.0540   -1.4300   -3.0400 oh        1 DJN     -0.631800
      8 C4          1.5470   -0.5230   -4.7480 c3        1 DJN      0.118100
      9 O4          0.6100   -1.5310   -4.4310 oh        1 DJN     -0.566800
     10 C5          0.7840    0.7660   -5.1390 c3        1 DJN      0.183500
     11 C6         -0.1990    0.4390   -6.2820 c3        1 DJN      0.140400
     12 O6         -0.6820    1.6840   -6.7530 oh        1 DJN     -0.611800
     13 N5          0.0940    1.3620   -4.0040 n7        1 DJN     -0.824200
     14 C1          0.9550    1.6530   -2.8880 c3        1 DJN      0.171800
     15 H1          0.2640   -0.3380    1.5290 hc        1 DJN      0.116700
     16 H2          0.3470   -1.1850   -0.0840 hc        1 DJN      0.116700
     17 H3          1.7740   -1.2420    1.0520 hc        1 DJN      0.116700
     18 H4          2.9740    1.3270   -1.2160 hn        1 DJN      0.464800
     19 H5          0.7740   -0.4400   -2.1790 hx        1 DJN      0.141700
     20 H6          3.2640    0.4960   -3.8290 h1        1 DJN      0.067700
     21 H7          3.5660   -1.8260   -3.7590 ho        1 DJN      0.446000
     22 H8          2.1890   -0.8430   -5.6170 h1        1 DJN      0.066700
     23 H9          1.1090   -2.3510   -4.3090 ho        1 DJN      0.415000
     24 H10         1.5660    1.4770   -5.5550 h1        1 DJN      0.048700
     25 H11         0.3600   -0.0910   -7.0990 h1        1 DJN      0.053200
     26 H12        -1.0350   -0.2110   -5.9140 h1        1 DJN      0.053200
     27 H13        -1.3930    1.4930   -7.3780 ho        1 DJN      0.426000
     28 H14        -0.4500    2.1560   -4.2880 hn        1 DJN      0.428800
     29 H16         1.7930    2.3720   -3.1330 h1        1 DJN      0.056200
     30 H17         0.3290    2.1060   -2.0680 h1        1 DJN      0.056200
     31 H22         2.9670   -0.3350   -1.0080 hn        1 DJN      0.464800
@<TRIPOS>BOND
     1    1    2 2   
     2    2    3 1   
     3    2    4 1   
     4    3   15 1   
     5    3   16 1   
     6    3   17 1   
     7    4    5 1   
     8    4   18 1   
     9    4   31 1   
    10    5    6 1   
    11    5   14 1   
    12    5   19 1   
    13    6    7 1   
    14    6    8 1   
    15    6   20 1   
    16    7   21 1   
    17    8    9 1   
    18    8   10 1   
    19    8   22 1   
    20    9   23 1   
    21   10   11 1   
    22   10   13 1   
    23   10   24 1   
    24   11   12 1   
    25   11   25 1   
    26   11   26 1   
    27   12   27 1   
    28   13   14 1   
    29   13   28 1   
    30   14   29 1   
    31   14   30 1   
@<TRIPOS>SUBSTRUCTURE
     1 DJN         1 TEMP              0 ****  ****    0 ROOT
