@<TRIPOS>MOLECULE
DJR
   77    80     1     0     0
SMALL
bcc


@<TRIPOS>ATOM
      1 C          -3.2310    9.0620   -3.2630 c3        1 DJR     -0.129700
      2 O          -2.9580   10.8710   -1.6740 os        1 DJR     -0.418600
      3 C27        -2.9510   10.5730   -3.0640 c3        1 DJR      0.321900
      4 O9         -1.6350   10.8620   -3.5030 os        1 DJR     -0.419600
      5 C2         -0.9370    9.6500   -3.8170 c3        1 DJR      0.124400
      6 C1         -1.9600    8.5180   -3.9050 c3        1 DJR     -0.103400
      7 C3         -3.0580    9.6750   -0.9000 c3        1 DJR      0.119400
      8 C5         -3.5350    8.5530   -1.8430 c3        1 DJR      0.130100
      9 O4         -2.7870    7.3830   -1.5000 os        1 DJR     -0.433900
     10 C4         -3.4470    6.1700   -1.5940 c         1 DJR      0.729100
     11 O5         -4.6040    6.1420   -2.0490 o         1 DJR     -0.590000
     12 N1         -2.7110    5.1270   -1.0690 n         1 DJR     -0.520900
     13 C6         -3.0060    3.7620   -1.4760 c3        1 DJR      0.069700
     14 C8         -1.7530    2.8680   -1.4380 c3        1 DJR     -0.067100
     15 C9         -0.6280    3.4380   -2.2260 ca        1 DJR     -0.094300
     16 C11        -0.6440    3.3840   -3.6250 ca        1 DJR     -0.128500
     17 C13         0.4170    3.9070   -4.3610 ca        1 DJR     -0.127000
     18 C14         1.5050    4.4860   -3.7070 ca        1 DJR     -0.128000
     19 C12         1.5290    4.5390   -2.3130 ca        1 DJR     -0.127000
     20 C10         0.4670    4.0180   -1.5750 ca        1 DJR     -0.128500
     21 C7         -4.1190    3.0850   -0.6260 c3        1 DJR      0.122100
     22 O6         -5.3960    3.4240   -1.1280 oh        1 DJR     -0.603800
     23 C15        -4.0190    3.4070    0.8830 c3        1 DJR      0.207800
     24 N2         -4.2390    2.2940    1.7670 n3        1 DJR     -0.805500
     25 S          -2.9810    1.5310    2.4770 sy        1 DJR      1.507200
     26 O8         -1.8000    1.8130    1.7420 o         1 DJR     -0.659300
     27 O7         -3.2800    0.1670    2.6850 o         1 DJR     -0.659300
     28 C18        -2.8660    2.2840    3.9770 ca        1 DJR     -0.423500
     29 C23        -2.0880    3.4340    4.1470 ca        1 DJR      0.018000
     30 C22        -1.9630    4.0510    5.3870 ca        1 DJR     -0.210500
     31 C21        -2.6340    3.5020    6.4900 ca        1 DJR      0.190100
     32 O1         -2.5940    4.0200    7.7620 os        1 DJR     -0.318900
     33 C26        -1.7930    5.1840    7.9520 c3        1 DJR      0.109700
     34 C20        -3.4170    2.3380    6.3460 ca        1 DJR     -0.210500
     35 C19        -3.5210    1.7470    5.0980 ca        1 DJR      0.018000
     36 C16        -5.5990    1.9340    2.0720 c3        1 DJR      0.235800
     37 C17        -6.3490    1.1250    1.0000 c3        1 DJR     -0.095700
     38 C25        -5.6870   -0.2100    0.7450 c3        1 DJR     -0.089600
     39 C24        -7.7790    0.9300    1.4610 c3        1 DJR     -0.089600
     40 H          -4.1150    8.8930   -3.9230 hc        1 DJR      0.086700
     41 H27        -3.6460   11.2930   -3.5660 h2        1 DJR      0.102700
     42 H21        -0.1840    9.4680   -3.0080 h1        1 DJR      0.051700
     43 H22A       -0.4150    9.8380   -4.7890 h1        1 DJR      0.051700
     44 H11A       -2.1540    8.2480   -4.9730 hc        1 DJR      0.064700
     45 H12A       -1.5850    7.6040   -3.3820 hc        1 DJR      0.064700
     46 H31        -3.8000    9.8860   -0.0900 h1        1 DJR      0.063700
     47 H32        -2.0540    9.4410   -0.4640 h1        1 DJR      0.063700
     48 H5         -4.6360    8.3590   -1.7270 h1        1 DJR      0.094700
     49 HN1        -1.7530    5.3220   -0.8610 hn        1 DJR      0.327500
     50 H6         -3.4000    3.7800   -2.5400 h1        1 DJR      0.073700
     51 H81        -1.4410    2.6920   -0.3700 hc        1 DJR      0.086700
     52 H82        -2.0400    1.8710   -1.8690 hc        1 DJR      0.086700
     53 H11        -1.4990    2.9220   -4.1420 ha        1 DJR      0.136000
     54 H13         0.3990    3.8580   -5.4600 ha        1 DJR      0.134000
     55 H14         2.3440    4.8950   -4.2880 ha        1 DJR      0.134000
     56 H12         2.3880    4.9890   -1.7940 ha        1 DJR      0.134000
     57 H10         0.4970    4.0450   -0.4740 ha        1 DJR      0.136000
     58 H7         -4.0520    1.9720   -0.8060 h1        1 DJR      0.089700
     59 HO6        -5.4710    4.3880   -1.1540 ho        1 DJR      0.426000
     60 H151       -4.7660    4.2210    1.1100 h1        1 DJR      0.058700
     61 H152       -2.9860    3.8070    1.1060 h1        1 DJR      0.058700
     62 H23        -1.5500    3.8520    3.2780 ha        1 DJR      0.152500
     63 H22        -1.3430    4.9520    5.4910 ha        1 DJR      0.152500
     64 H261       -0.7250    4.9700    7.7060 h1        1 DJR      0.051367
     65 H262       -1.9120    5.4010    9.0440 h1        1 DJR      0.051367
     66 H263       -2.1790    6.0300    7.3350 h1        1 DJR      0.051367
     67 H20        -3.9270    1.9170    7.2240 ha        1 DJR      0.152500
     68 H19        -4.1170    0.8240    4.9790 ha        1 DJR      0.152500
     69 H161       -6.1910    2.8740    2.2730 h1        1 DJR      0.044200
     70 H162       -5.5840    1.3250    3.0250 h1        1 DJR      0.044200
     71 H17        -6.3560    1.7200    0.0420 hc        1 DJR      0.080700
     72 H251       -5.4960   -0.7520    1.7040 hc        1 DJR      0.036867
     73 H252       -6.3380   -0.8460    0.0970 hc        1 DJR      0.036867
     74 H253       -4.7070   -0.0710    0.2280 hc        1 DJR      0.036867
     75 H241       -7.8120    0.3400    2.4080 hc        1 DJR      0.036867
     76 H242       -8.3580    0.3800    0.6820 hc        1 DJR      0.036867
     77 H243       -8.2730    1.9160    1.6380 hc        1 DJR      0.036867
@<TRIPOS>BOND
     1    1    3 1   
     2    1    6 1   
     3    1    8 1   
     4    1   40 1   
     5    2    3 1   
     6    2    7 1   
     7    3    4 1   
     8    3   41 1   
     9    4    5 1   
    10    5    6 1   
    11    5   42 1   
    12    5   43 1   
    13    6   44 1   
    14    6   45 1   
    15    7    8 1   
    16    7   46 1   
    17    7   47 1   
    18    8    9 1   
    19    8   48 1   
    20    9   10 1   
    21   10   11 2   
    22   10   12 1   
    23   12   13 1   
    24   12   49 1   
    25   13   14 1   
    26   13   21 1   
    27   13   50 1   
    28   14   15 1   
    29   14   51 1   
    30   14   52 1   
    31   15   16 ar  
    32   15   20 ar  
    33   16   17 ar  
    34   16   53 1   
    35   17   18 ar  
    36   17   54 1   
    37   18   19 ar  
    38   18   55 1   
    39   19   20 ar  
    40   19   56 1   
    41   20   57 1   
    42   21   22 1   
    43   21   23 1   
    44   21   58 1   
    45   22   59 1   
    46   23   24 1   
    47   23   60 1   
    48   23   61 1   
    49   24   25 1   
    50   24   36 1   
    51   25   26 2   
    52   25   27 2   
    53   25   28 1   
    54   28   29 ar  
    55   28   35 ar  
    56   29   30 ar  
    57   29   62 1   
    58   30   31 ar  
    59   30   63 1   
    60   31   32 1   
    61   31   34 ar  
    62   32   33 1   
    63   33   64 1   
    64   33   65 1   
    65   33   66 1   
    66   34   35 ar  
    67   34   67 1   
    68   35   68 1   
    69   36   37 1   
    70   36   69 1   
    71   36   70 1   
    72   37   38 1   
    73   37   39 1   
    74   37   71 1   
    75   38   72 1   
    76   38   73 1   
    77   38   74 1   
    78   39   75 1   
    79   39   76 1   
    80   39   77 1   
@<TRIPOS>SUBSTRUCTURE
     1 DJR         1 TEMP              0 ****  ****    0 ROOT
