@<TRIPOS>MOLECULE
DJR
   77    75     1     0     0
SMALL
bcc


@<TRIPOS>ATOM
      1 C           0.2700   -4.4530    3.4890 c3        1 DJR     -0.170000
      2 O          -0.3100   -3.9540    5.5610 os        1 DJR     -0.273000
      3 C27         0.6350   -4.7500    4.5830 c3        1 DJR      0.141000
      4 O9          0.4190   -6.3690    4.7310 os        1 DJR     -0.277000
      5 C2         -0.6810   -6.6340    4.1260 c3        1 DJR     -0.028000
      6 C1         -0.8220   -5.5550    3.0970 c3        1 DJR     -0.185000
      7 C3         -1.0220   -2.9650    4.7060 c3        1 DJR     -0.029000
      8 C5         -0.3990   -2.9800    3.6030 c3        1 DJR      0.019000
      9 O4          0.6510   -1.9400    3.5940 os        1 DJR     -0.277000
     10 C4          0.3340   -0.7740    2.7480 c2        1 DJR      0.385000
     11 O5         -0.8420   -0.4230    2.5970 o         1 DJR     -0.408000
     12 N1          1.3720   -0.1580    1.9660 n         1 DJR     -0.321000
     13 C6          1.1590    1.1110    1.3820 c3        1 DJR     -0.011000
     14 C8          1.9540    2.1430    2.1250 c3        1 DJR     -0.143000
     15 C9          1.0260    2.9180    3.0800 c2        1 DJR     -0.088000
     16 C11         0.0370    2.2490    3.7740 c2        1 DJR     -0.121000
     17 C13        -0.7590    2.9300    4.6710 c1        1 DJR     -0.125000
     18 C14        -0.5690    4.2840    4.8780 c1        1 DJR     -0.126000
     19 C12         0.4220    4.9570    4.1830 c1        1 DJR     -0.126000
     20 C10         1.2200    4.2740    3.2840 c1        1 DJR     -0.134000
     21 C7          1.6080    1.0830   -0.1000 c3        1 DJR      0.012000
     22 O6          1.6850    2.3830   -0.5860 oh        1 DJR     -0.330000
     23 C15         0.5910    0.2820   -0.9280 c3        1 DJR     -0.049000
     24 N2          0.7260    0.6060   -2.2940 n3        1 DJR     -0.818000
     25 S           0.2110    2.0740   -2.5410 s4        1 DJR      2.068800
     26 O8          1.2110    2.8800   -3.1190 o         1 DJR     -0.549400
     27 O7         -0.0230    2.7720   -1.2780 o         1 DJR     -0.549400
     28 C18        -1.2910    2.0450   -3.5750 c1        1 DJR     -0.869000
     29 C23        -2.4950    2.5350   -3.0710 c2        1 DJR      0.031000
     30 C22        -3.6090    2.6250   -3.8970 c1        1 DJR     -0.236000
     31 C21        -3.5240    2.2250   -5.2310 c1        1 DJR      0.143000
     32 O1         -4.6590    2.3420   -6.0810 os        1 DJR     -0.204000
     33 C26        -5.6120    1.2800   -5.9280 c3        1 DJR     -0.079000
     34 C20        -2.3250    1.7360   -5.7360 c1        1 DJR     -0.189000
     35 C19        -1.2060    1.6450   -4.9090 c1        1 DJR      0.013000
     36 C16         2.0640    0.5040   -2.6700 c3        1 DJR     -0.016000
     37 C17         2.3150   -0.8790   -3.3020 c3        1 DJR     -0.123000
     38 C25         3.5330   -1.5050   -2.6710 c3        1 DJR     -0.212000
     39 C24         2.5390   -0.7190   -4.7810 c3        1 DJR     -0.212000
     40 H           1.0470   -4.4530    2.8320 hc        1 DJR      0.131000
     41 H27         1.5640   -4.5070    4.7200 h2        1 DJR      0.143000
     42 H21        -0.6310   -7.5250    3.6860 h1        1 DJR      0.090500
     43 H22A       -1.4460   -6.6040    4.7680 h1        1 DJR      0.090500
     44 H11A       -1.7270   -5.1670    3.1330 hc        1 DJR      0.101500
     45 H12A       -0.6370   -5.9150    2.1960 hc        1 DJR      0.101500
     46 H31        -1.9400   -3.2280    4.5790 h1        1 DJR      0.106500
     47 H32        -0.9760   -2.0810    5.1050 h1        1 DJR      0.106500
     48 H5         -1.0170   -2.8380    2.8690 h1        1 DJR      0.139000
     49 HN1         2.1590   -0.5760    1.8560 hn        1 DJR      0.236000
     50 H6          0.1890    1.3400    1.4300 h1        1 DJR      0.117000
     51 H81         2.6540    1.7040    2.6400 hc        1 DJR      0.114000
     52 H82         2.3550    2.7580    1.4950 hc        1 DJR      0.114000
     53 H11        -0.0960    1.2960    3.6300 ha        1 DJR      0.137000
     54 H13        -1.4690    2.4480    5.1690 ha        1 DJR      0.135000
     55 H14        -1.1210    4.7540    5.4990 ha        1 DJR      0.134000
     56 H12         0.5620    5.9510    4.3330 ha        1 DJR      0.134000
     57 H10         1.8960    4.7320    2.8090 ha        1 DJR      0.128000
     58 H7          2.4780    0.6650   -0.1650 h1        1 DJR      0.117000
     59 HO6         2.5440    2.6570   -0.5730 ho        1 DJR      0.232000
     60 H151        0.7470   -0.6530   -0.8060 h1        1 DJR      0.107000
     61 H152       -0.2990    0.4980   -0.6350 h1        1 DJR      0.107000
     62 H23        -2.5570    2.8190   -2.1270 ha        1 DJR      0.158000
     63 H22        -4.4720    2.9770   -3.5340 ha        1 DJR      0.147000
     64 H261       -5.1390    0.4210   -5.8760 h1        1 DJR      0.089667
     65 H262       -6.1280    1.4200   -5.1050 h1        1 DJR      0.089667
     66 H263       -6.2270    1.2710   -6.7090 h1        1 DJR      0.089667
     67 H20        -2.2640    1.4470   -6.7010 ha        1 DJR      0.158000
     68 H19        -0.3700    1.3040   -5.2590 ha        1 DJR      0.158000
     69 H161        2.6400    0.6100   -1.8700 h1        1 DJR      0.102000
     70 H162        2.2840    1.2280   -3.3450 h1        1 DJR      0.102000
     71 H17         1.5450   -1.4500   -3.1520 hc        1 DJR      0.089000
     72 H251        3.3920   -1.5940   -1.7250 hc        1 DJR      0.076500
     73 H252        3.6910   -2.4120   -3.0740 hc        1 DJR      0.076500
     74 H253        4.2880   -0.9550   -2.8280 hc        1 DJR      0.076500
     75 H241        2.9680    0.1700   -4.9610 hc        1 DJR      0.076500
     76 H242        1.6740   -0.7660   -5.2500 hc        1 DJR      0.076500
     77 H243        3.1220   -1.4320   -5.1010 hc        1 DJR      0.076500
@<TRIPOS>BOND
     1    1    3 1   
     2    1    6 1   
     3    1    8 1   
     4    1   40 1   
     5    2    3 1   
     6    2    7 1   
     7    3    4 1   
     8    3   41 1   
     9    4    5 1   
    10    5    6 1   
    11    5   42 1   
    12    5   43 1   
    13    6   44 1   
    14    6   45 1   
    15    7    8 1   
    16    7   46 1   
    17    7   47 1   
    18    8    9 1   
    19    8   48 1   
    20    9   10 1   
    21   10   11 1   
    22   10   12 1   
    23   12   13 1   
    24   12   49 1   
    25   13   14 1   
    26   13   21 1   
    27   13   50 1   
    28   14   15 1   
    29   14   51 1   
    30   14   52 1   
    31   15   16 1   
    32   15   20 1   
    33   16   17 1   
    34   16   53 1   
    35   17   54 1   
    36   18   19 1   
    37   18   55 1   
    38   19   56 1   
    39   20   57 1   
    40   21   22 1   
    41   21   23 1   
    42   21   58 1   
    43   22   59 1   
    44   23   24 1   
    45   23   60 1   
    46   23   61 1   
    47   24   25 1   
    48   24   36 1   
    49   25   26 1   
    50   25   27 1   
    51   28   29 1   
    52   28   35 1   
    53   29   30 1   
    54   29   62 1   
    55   30   63 1   
    56   31   32 1   
    57   31   34 1   
    58   32   33 1   
    59   33   64 1   
    60   33   65 1   
    61   33   66 1   
    62   34   67 1   
    63   35   68 1   
    64   36   37 1   
    65   36   69 1   
    66   36   70 1   
    67   37   38 1   
    68   37   39 1   
    69   37   71 1   
    70   38   72 1   
    71   38   73 1   
    72   38   74 1   
    73   39   75 1   
    74   39   76 1   
    75   39   77 1   
@<TRIPOS>SUBSTRUCTURE
     1 DJR         1 TEMP              0 ****  ****    0 ROOT
