@<TRIPOS>MOLECULE
DJT
   61    63     1     0     0
SMALL
bcc


@<TRIPOS>ATOM
      1 C1         -1.6710   -0.4380    1.1980 c2        1 DJT     -0.206000
      2 C2         -1.4940    0.1110   -0.1780 c2        1 DJT      0.363000
      3 CL2        -0.5230    3.7870    5.2360 cl        1 DJT      0.077000
      4 N3         -2.5060    0.9050   -0.6790 n         1 DJT     -0.349000
      5 C4         -2.3290    1.8110   -1.8160 c3        1 DJT     -0.006000
      6 C5         -1.2660    2.9070   -1.5760 c2        1 DJT     -0.031000
      7 O6         -0.4980   -0.2290   -0.8580 o         1 DJT     -0.425000
      8 C7         -1.9030    1.0560   -3.1040 c3        1 DJT     -0.195000
      9 C8         -3.5460    2.5500   -2.2290 c1        1 DJT      0.007000
     10 N9         -0.7100    3.0770   -0.4420 n2        1 DJT     -0.293000
     11 N10         2.9440   -0.1140   -3.0200 n         1 DJT     -0.389000
     12 C11         2.1000   -1.1860   -2.5950 c3        1 DJT     -0.014000
     13 C12        -1.2720    1.6850    2.4850 c3        1 DJT     -0.820000
     14 C13        -1.5280    0.2410    2.3390 c2        1 DJT     -0.076000
     15 S14         0.3660    2.2240    2.3960 s6        1 DJT      2.883000
     16 C15         0.8820    1.8780    3.9720 c2        1 DJT     -0.888000
     17 C16         0.5850    2.5240    5.1410 c2        1 DJT      0.147000
     18 C17         1.2280    2.1560    6.4300 c3        1 DJT     -0.190000
     19 C18         2.1640    1.0160    6.3530 c2        1 DJT     -0.037000
     20 C19         2.4180    0.3830    5.1820 c2        1 DJT     -0.204000
     21 C20         1.8080    0.7910    3.9660 c1        1 DJT     -0.096000
     22 O22         1.0790    1.4830    1.4430 o         1 DJT     -0.936500
     23 O23         0.3780    3.6100    2.2160 o         1 DJT     -0.936500
     24 C24         3.6590    0.7060   -2.1700 c2        1 DJT      0.339000
     25 O25         4.3540    1.6150   -2.6590 o         1 DJT     -0.332000
     26 C26         4.9330    0.5120    0.0460 cx        1 DJT     -0.164500
     27 C27         3.6020    0.4800   -0.6850 cx        1 DJT     -0.147000
     28 C28         3.9990    1.6700    0.1690 cx        1 DJT     -0.164500
     29 C29         2.3240   -2.1100    1.6230 c2        1 DJT     -0.279000
     30 C30         2.0170   -3.1170    0.6720 c2        1 DJT      0.325000
     31 C31         1.9620   -2.8130   -0.7150 c2        1 DJT     -0.264000
     32 C32         2.2150   -1.5330   -1.1450 c2        1 DJT      0.131000
     33 C33         2.5030   -0.4330   -0.2040 c3        1 DJT     -0.130000
     34 C34         2.5880   -0.8280    1.2100 c2        1 DJT      0.109000
     35 H1          2.9970    0.0610   -3.9990 hn        1 DJT      0.261000
     36 HN3        -1.8860   -1.5200    1.2050 ha        1 DJT      0.160000
     37 H7         -0.8890    0.6140   -2.9540 hc        1 DJT      0.106000
     38 H7A        -1.8750    1.7740   -3.9590 hc        1 DJT      0.106000
     39 H8         -2.6270    0.2390   -3.3300 hc        1 DJT      0.106000
     40 H8A        -4.5070    2.2630   -1.7760 ha        1 DJT      0.062000
     41 H11        -1.8520    2.2450    1.6940 h1        1 DJT      0.168500
     42 H11A        1.0050   -0.9080   -2.7550 h1        1 DJT      0.132500
     43 H12         2.3170   -2.0990   -3.2280 h1        1 DJT      0.132500
     44 H13        -1.7400    2.0220    3.4520 h1        1 DJT      0.168500
     45 H13A       -1.6300   -0.3060    3.2960 ha        1 DJT      0.138000
     46 H17         0.4280    1.9250    7.1970 hc        1 DJT      0.178500
     47 H18         1.7880    3.0590    6.8250 hc        1 DJT      0.178500
     48 H19         2.6410    0.7230    7.3040 ha        1 DJT      0.158000
     49 H20         3.1200   -0.4660    5.1390 ha        1 DJT      0.158000
     50 H26         4.2480    2.6130   -0.3570 hc        1 DJT      0.138000
     51 H26A        5.0790   -0.1690    0.9030 hc        1 DJT      0.138000
     52 H28         5.8520    0.6290   -0.5610 hc        1 DJT      0.138000
     53 H28A        3.4420    1.8450    1.1080 hc        1 DJT      0.138000
     54 H31         2.7780   -0.0270    1.9670 ha        1 DJT      0.234000
     55 H32         1.7180   -3.6200   -1.4280 ha        1 DJT      0.189000
     56 H34         1.5170    0.2200   -0.2070 hc        1 DJT      0.308000
     57 H5         -0.0370    3.8120   -0.3670 hn        1 DJT      0.186000
     58 HN9        -1.0850    3.4970   -2.5000 h4        1 DJT      0.139000
     59 F35         1.7800   -4.3660    1.0800 f         1 DJT     -0.035000
     60 H321       -3.1990    1.1980   -0.0240 hn        1 DJT      0.220000
     61 H29         2.3480   -2.3730    2.6940 ha        1 DJT      0.188000
@<TRIPOS>BOND
     1    1    2 1   
     2    1   14 1   
     3    1   36 1   
     4    2    4 1   
     5    2    7 1   
     6    3   17 1   
     7    4    5 1   
     8    4   60 1   
     9    5    6 1   
    10    5    8 1   
    11    5    9 1   
    12    6   10 1   
    13    6   58 1   
    14    8   37 1   
    15    8   38 1   
    16    8   39 1   
    17    9   40 1   
    18   10   57 1   
    19   11   12 1   
    20   11   24 1   
    21   11   35 1   
    22   12   32 1   
    23   12   42 1   
    24   12   43 1   
    25   13   14 1   
    26   13   15 1   
    27   13   41 1   
    28   13   44 1   
    29   14   45 1   
    30   15   16 1   
    31   15   22 1   
    32   15   23 1   
    33   16   17 1   
    34   16   21 1   
    35   17   18 1   
    36   18   19 1   
    37   18   46 1   
    38   18   47 1   
    39   19   20 1   
    40   19   48 1   
    41   20   21 1   
    42   20   49 1   
    43   24   25 1   
    44   24   27 1   
    45   26   27 1   
    46   26   28 1   
    47   26   51 1   
    48   26   52 1   
    49   27   28 1   
    50   27   33 1   
    51   28   50 1   
    52   28   53 1   
    53   29   30 1   
    54   29   34 1   
    55   29   61 1   
    56   30   31 1   
    57   30   59 1   
    58   31   32 1   
    59   31   55 1   
    60   32   33 1   
    61   33   34 1   
    62   33   56 1   
    63   34   54 1   
@<TRIPOS>SUBSTRUCTURE
     1 DJT         1 TEMP              0 ****  ****    0 ROOT
