@<TRIPOS>MOLECULE
DJT
   60    64     1     0     0
SMALL
bcc


@<TRIPOS>ATOM
      1 C1          0.7130    1.2060    1.0600 c3        1 DJT      0.034700
      2 C2          1.6400    2.3910    0.6860 c         1 DJT      0.661100
      3 CL2         2.0620   -2.7830   -2.8140 cl        1 DJT     -0.066400
      4 N3          1.0660    3.6380    0.7210 n         1 DJT     -0.528900
      5 C4          1.7620    4.8420    0.3950 cx        1 DJT     -0.004900
      6 C5          3.0000    5.0770    1.2230 c2        1 DJT      0.446200
      7 O6          2.8410    2.2050    0.4090 o         1 DJT     -0.621100
      8 C7          1.8620    5.3300   -1.0480 cx        1 DJT     -0.119900
      9 C8          0.9660    6.0470   -0.0860 cx        1 DJT     -0.119900
     10 N9          3.1140    6.0750    2.0120 n2        1 DJT     -0.765100
     11 N10        -0.3800    1.0400    0.1090 n         1 DJT     -0.453800
     12 C11        -0.2240   -0.1800   -0.6600 c3        1 DJT      0.125000
     13 C12         1.0280   -0.9190   -0.1410 c3        1 DJT     -0.294900
     14 C13         1.4980   -0.1220    1.0770 c3        1 DJT     -0.057400
     15 S14         0.7250   -2.5950    0.1720 sy        1 DJT      1.368300
     16 C15         2.2480   -3.2440   -0.1560 ca        1 DJT     -0.370500
     17 C16         2.8440   -3.3640   -1.4220 ca        1 DJT      0.127400
     18 C17         4.0990   -3.9590   -1.5860 ca        1 DJT     -0.151000
     19 C18         4.7860   -4.4450   -0.4760 ca        1 DJT     -0.054000
     20 C19         4.2180   -4.3360    0.7940 ca        1 DJT     -0.151000
     21 C20         2.9690   -3.7450    0.9430 ca        1 DJT     -0.023000
     22 O22         0.4370   -2.7770    1.5350 o         1 DJT     -0.642800
     23 O23        -0.2420   -3.0610   -0.7270 o         1 DJT     -0.642800
     24 C24        -1.6040    1.6630    0.2990 c         1 DJT      0.703100
     25 O25        -1.7040    2.5980    1.1210 o         1 DJT     -0.615100
     26 C26        -3.4790    2.3180   -1.3290 cx        1 DJT     -0.102900
     27 C27        -2.7810    1.2290   -0.5380 cx        1 DJT     -0.148700
     28 C28        -2.6680    1.2860   -2.0440 cx        1 DJT     -0.102900
     29 C29        -5.0000   -0.4510    1.9970 ca        1 DJT     -0.164500
     30 C30        -5.1520   -1.7310    1.4300 ca        1 DJT      0.133900
     31 C31        -4.5140   -2.0480    0.2170 ca        1 DJT     -0.164500
     32 C32        -3.7390   -1.0850   -0.4220 ca        1 DJT     -0.090500
     33 C33        -3.5880    0.1910    0.1310 ca        1 DJT     -0.086300
     34 C34        -4.2200    0.4960    1.3460 ca        1 DJT     -0.090500
     35 H1          0.2940    1.4230    2.0880 h1        1 DJT      0.092700
     36 HN3         0.1110    3.7370    0.9960 hn        1 DJT      0.348500
     37 H7          2.8070    5.8040   -1.3660 hc        1 DJT      0.081700
     38 H7A         1.4110    4.7240   -1.8530 hc        1 DJT      0.081700
     39 H8         -0.1290    5.9530   -0.2040 hc        1 DJT      0.081700
     40 H8A         1.2530    7.0450    0.2910 hc        1 DJT      0.081700
     41 H11        -1.1440   -0.8290   -0.5730 h1        1 DJT      0.068200
     42 H11A       -0.0900    0.0870   -1.7450 h1        1 DJT      0.068200
     43 H12         1.8200   -0.8090   -0.9330 h1        1 DJT      0.129700
     44 H13         2.6000    0.0700    1.0300 hc        1 DJT      0.090200
     45 H13A        1.2690   -0.6720    2.0270 hc        1 DJT      0.090200
     46 H17         4.5430   -4.0450   -2.5900 ha        1 DJT      0.158000
     47 H18         5.7740   -4.9140   -0.6040 ha        1 DJT      0.147000
     48 H19         4.7550   -4.7190    1.6760 ha        1 DJT      0.150000
     49 H20         2.5210   -3.6710    1.9540 ha        1 DJT      0.173000
     50 H26        -4.5810    2.2870   -1.4010 hc        1 DJT      0.084450
     51 H26A       -3.0960    3.3510   -1.2450 hc        1 DJT      0.084450
     52 H28        -3.1850    0.5120   -2.6420 hc        1 DJT      0.084450
     53 H28A       -1.7000    1.5750   -2.4940 hc        1 DJT      0.084450
     54 H29        -5.4960   -0.2140    2.9490 ha        1 DJT      0.153500
     55 H31        -4.6270   -3.0540   -0.2130 ha        1 DJT      0.153500
     56 H32        -3.2380   -1.3420   -1.3690 ha        1 DJT      0.151000
     57 H34        -4.0830    1.4980    1.7870 ha        1 DJT      0.151000
     58 H5          3.7670    4.2860    1.0540 h4        1 DJT     -0.002200
     59 HN9         3.9850    6.1320    2.4990 hn        1 DJT      0.386400
     60 F35        -5.9130   -2.6590    2.0560 f         1 DJT     -0.138900
@<TRIPOS>BOND
     1    1    2 1   
     2    1   11 1   
     3    1   14 1   
     4    1   35 1   
     5    2    4 1   
     6    2    7 2   
     7    3   17 1   
     8    4    5 1   
     9    4   36 1   
    10    5    6 1   
    11    5    8 1   
    12    5    9 1   
    13    6   10 2   
    14    6   58 1   
    15    8    9 1   
    16    8   37 1   
    17    8   38 1   
    18    9   39 1   
    19    9   40 1   
    20   10   59 1   
    21   11   12 1   
    22   11   24 1   
    23   12   13 1   
    24   12   41 1   
    25   12   42 1   
    26   13   14 1   
    27   13   15 1   
    28   13   43 1   
    29   14   44 1   
    30   14   45 1   
    31   15   16 1   
    32   15   22 2   
    33   15   23 2   
    34   16   17 ar  
    35   16   21 ar  
    36   17   18 ar  
    37   18   19 ar  
    38   18   46 1   
    39   19   20 ar  
    40   19   47 1   
    41   20   21 ar  
    42   20   48 1   
    43   21   49 1   
    44   24   25 2   
    45   24   27 1   
    46   26   27 1   
    47   26   28 1   
    48   26   50 1   
    49   26   51 1   
    50   27   28 1   
    51   27   33 1   
    52   28   52 1   
    53   28   53 1   
    54   29   30 ar  
    55   29   34 ar  
    56   29   54 1   
    57   30   31 ar  
    58   30   60 1   
    59   31   32 ar  
    60   31   55 1   
    61   32   33 ar  
    62   32   56 1   
    63   33   34 ar  
    64   34   57 1   
@<TRIPOS>SUBSTRUCTURE
     1 DJT         1 TEMP              0 ****  ****    0 ROOT
