@<TRIPOS>MOLECULE
DJT
   61    62     1     0     0
SMALL
bcc


@<TRIPOS>ATOM
      1 C1         -2.7000    0.2500    0.4720 c2        1 DJT     -0.216000
      2 C2         -2.1660    0.8300   -0.7900 c2        1 DJT      0.363000
      3 Cl2         1.6860    2.6170    5.4170 cl        1 DJT      0.089000
      4 N3         -2.8000    1.9330   -1.2980 ns        1 DJT     -0.310000
      5 C4         -2.3290    2.6520   -2.4400 cx        1 DJT     -0.040000
      6 C5         -0.8150    2.9080   -2.4760 c3        1 DJT     -0.128000
      7 O6         -1.1880    0.2990   -1.3770 o         1 DJT     -0.460000
      8 C7         -2.9870    2.4630   -3.8020 cx        1 DJT     -0.199500
      9 C8         -3.2010    3.7390   -3.0480 cx        1 DJT     -0.199500
     10 N9         -0.1050    3.1090   -1.3630 n1        1 DJT     -0.197000
     11 N10         1.4110   -0.6480   -0.5320 ns        1 DJT     -0.195000
     12 C11         1.6650   -1.2860    0.5730 c2        1 DJT      0.197000
     13 C12        -1.3820    1.7070    2.0230 c3        1 DJT     -0.806000
     14 C13        -2.3260    0.6180    1.6980 c2        1 DJT     -0.073000
     15 S14         0.1090    1.2220    2.7130 s6        1 DJT      2.890000
     16 C15        -0.2400    1.0740    4.3440 c2        1 DJT     -0.906000
     17 C16         0.3550    1.5940    5.4600 c2        1 DJT      0.159000
     18 C17        -0.1490    1.2820    6.8250 c3        1 DJT     -0.191000
     19 C18        -1.3000    0.3550    6.8750 c2        1 DJT     -0.043000
     20 C19        -1.8580   -0.1500    5.7490 c2        1 DJT     -0.191000
     21 C20        -1.3660    0.2000    4.4650 c1        1 DJT     -0.091000
     22 O22         0.5530   -0.0090    2.1630 o         1 DJT     -0.978500
     23 O23         1.0500    2.2370    2.4790 o         1 DJT     -0.978500
     24 C24         2.2800    0.3480   -1.1610 c2        1 DJT      0.345000
     25 O25         1.8110    0.8900   -2.1580 o         1 DJT     -0.216000
     26 C26         4.2210    1.9740   -0.8440 cx        1 DJT     -0.161000
     27 C27         3.6150    0.6070   -0.5490 cx        1 DJT     -0.159000
     28 C28         3.6830    1.6940    0.5160 cx        1 DJT     -0.161000
     29 C29         7.1920   -4.1300    0.1010 c2        1 DJT     -0.505000
     30 C30         6.2030   -3.0670    0.0180 c2        1 DJT      0.174000
     31 C31         6.5440   -1.7590    0.1760 c2        1 DJT     -0.205000
     32 C32         5.6680   -0.6170    0.1200 c2        1 DJT     -0.073000
     33 C33         4.4720   -0.5820   -0.4920 c2        1 DJT     -0.188000
     34 C34         7.0430   -5.4410    0.0250 c1        1 DJT      0.302000
     35 H1          0.5080   -0.7600   -0.9970 hn        1 DJT      0.309000
     36 HN3        -3.4170   -0.5730    0.3110 ha        1 DJT      0.168000
     37 H7         -3.8290    1.7560   -3.9060 hc        1 DJT      0.124500
     38 H7A        -2.3370    2.4620   -4.6960 hc        1 DJT      0.124500
     39 H8         -4.1980    3.9450   -2.6170 hc        1 DJT      0.124500
     40 H8A        -2.7060    4.6660   -3.3920 hc        1 DJT      0.124500
     41 H11        -1.1500    2.3120    1.0950 h1        1 DJT      0.178000
     42 H11A        2.6180   -1.1290    1.1220 h4        1 DJT      0.199000
     43 H12         0.9230   -2.0000    0.9950 h4        1 DJT      0.199000
     44 H13        -1.9260    2.4230    2.7020 h1        1 DJT      0.178000
     45 H13A       -2.7290    0.0860    2.5870 ha        1 DJT      0.184000
     46 H17        -0.4390    2.2500    7.3370 hc        1 DJT      0.176000
     47 H18         0.6960    0.8450    7.4390 hc        1 DJT      0.176000
     48 H19        -1.6720    0.1090    7.8840 ha        1 DJT      0.159000
     49 H20        -2.7150   -0.8440    5.7940 ha        1 DJT      0.171000
     50 H26A        2.7450    2.1850    0.8510 hc        1 DJT      0.145250
     51 H28         5.3140    2.0210   -1.0040 hc        1 DJT      0.145250
     52 H28A        4.3820    1.5370    1.3590 hc        1 DJT      0.145250
     53 H29         8.2410   -3.7780    0.2460 ha        1 DJT      0.216000
     54 H31         7.6040   -1.5260    0.3810 ha        1 DJT      0.158000
     55 H32         6.0670    0.2870    0.6190 ha        1 DJT      0.138000
     56 H34         4.1050   -1.4660   -1.0430 ha        1 DJT      0.137000
     57 H5         -0.2690    1.8650   -2.6480 h1        1 DJT      0.200500
     58 HN9        -0.5860    3.5500   -3.3780 h1        1 DJT      0.200500
     59 F35         4.9230   -3.4610   -0.2060 f         1 DJT     -0.119000
     60 H321       -3.5590    2.3340   -0.7960 hn        1 DJT      0.242000
     61 H26         3.6670    2.6570   -1.5160 hc        1 DJT      0.145250
@<TRIPOS>BOND
     1    1    2 1   
     2    1   14 1   
     3    1   36 1   
     4    2    4 1   
     5    2    7 1   
     6    3   17 1   
     7    4    5 1   
     8    4   60 1   
     9    5    6 1   
    10    5    8 1   
    11    5    9 1   
    12    6   10 1   
    13    6   57 1   
    14    6   58 1   
    15    8    9 1   
    16    8   37 1   
    17    8   38 1   
    18    9   39 1   
    19    9   40 1   
    20   11   12 1   
    21   11   24 1   
    22   11   35 1   
    23   12   42 1   
    24   12   43 1   
    25   13   14 1   
    26   13   15 1   
    27   13   41 1   
    28   13   44 1   
    29   14   45 1   
    30   15   16 1   
    31   15   22 1   
    32   15   23 1   
    33   16   17 1   
    34   16   21 1   
    35   17   18 1   
    36   18   19 1   
    37   18   46 1   
    38   18   47 1   
    39   19   20 1   
    40   19   48 1   
    41   20   21 1   
    42   20   49 1   
    43   24   25 1   
    44   24   27 1   
    45   26   27 1   
    46   26   28 1   
    47   26   51 1   
    48   26   61 1   
    49   27   28 1   
    50   27   33 1   
    51   28   50 1   
    52   28   52 1   
    53   29   30 1   
    54   29   34 1   
    55   29   53 1   
    56   30   31 1   
    57   30   59 1   
    58   31   32 1   
    59   31   54 1   
    60   32   33 1   
    61   32   55 1   
    62   33   56 1   
@<TRIPOS>SUBSTRUCTURE
     1 DJT         1 TEMP              0 ****  ****    0 ROOT
