@<TRIPOS>MOLECULE
DJT
   60    58     1     0     0
SMALL
bcc


@<TRIPOS>ATOM
      1 C1         -0.9510   -0.7630   -0.4430 c3        1 DJT      0.009000
      2 C2         -1.6860    0.5170   -0.7540 c2        1 DJT      0.306000
      3 CL2         0.4130    1.8440    4.7990 cl        1 DJT      0.012000
      4 N3         -3.0090    0.4660   -1.3490 n         1 DJT     -0.340000
      5 C4         -3.6850    1.7000   -1.7340 cx        1 DJT     -0.011000
      6 C5         -2.2500    2.3830   -1.1620 c2        1 DJT     -0.035000
      7 O6         -1.1400    1.5890   -0.5760 o         1 DJT     -0.373000
      8 C7         -4.6680    2.0850   -3.0000 cx        1 DJT     -0.209500
      9 C8         -5.2560    2.1860   -1.6400 cx        1 DJT     -0.209500
     10 N9         -2.2150    2.9390    0.0300 n1        1 DJT     -0.223000
     11 N10         0.6260   -0.5140   -0.5420 n         1 DJT     -0.313000
     12 C11         1.1490   -0.4200    0.8550 c3        1 DJT      0.009000
     13 C12         0.0980   -0.2980    1.6410 c3        1 DJT     -0.795000
     14 C13        -1.1010   -1.0530    0.7920 c3        1 DJT     -0.135000
     15 S14         0.2240   -0.9870    3.4120 s4        1 DJT      2.048800
     16 C15        -1.1270   -0.3670    4.4190 c1        1 DJT     -0.816000
     17 C16        -1.0210    0.8770    5.0320 c2        1 DJT      0.050000
     18 C17        -2.0160    1.3090    5.9030 c1        1 DJT     -0.151000
     19 C18        -3.1160    0.4980    6.1610 c2        1 DJT     -0.054000
     20 C19        -3.2220   -0.7450    5.5480 c1        1 DJT     -0.151000
     21 C20        -2.2280   -1.1780    4.6770 c1        1 DJT     -0.023000
     22 O22         0.2580   -2.4270    3.4120 o         1 DJT     -0.530400
     23 O23         1.5010   -0.6780    4.0040 o         1 DJT     -0.530400
     24 C24         1.4070   -0.3990   -1.7670 c2        1 DJT      0.348000
     25 O25         0.8570   -0.4950   -2.8500 o         1 DJT     -0.380000
     26 C26         4.0590    0.4390   -0.8570 cx        1 DJT     -0.181500
     27 C27         2.9240   -0.1080   -1.6930 cx        1 DJT     -0.106000
     28 C28         3.5210    1.2560   -1.9590 cx        1 DJT     -0.181500
     29 C29         5.0770   -2.8980   -3.0370 c1        1 DJT     -0.164500
     30 C30         4.8610   -2.7750   -4.4060 c2        1 DJT      0.100000
     31 C31         3.9880   -1.8050   -4.8890 c1        1 DJT     -0.164500
     32 C32         3.3310   -0.9570   -4.0020 c2        1 DJT     -0.090000
     33 C33         3.5470   -1.0790   -2.6320 c2        1 DJT     -0.080000
     34 C34         4.4200   -2.0500   -2.1500 c2        1 DJT     -0.090000
     35 F35         5.5050   -3.5860   -5.2630 f         1 DJT     -0.103000
     36 H1         -1.3530   -1.3750   -1.1020 h1        1 DJT      0.132000
     37 HN3        -3.4290   -0.3420   -1.4660 hn        1 DJT      0.259000
     38 H7         -4.9780    1.3260   -3.5400 hc        1 DJT      0.119500
     39 H7A        -4.4730    2.9410   -3.4410 hc        1 DJT      0.119500
     40 H8         -5.3970    3.0990   -1.3070 hc        1 DJT      0.119500
     41 H8A        -5.9020    1.4850   -1.4060 hc        1 DJT      0.119500
     42 H11         1.6490   -1.2360    1.0830 h1        1 DJT      0.107500
     43 H11A        1.7310    0.3680    0.9440 h1        1 DJT      0.107500
     44 H12        -0.0710    0.6540    1.8130 h1        1 DJT      0.169000
     45 H13        -1.9780   -0.7390    1.1040 hc        1 DJT      0.129500
     46 H13A       -1.0330   -2.0290    0.9160 hc        1 DJT      0.129500
     47 H17        -1.9420    2.1870    6.3360 DU        1 DJT      0.150000
     48 H18        -3.8180    0.8040    6.7760 ha        1 DJT      0.147000
     49 H19        -3.9990   -1.3170    5.7310 ha        1 DJT      0.150000
     50 H20        -2.3030   -2.0560    4.2460 ha        1 DJT      0.173000
     51 H26         3.8180    0.7340    0.0470 hc        1 DJT      0.123500
     52 H26A        4.9400    0.0350   -1.0180 hc        1 DJT      0.123500
     53 H28         2.9680    2.0220   -1.6900 hc        1 DJT      0.123500
     54 H28A        4.0910    1.3230   -2.7570 hc        1 DJT      0.123500
     55 H29         5.6930   -3.5830   -2.6970 DU        1 DJT      0.150000
     56 H31         3.8360   -1.7190   -5.8550 DU        1 DJT      0.150000
     57 H32         2.7160   -0.2740   -4.3420 ha        1 DJT      0.150500
     58 H34         4.5720   -2.1370   -1.1850 ha        1 DJT      0.150500
     59 H5         -1.4420    2.3650   -1.7190 h4        1 DJT      0.178000
     60 HN9        -2.9700    2.9560    0.5500 DU        1 DJT      0.150000
@<TRIPOS>BOND
     1    1    2 1   
     2    1   11 1   
     3    1   14 1   
     4    1   36 1   
     5    2    4 1   
     6    2    7 1   
     7    3   17 1   
     8    4    5 1   
     9    4   37 1   
    10    5    6 1   
    11    5    8 1   
    12    5    9 1   
    13    6   10 1   
    14    6   59 1   
    15    8    9 1   
    16    8   38 1   
    17    8   39 1   
    18    9   40 1   
    19    9   41 1   
    20   11   12 1   
    21   11   24 1   
    22   12   13 1   
    23   12   42 1   
    24   12   43 1   
    25   13   14 1   
    26   13   15 1   
    27   13   44 1   
    28   14   45 1   
    29   14   46 1   
    30   15   22 1   
    31   15   23 1   
    32   16   17 1   
    33   16   21 1   
    34   17   18 1   
    35   18   19 1   
    36   19   20 1   
    37   19   48 1   
    38   20   49 1   
    39   21   50 1   
    40   24   25 1   
    41   24   27 1   
    42   26   27 1   
    43   26   28 1   
    44   26   51 1   
    45   26   52 1   
    46   27   28 1   
    47   27   33 1   
    48   28   53 1   
    49   28   54 1   
    50   29   30 1   
    51   29   34 1   
    52   30   31 1   
    53   30   35 1   
    54   31   32 1   
    55   32   33 1   
    56   32   57 1   
    57   33   34 1   
    58   34   58 1   
@<TRIPOS>SUBSTRUCTURE
     1 DJT         1 TEMP              0 ****  ****    0 ROOT
