@<TRIPOS>MOLECULE
DJT
   61    61     1     0     0
SMALL
bcc


@<TRIPOS>ATOM
      1 C1         -1.9850    0.0800    0.1200 c2        1 DJT     -0.254000
      2 C2         -1.6990    1.4840   -0.2720 c2        1 DJT      0.361000
      3 CL2         1.5720    0.7380    5.5320 cl        1 DJT      0.099000
      4 N3         -2.6820    2.4090   -0.0580 n         1 DJT     -0.346000
      5 C4         -2.5220    3.8450   -0.2850 c3        1 DJT     -0.066000
      6 C5         -1.1380    4.3760    0.3050 c3        1 DJT     -0.161000
      7 O6         -0.5940    1.8070   -0.7970 o         1 DJT     -0.509000
      8 C7         -2.5110    4.1890   -1.7920 c3        1 DJT     -0.197000
      9 C8         -3.5330    4.7160    0.3230 c1        1 DJT     -0.017000
     10 N9         -0.7010    3.9350    1.4860 n1        1 DJT     -0.143000
     11 N10         1.1860   -0.1800   -1.2190 n4        1 DJT     -0.090000
     12 C11         1.2330   -0.9420    0.0590 c3        1 DJT     -0.099000
     13 C12         0.2780   -0.3750    1.1070 c3        1 DJT     -0.737000
     14 C13        -1.1240   -0.7210    0.7610 c2        1 DJT     -0.010000
     15 S14         0.7930   -0.9950    2.6960 s6        1 DJT      2.889000
     16 C15        -0.2030   -0.1680    3.7330 c2        1 DJT     -0.927000
     17 C16         0.0380    0.5260    4.8880 c2        1 DJT      0.175000
     18 C17        -1.0720    1.1430    5.6620 c3        1 DJT     -0.192000
     19 C18        -2.4250    0.9090    5.1160 c2        1 DJT     -0.034000
     20 C19        -2.6270    0.2120    3.9710 c2        1 DJT     -0.191000
     21 C20        -1.5370   -0.3270    3.2420 c1        1 DJT     -0.087000
     22 O22         0.5920   -2.3690    2.7060 o         1 DJT     -0.927500
     23 O23         2.1260   -0.5650    2.7850 o         1 DJT     -0.927500
     24 C24         2.0870   -0.7650   -2.2710 c2        1 DJT      0.214000
     25 O25         1.5160   -1.3560   -3.1770 o         1 DJT     -0.195000
     26 C26         4.1840   -1.9050   -1.6700 c3        1 DJT     -0.202000
     27 C27         3.6070   -0.5600   -2.1450 c3        1 DJT     -0.079000
     28 C28         4.2700   -0.2730   -3.4250 c1        1 DJT      0.060000
     29 C29         6.8120   -1.0980    1.5260 c1        1 DJT     -0.240000
     30 C30         6.3110    0.2640    1.5810 c3        1 DJT      0.228000
     31 C31         4.8360    0.2770    1.2190 c2        1 DJT     -0.102000
     32 C32         4.3990    0.3960    0.0000 c1        1 DJT     -0.119000
     33 C33         3.9100    0.5650   -1.1980 c2        1 DJT     -0.175000
     34 C34         7.2520   -2.2080    1.4750 c1        1 DJT     -0.124000
     35 H1          0.2030   -0.1470   -1.5470 hn        1 DJT      0.270500
     36 HN3        -3.0020   -0.2830   -0.1140 ha        1 DJT      0.163000
     37 H7         -1.6750    3.6430   -2.2920 hc        1 DJT      0.101000
     38 H7A        -2.3670    5.2890   -1.9160 hc        1 DJT      0.101000
     39 H8         -3.4750    3.8940   -2.2700 hc        1 DJT      0.101000
     40 H8A        -4.3810    4.2660    0.8580 ha        1 DJT      0.060000
     41 H11         1.4580    0.7980   -1.0330 hn        1 DJT      0.270500
     42 H11A        2.2970   -0.8880    0.4480 hx        1 DJT      0.158000
     43 H12         0.9680   -2.0170   -0.1600 hx        1 DJT      0.158000
     44 H13         0.3830    0.7500    1.1390 h1        1 DJT      0.173000
     45 H13A       -1.4350   -1.7440    1.0540 ha        1 DJT      0.176000
     46 H17        -0.8930    2.2600    5.7270 hc        1 DJT      0.182000
     47 H18        -1.0370    0.7580    6.7270 hc        1 DJT      0.182000
     48 H19        -3.2560    1.3400    5.7010 ha        1 DJT      0.159000
     49 H20        -3.6430    0.0350    3.5800 ha        1 DJT      0.167000
     50 H26A        3.8820   -2.7250   -2.3650 hc        1 DJT      0.118000
     51 H28         5.3010   -1.8350   -1.6450 hc        1 DJT      0.118000
     52 H28A        3.6580   -0.2750   -4.3380 ha        1 DJT      0.080000
     53 H29         7.6500   -3.1930    1.4310 ha        1 DJT      0.236000
     54 H31         6.8910    0.8940    0.8350 h1        1 DJT      0.128000
     55 H32         4.1380    0.1780    2.0790 ha        1 DJT      0.213000
     56 H34         3.7580    1.5800   -1.6070 ha        1 DJT      0.157000
     57 H5         -0.3160    3.9790   -0.4080 h1        1 DJT      0.220500
     58 HN9        -1.1440    5.5060    0.1810 h1        1 DJT      0.220500
     59 F35         6.4880    0.8390    2.8340 f         1 DJT     -0.141000
     60 H321       -3.5190    2.1180    0.3920 hn        1 DJT      0.235000
     61 H26         3.8150   -2.1330   -0.6410 hc        1 DJT      0.118000
@<TRIPOS>BOND
     1    1    2 1   
     2    1   14 1   
     3    1   36 1   
     4    2    4 1   
     5    2    7 1   
     6    3   17 1   
     7    4    5 1   
     8    4   60 1   
     9    5    6 1   
    10    5    8 1   
    11    5    9 1   
    12    6   10 1   
    13    6   57 1   
    14    6   58 1   
    15    8   37 1   
    16    8   38 1   
    17    8   39 1   
    18    9   40 1   
    19   11   12 1   
    20   11   24 1   
    21   11   35 1   
    22   11   41 1   
    23   12   13 1   
    24   12   42 1   
    25   12   43 1   
    26   13   14 1   
    27   13   15 1   
    28   13   44 1   
    29   14   45 1   
    30   15   16 1   
    31   15   22 1   
    32   15   23 1   
    33   16   17 1   
    34   16   21 1   
    35   17   18 1   
    36   18   19 1   
    37   18   46 1   
    38   18   47 1   
    39   19   20 1   
    40   19   48 1   
    41   20   21 1   
    42   20   49 1   
    43   24   25 1   
    44   24   27 1   
    45   26   27 1   
    46   26   50 1   
    47   26   51 1   
    48   26   61 1   
    49   27   28 1   
    50   27   33 1   
    51   28   52 1   
    52   29   30 1   
    53   29   34 1   
    54   30   31 1   
    55   30   54 1   
    56   30   59 1   
    57   31   32 1   
    58   31   55 1   
    59   32   33 1   
    60   33   56 1   
    61   34   53 1   
@<TRIPOS>SUBSTRUCTURE
     1 DJT         1 TEMP              0 ****  ****    0 ROOT
