@<TRIPOS>MOLECULE
DJZ
   64    67     1     0     0
SMALL
bcc


@<TRIPOS>ATOM
      1 O1          5.6770   -0.6420   -1.6010 os        1 DJZ     -0.366400
      2 C2          4.4830   -1.3050   -1.3580 ca        1 DJZ      0.683600
      3 N3          3.6740   -0.9480   -0.3370 nb        1 DJZ     -0.803000
      4 N4          2.1330   -2.7340   -1.0530 nb        1 DJZ     -0.762000
      5 C5          2.9880   -3.0260   -2.0470 ca        1 DJZ      0.477200
      6 C6          2.5100   -1.7040   -0.1970 ca        1 DJZ      0.894900
      7 C7          4.1990   -2.3570   -2.2680 ca        1 DJZ     -0.428600
      8 C8          6.0260    0.4100   -0.7460 ca        1 DJZ      0.113100
      9 C9          6.8240    0.1350    0.3780 ca        1 DJZ     -0.062300
     10 C10         7.2780    1.2080    1.1500 ca        1 DJZ     -0.096000
     11 C11         6.9360    2.5210    0.8050 ca        1 DJZ     -0.009000
     12 C12         6.1380    2.7770   -0.3180 ca        1 DJZ     -0.096000
     13 C13         5.6710    1.7220   -1.1060 ca        1 DJZ     -0.062300
     14 C14         4.8400    1.9890   -2.3020 c3        1 DJZ     -0.054300
     15 C15         7.1940   -1.2540    0.7300 c3        1 DJZ     -0.054300
     16 C16         7.4000    3.6040    1.6010 cg        1 DJZ      0.233800
     17 N17         1.7340   -1.4310    0.9400 nh        1 DJZ     -0.817900
     18 C18         0.3350   -1.8200    0.9940 c3        1 DJZ      0.209500
     19 C19        -0.2090   -1.6750    2.4260 c3        1 DJZ     -0.095400
     20 C20        -1.6560   -2.1580    2.4840 c3        1 DJZ      0.168800
     21 N21        -2.5270   -1.4700    1.5400 n3        1 DJZ     -0.732600
     22 C22        -2.0180   -1.5130    0.1740 c3        1 DJZ      0.168800
     23 C23        -0.5800   -1.0210    0.0530 c3        1 DJZ     -0.095400
     24 N24         7.7800    4.4900    2.2530 n1        1 DJZ     -0.361800
     25 C25        -3.9030   -1.9420    1.6370 c3        1 DJZ      0.204100
     26 C26        -4.9010   -1.0790    0.9190 ca        1 DJZ     -0.018300
     27 C27        -5.9160   -1.6840    0.1690 ca        1 DJZ     -0.147500
     28 C28        -6.8810   -0.9020   -0.4580 ca        1 DJZ     -0.020000
     29 C29        -6.8590    0.4950   -0.3520 ca        1 DJZ     -0.391500
     30 C30        -5.8310    1.0890    0.3930 ca        1 DJZ     -0.020000
     31 C31        -4.8630    0.3160    1.0270 ca        1 DJZ     -0.147500
     32 S32        -8.0060    1.4320   -1.1300 sy        1 DJZ      1.398300
     33 O33        -7.4910    2.7090   -1.3960 o         1 DJZ     -0.658300
     34 O34        -8.5630    0.7210   -2.2040 o         1 DJZ     -0.658300
     35 C35        -9.1640    1.5560    0.1000 c3        1 DJZ     -0.356300
     36 H5          2.6720   -3.8530   -2.7110 h4        1 DJZ      0.030100
     37 H7          4.8840   -2.6090   -3.0800 ha        1 DJZ      0.170000
     38 H10         7.9050    1.0170    2.0340 ha        1 DJZ      0.149000
     39 H12         5.8730    3.8130   -0.5810 ha        1 DJZ      0.149000
     40 H14         4.0610    1.1950   -2.4220 hc        1 DJZ      0.053533
     41 H14A        4.3320    2.9820   -2.2250 hc        1 DJZ      0.053533
     42 H14B        5.4820    1.9870   -3.2190 hc        1 DJZ      0.053533
     43 H15         8.0250   -1.6060    0.0680 hc        1 DJZ      0.053533
     44 H15A        7.5320   -1.3250    1.7930 hc        1 DJZ      0.053533
     45 H15B        6.3210   -1.9390    0.5840 hc        1 DJZ      0.053533
     46 HN17        1.9370   -0.5610    1.3890 hn        1 DJZ      0.427800
     47 H18         0.2690   -2.9130    0.7070 h1        1 DJZ      0.086700
     48 H19         0.3960   -2.2950    3.1370 hc        1 DJZ      0.058200
     49 H19A       -0.1490   -0.6070    2.7570 hc        1 DJZ      0.058200
     50 H20        -1.6690   -3.2760    2.3210 h1        1 DJZ      0.038450
     51 H20A       -2.0520   -1.9600    3.5210 h1        1 DJZ      0.038450
     52 H22        -2.0760   -2.5570   -0.2550 h1        1 DJZ      0.038450
     53 H22A       -2.6820   -0.8490   -0.4500 h1        1 DJZ      0.038450
     54 H23        -0.5260    0.0710    0.2990 hc        1 DJZ      0.058200
     55 H23A       -0.2540   -1.1540   -1.0110 hc        1 DJZ      0.058200
     56 H25        -4.0020   -3.0060    1.2640 h1        1 DJZ      0.047200
     57 H25A       -4.1880   -1.9410    2.7310 h1        1 DJZ      0.047200
     58 H27        -5.9510   -2.7800    0.0680 ha        1 DJZ      0.150500
     59 H28        -7.6700   -1.3830   -1.0640 ha        1 DJZ      0.155500
     60 H30        -5.7860    2.1900    0.4620 ha        1 DJZ      0.155500
     61 H31        -4.0630    0.8010    1.6070 ha        1 DJZ      0.150500
     62 H35        -8.7670    2.0340    1.0290 h1        1 DJZ      0.113367
     63 H35A      -10.0330    2.1830   -0.2270 h1        1 DJZ      0.113367
     64 H35B       -9.5880    0.5690    0.4040 h1        1 DJZ      0.113367
@<TRIPOS>BOND
     1    1    2 1   
     2    1    8 1   
     3    2    3 ar  
     4    2    7 ar  
     5    3    6 ar  
     6    4    5 ar  
     7    4    6 ar  
     8    5    7 ar  
     9    5   36 1   
    10    6   17 1   
    11    7   37 1   
    12    8    9 ar  
    13    8   13 ar  
    14    9   10 ar  
    15    9   15 1   
    16   10   11 ar  
    17   10   38 1   
    18   11   12 ar  
    19   11   16 1   
    20   12   13 ar  
    21   12   39 1   
    22   13   14 1   
    23   14   40 1   
    24   14   41 1   
    25   14   42 1   
    26   15   43 1   
    27   15   44 1   
    28   15   45 1   
    29   16   24 3   
    30   17   18 1   
    31   17   46 1   
    32   18   19 1   
    33   18   23 1   
    34   18   47 1   
    35   19   20 1   
    36   19   48 1   
    37   19   49 1   
    38   20   21 1   
    39   20   50 1   
    40   20   51 1   
    41   21   22 1   
    42   21   25 1   
    43   22   23 1   
    44   22   52 1   
    45   22   53 1   
    46   23   54 1   
    47   23   55 1   
    48   25   26 1   
    49   25   56 1   
    50   25   57 1   
    51   26   27 ar  
    52   26   31 ar  
    53   27   28 ar  
    54   27   58 1   
    55   28   29 ar  
    56   28   59 1   
    57   29   30 ar  
    58   29   32 1   
    59   30   31 ar  
    60   30   60 1   
    61   31   61 1   
    62   32   33 2   
    63   32   34 2   
    64   32   35 1   
    65   35   62 1   
    66   35   63 1   
    67   35   64 1   
@<TRIPOS>SUBSTRUCTURE
     1 DJZ         1 TEMP              0 ****  ****    0 ROOT
