@<TRIPOS>MOLECULE
DJZ
   64    67     1     0     0
SMALL
bcc


@<TRIPOS>ATOM
      1 O1         -0.0720    0.0110    0.1360 os        1 DJZ     -0.366400
      2 C2          1.3120    0.0920    0.1170 ca        1 DJZ      0.683600
      3 N3          2.0300    0.1610    1.2600 nb        1 DJZ     -0.803000
      4 N4          4.0650    0.2200   -0.1290 nb        1 DJZ     -0.762000
      5 C5          3.2830    0.1440   -1.2190 ca        1 DJZ      0.477200
      6 C6          3.4120    0.2490    1.0990 ca        1 DJZ      0.894900
      7 C7          1.8840    0.0820   -1.1810 ca        1 DJZ     -0.428600
      8 C8         -0.7110    0.0130    1.3820 ca        1 DJZ      0.113100
      9 C9         -1.1330    1.2380    1.9270 ca        1 DJZ     -0.062300
     10 C10        -1.8850    1.2180    3.1050 ca        1 DJZ     -0.096000
     11 C11        -2.2000    0.0010    3.7210 ca        1 DJZ     -0.009000
     12 C12        -1.7700   -1.2100    3.1660 ca        1 DJZ     -0.096000
     13 C13        -1.0160   -1.2180    1.9880 ca        1 DJZ     -0.062300
     14 C14        -0.5720   -2.4970    1.3910 c3        1 DJZ     -0.054300
     15 C15        -0.8080    2.5210    1.2640 c3        1 DJZ     -0.054300
     16 C16        -2.9630   -0.0050    4.9220 cg        1 DJZ      0.233800
     17 N17         4.1540    0.4600    2.2720 nu        1 DJZ     -0.817900
     18 C18         5.5740    0.1560    2.3160 c3        1 DJZ      0.209500
     19 C19         6.2090    0.7350    3.5920 c3        1 DJZ     -0.095400
     20 C20         7.7130    0.4730    3.5900 c3        1 DJZ      0.168800
     21 N21         8.0480   -0.9390    3.4530 n3        1 DJZ     -0.732600
     22 C22         7.4100   -1.5570    2.2970 c3        1 DJZ      0.168800
     23 C23         5.9000   -1.3450    2.2590 c3        1 DJZ     -0.095400
     24 N24        -3.5860   -0.0100    5.9040 n1        1 DJZ     -0.361800
     25 C25         9.4900   -1.1520    3.4750 c3        1 DJZ      0.204100
     26 C26         9.8960   -2.5890    3.6420 ca        1 DJZ     -0.018300
     27 C27        10.9480   -3.0980    2.8720 ca        1 DJZ     -0.147500
     28 C28        11.3730   -4.4100    3.0520 ca        1 DJZ     -0.020000
     29 C29        10.7650   -5.2430    4.0000 ca        1 DJZ     -0.391500
     30 C30         9.7060   -4.7250    4.7570 ca        1 DJZ     -0.020000
     31 C31         9.2750   -3.4130    4.5880 ca        1 DJZ     -0.147500
     32 S32        11.2620   -6.8290    4.1940 sy        1 DJZ      1.398300
     33 O33        10.2110   -7.6090    4.6970 o         1 DJZ     -0.658300
     34 O34        11.9050   -7.2790    3.0310 o         1 DJZ     -0.658300
     35 C35        12.4220   -6.6230    5.4130 c3        1 DJZ     -0.356300
     36 H5          3.8230    0.1300   -2.1850 h4        1 DJZ      0.030100
     37 H7          1.2620    0.0240   -2.0780 ha        1 DJZ      0.170000
     38 H10        -2.2270    2.1660    3.5490 ha        1 DJZ      0.149000
     39 H12        -2.0220   -2.1630    3.6570 ha        1 DJZ      0.149000
     40 H14         0.4460   -2.3850    0.9400 hc        1 DJZ      0.053533
     41 H14A       -0.5380   -3.3100    2.1560 hc        1 DJZ      0.053533
     42 H14B       -1.2800   -2.8020    0.5780 hc        1 DJZ      0.053533
     43 H15         0.2430    2.5060    0.8800 hc        1 DJZ      0.053533
     44 H15A       -1.4930    2.6830    0.3930 hc        1 DJZ      0.053533
     45 H15B       -0.9200    3.3810    1.9690 hc        1 DJZ      0.053533
     46 HN17        3.6640    0.2630    3.1200 hn        1 DJZ      0.427800
     47 H18         6.0630    0.6580    1.4270 h1        1 DJZ      0.086700
     48 H19         5.7420    0.2730    4.5010 hc        1 DJZ      0.058200
     49 H19A        6.0460    1.8420    3.6410 hc        1 DJZ      0.058200
     50 H20         8.1840    1.0920    2.7700 h1        1 DJZ      0.038450
     51 H20A        8.1350    0.8300    4.5730 h1        1 DJZ      0.038450
     52 H22         7.6190   -2.6630    2.3530 h1        1 DJZ      0.038450
     53 H22A        7.8500   -1.1730    1.3290 h1        1 DJZ      0.038450
     54 H23         5.5090   -1.7910    1.3090 hc        1 DJZ      0.058200
     55 H23A        5.4160   -1.8770    3.1190 hc        1 DJZ      0.058200
     56 H25         9.9830   -0.7370    2.5450 h1        1 DJZ      0.047200
     57 H25A        9.9070   -0.5840    4.3590 h1        1 DJZ      0.047200
     58 H27        11.4390   -2.4640    2.1180 ha        1 DJZ      0.150500
     59 H28        12.1920   -4.8130    2.4290 ha        1 DJZ      0.155500
     60 H30         9.1980   -5.3780    5.4890 ha        1 DJZ      0.155500
     61 H31         8.4400   -3.0240    5.1920 ha        1 DJZ      0.150500
     62 H35        13.2720   -5.9690    5.1020 h1        1 DJZ      0.113367
     63 H35A       12.0010   -6.1800    6.3470 h1        1 DJZ      0.113367
     64 H35B       12.8730   -7.6050    5.7070 h1        1 DJZ      0.113367
@<TRIPOS>BOND
     1    1    2 1   
     2    1    8 1   
     3    2    3 ar  
     4    2    7 ar  
     5    3    6 ar  
     6    4    5 ar  
     7    4    6 ar  
     8    5    7 ar  
     9    5   36 1   
    10    6   17 1   
    11    7   37 1   
    12    8    9 ar  
    13    8   13 ar  
    14    9   10 ar  
    15    9   15 1   
    16   10   11 ar  
    17   10   38 1   
    18   11   12 ar  
    19   11   16 1   
    20   12   13 ar  
    21   12   39 1   
    22   13   14 1   
    23   14   40 1   
    24   14   41 1   
    25   14   42 1   
    26   15   43 1   
    27   15   44 1   
    28   15   45 1   
    29   16   24 3   
    30   17   18 1   
    31   17   46 1   
    32   18   19 1   
    33   18   23 1   
    34   18   47 1   
    35   19   20 1   
    36   19   48 1   
    37   19   49 1   
    38   20   21 1   
    39   20   50 1   
    40   20   51 1   
    41   21   22 1   
    42   21   25 1   
    43   22   23 1   
    44   22   52 1   
    45   22   53 1   
    46   23   54 1   
    47   23   55 1   
    48   25   26 1   
    49   25   56 1   
    50   25   57 1   
    51   26   27 ar  
    52   26   31 ar  
    53   27   28 ar  
    54   27   58 1   
    55   28   29 ar  
    56   28   59 1   
    57   29   30 ar  
    58   29   32 1   
    59   30   31 ar  
    60   30   60 1   
    61   31   61 1   
    62   32   33 2   
    63   32   34 2   
    64   32   35 1   
    65   35   62 1   
    66   35   63 1   
    67   35   64 1   
@<TRIPOS>SUBSTRUCTURE
     1 DJZ         1 TEMP              0 ****  ****    0 ROOT
