@<TRIPOS>MOLECULE
DJZ
   64    60     1     0     0
SMALL
bcc


@<TRIPOS>ATOM
      1 O1         -5.3850    1.6390   -1.4750 os        1 DJZ     -0.132000
      2 C2         -4.0410    1.3070   -1.7820 c2        1 DJZ      0.182000
      3 N3         -3.3160    0.5640   -0.9230 n2        1 DJZ     -0.237000
      4 N4         -1.4460    0.7120   -2.3610 n1        1 DJZ     -0.237000
      5 C5         -2.1700    1.4570   -3.2230 c1        1 DJZ      0.020000
      6 C6         -2.0110    0.2620   -1.2100 c1        1 DJZ      0.173000
      7 C7         -3.4740    1.7590   -2.9370 c1        1 DJZ     -0.342000
      8 C8         -5.7830    2.7770   -2.2430 c2        1 DJZ      0.042000
      9 C9         -5.7310    4.0450   -1.6820 c2        1 DJZ     -0.057000
     10 C10        -6.1770    5.1440   -2.4060 c1        1 DJZ     -0.099000
     11 C11        -6.6760    4.9740   -3.6900 c1        1 DJZ      0.000000
     12 C12        -6.7280    3.7050   -4.2520 c1        1 DJZ     -0.098000
     13 C13        -6.2830    2.6060   -3.5300 c1        1 DJZ     -0.059000
     14 C14        -6.4370    1.2110   -4.1030 c3        1 DJZ     -0.184000
     15 C15        -5.2790    4.2190   -0.2440 c3        1 DJZ     -0.182000
     16 C16        -7.0540    6.1860   -4.5230 c1        1 DJZ     -0.099000
     17 N17        -1.2310   -0.5290   -0.2830 n3        1 DJZ     -0.264000
     18 C18         0.2520   -0.4560   -0.3090 c3        1 DJZ      0.014000
     19 C19         0.7250    0.1340    0.9650 c3        1 DJZ     -0.174000
     20 C20         2.2370    0.0770    1.1030 c3        1 DJZ     -0.068000
     21 N21         2.7720   -1.2710    0.8740 n3        1 DJZ     -0.258000
     22 C22         2.3080   -1.8620   -0.3890 c3        1 DJZ     -0.068000
     23 C23         0.7930   -1.8120   -0.5330 c3        1 DJZ     -0.174000
     24 N24        -7.3390    7.1000   -5.1510 n1        1 DJZ     -0.030000
     25 C25         4.2210   -1.2240    0.8810 c3        1 DJZ     -0.040000
     26 C26         4.7630   -2.1890    1.9560 c2        1 DJZ     -0.012000
     27 C27         5.5080   -3.3020    1.5760 c2        1 DJZ     -0.158000
     28 C28         6.1120   -4.0980    2.5420 c1        1 DJZ     -0.019000
     29 C29         5.9720   -3.7830    3.8880 c1        1 DJZ     -0.836000
     30 C30         5.2290   -2.6740    4.2690 c1        1 DJZ     -0.022000
     31 C31         4.6240   -1.8760    3.3020 c1        1 DJZ     -0.137000
     32 S32         6.7110   -4.8310    5.1300 s4        1 DJZ      2.078800
     33 O33         5.8440   -4.9860    6.2630 o         1 DJZ     -0.545900
     34 O34         6.8170   -6.1920    4.6710 o         1 DJZ     -0.545900
     35 C35         8.2950   -4.1880    5.6130 c2        1 DJZ     -0.935000
     36 H5         -1.7650    1.7780   -4.0450 ha        1 DJZ      0.166000
     37 H7         -3.9980    2.2980   -3.5610 ha        1 DJZ      0.166000
     38 H10        -6.1400    6.0340   -2.0110 ha        1 DJZ      0.151000
     39 H12        -7.0780    3.5850   -5.1540 ha        1 DJZ      0.152000
     40 H14        -6.1880    1.2180   -5.0540 hc        1 DJZ      0.096333
     41 H14A       -7.3690    0.9210   -4.0110 hc        1 DJZ      0.096333
     42 H14B       -5.8560    0.5940   -3.6180 hc        1 DJZ      0.096333
     43 H15        -6.0400    4.0800    0.3560 hc        1 DJZ      0.095667
     44 H15A       -4.9250    5.1280   -0.1200 hc        1 DJZ      0.095667
     45 H15B       -4.5800    3.5670   -0.0410 hc        1 DJZ      0.095667
     46 HN17       -1.6510   -1.0400    0.3440 hn        1 DJZ      0.227000
     47 H18         0.5270    0.1190   -1.0450 h1        1 DJZ      0.125000
     48 H19         0.3200   -0.3550    1.7110 hc        1 DJZ      0.097750
     49 H19A        0.4390    1.0680    1.0070 hc        1 DJZ      0.097750
     50 H20         2.4830    0.3650    2.0030 h1        1 DJZ      0.077500
     51 H20A        2.6380    0.6910    0.4530 h1        1 DJZ      0.077500
     52 H22         2.7110   -1.3740   -1.1320 h1        1 DJZ      0.077500
     53 H22A        2.5980   -2.7940   -0.4280 h1        1 DJZ      0.077500
     54 H23         0.3940   -2.4220    0.1160 hc        1 DJZ      0.097750
     55 H23A        0.5520   -2.1040   -1.4320 hc        1 DJZ      0.097750
     56 H25         4.5150   -0.3140    1.0820 h1        1 DJZ      0.086500
     57 H25A        4.5620   -1.4920   -0.0020 h1        1 DJZ      0.086500
     58 H27         5.6060   -3.5230    0.6330 ha        1 DJZ      0.142000
     59 H28         6.6330   -4.8760    2.2750 ha        1 DJZ      0.155000
     60 H30         5.1300   -2.4520    5.2170 ha        1 DJZ      0.155000
     61 H31         4.1020   -1.0970    3.5690 ha        1 DJZ      0.159000
     62 H35         8.7920   -4.8770    6.1040 ha        1 DJZ      0.152667
     63 H35A        8.8000   -3.9280    4.8130 ha        1 DJZ      0.152667
     64 H35B        8.1680   -3.4040    6.1880 ha        1 DJZ      0.152667
@<TRIPOS>BOND
     1    1    2 1   
     2    1    8 1   
     3    2    3 1   
     4    2    7 1   
     5    3    6 1   
     6    4    5 1   
     7    5   36 1   
     8    6   17 1   
     9    7   37 1   
    10    8    9 1   
    11    8   13 1   
    12    9   10 1   
    13    9   15 1   
    14   10   38 1   
    15   11   12 1   
    16   11   16 1   
    17   12   39 1   
    18   13   14 1   
    19   14   40 1   
    20   14   41 1   
    21   14   42 1   
    22   15   43 1   
    23   15   44 1   
    24   15   45 1   
    25   16   24 1   
    26   17   18 1   
    27   17   46 1   
    28   18   19 1   
    29   18   23 1   
    30   18   47 1   
    31   19   20 1   
    32   19   48 1   
    33   19   49 1   
    34   20   21 1   
    35   20   50 1   
    36   20   51 1   
    37   21   22 1   
    38   21   25 1   
    39   22   23 1   
    40   22   52 1   
    41   22   53 1   
    42   23   54 1   
    43   23   55 1   
    44   25   26 1   
    45   25   56 1   
    46   25   57 1   
    47   26   27 1   
    48   26   31 1   
    49   27   28 1   
    50   27   58 1   
    51   28   59 1   
    52   29   30 1   
    53   29   32 1   
    54   30   60 1   
    55   31   61 1   
    56   32   33 1   
    57   32   34 1   
    58   35   62 1   
    59   35   63 1   
    60   35   64 1   
@<TRIPOS>SUBSTRUCTURE
     1 DJZ         1 TEMP              0 ****  ****    0 ROOT
