@<TRIPOS>MOLECULE
DJZ
   65    68     1     0     0
SMALL
bcc


@<TRIPOS>ATOM
      1 O1          0.6900   -0.3540    0.2460 os        1 DJZ     -0.324400
      2 C2          1.7910    0.4520    0.1230 ca        1 DJZ      0.691600
      3 N3          2.5930    0.7550    1.1830 nb        1 DJZ     -0.736000
      4 N4          3.9840    2.1040   -0.3350 nb        1 DJZ     -0.691000
      5 C5          3.1540    1.7710   -1.3550 ca        1 DJZ      0.467200
      6 C6          3.6530    1.5740    0.8810 ca        1 DJZ      0.736900
      7 C7          2.0380    0.9470   -1.1940 ca        1 DJZ     -0.320600
      8 C8          0.3730   -0.8620    1.5200 ca        1 DJZ      0.062100
      9 C9         -0.5270   -0.1430    2.3240 ca        1 DJZ     -0.054300
     10 C10        -0.9360   -0.7210    3.5310 ca        1 DJZ     -0.096500
     11 C11        -0.4530   -1.9790    3.9120 ca        1 DJZ      0.026000
     12 C12         0.4360   -2.6820    3.0890 ca        1 DJZ     -0.096500
     13 C13         0.8630   -2.1290    1.8770 ca        1 DJZ     -0.054300
     14 C14         1.7750   -2.8860    0.9910 c3        1 DJZ     -0.057800
     15 C15        -1.0660    1.1710    1.9080 c3        1 DJZ     -0.057800
     16 C16        -0.8700   -2.5470    5.1480 cg        1 DJZ      0.207800
     17 N17         4.5400    1.9300    2.0300 n4        1 DJZ     -0.745700
     18 C18         5.8690    1.2050    1.9710 c3        1 DJZ      0.130500
     19 C19         6.8370    1.8070    2.9960 c3        1 DJZ     -0.102900
     20 C20         8.1690    1.0530    2.9390 c3        1 DJZ      0.169800
     21 N21         8.0010   -0.3770    3.1480 n3        1 DJZ     -0.738600
     22 C22         7.0780   -0.9650    2.1890 c3        1 DJZ      0.169800
     23 C23         5.7030   -0.2940    2.2220 c3        1 DJZ     -0.102900
     24 N24        -1.2090   -3.0110    6.1590 n1        1 DJZ     -0.311800
     25 C25         9.2780   -1.0790    3.2310 c3        1 DJZ      0.210100
     26 C26         9.1400   -2.5270    3.6040 ca        1 DJZ     -0.046300
     27 C27         9.6990   -3.5140    2.7850 ca        1 DJZ     -0.145000
     28 C28         9.5830   -4.8560    3.1380 ca        1 DJZ     -0.020000
     29 C29         8.9120   -5.2390    4.3040 ca        1 DJZ     -0.366500
     30 C30         8.3690   -4.2410    5.1230 ca        1 DJZ     -0.020000
     31 C31         8.4810   -2.8960    4.7820 ca        1 DJZ     -0.145000
     32 S32         8.7030   -6.8700    4.6850 sy        1 DJZ      1.394300
     33 O33         7.5540   -7.0100    5.4760 o         1 DJZ     -0.652300
     34 O34         8.7860   -7.6290    3.5100 o         1 DJZ     -0.652300
     35 C35        10.0750   -7.1320    5.6280 c3        1 DJZ     -0.366300
     36 H5          3.4230    2.2050   -2.3400 h4        1 DJZ      0.074100
     37 H7          1.3670    0.6800   -2.0240 ha        1 DJZ      0.207000
     38 H10        -1.6470   -0.1820    4.1780 ha        1 DJZ      0.164000
     39 H12         0.7980   -3.6780    3.3920 ha        1 DJZ      0.164000
     40 H14         2.4740   -2.1960    0.4580 hc        1 DJZ      0.056533
     41 H14A        2.3760   -3.6290    1.5720 hc        1 DJZ      0.056533
     42 H14B        1.1790   -3.4410    0.2210 hc        1 DJZ      0.056533
     43 H15        -1.9970    1.0210    1.3020 hc        1 DJZ      0.056533
     44 H15A       -1.3230    1.7990    2.7960 hc        1 DJZ      0.056533
     45 H15B       -0.3280    1.7250    1.2770 hc        1 DJZ      0.056533
     46 HN17        4.7120    2.9430    2.0070 hn        1 DJZ      0.470300
     47 H18         6.2830    1.3700    0.9300 hx        1 DJZ      0.119700
     48 H19         7.0370    2.8860    2.7680 hc        1 DJZ      0.073950
     49 H19A        6.4110    1.7330    4.0310 hc        1 DJZ      0.073950
     50 H20         8.6690    1.2830    1.9520 h1        1 DJZ      0.059950
     51 H20A        8.8290    1.4520    3.7610 h1        1 DJZ      0.059950
     52 H22         7.4760   -0.9160    1.1330 h1        1 DJZ      0.059950
     53 H22A        6.9460   -2.0520    2.4600 h1        1 DJZ      0.059950
     54 H23         5.2180   -0.4760    3.2180 hc        1 DJZ      0.073950
     55 H23A        5.0630   -0.7600    1.4290 hc        1 DJZ      0.073950
     56 H25         9.8530   -0.9960    2.2610 h1        1 DJZ      0.056700
     57 H25A        9.8860   -0.5690    4.0350 h1        1 DJZ      0.056700
     58 H27        10.2310   -3.2360    1.8630 ha        1 DJZ      0.146500
     59 H28        10.0070   -5.6360    2.4780 ha        1 DJZ      0.162500
     60 H30         7.8280   -4.5320    6.0420 ha        1 DJZ      0.162500
     61 H31         8.0490   -2.1230    5.4350 ha        1 DJZ      0.146500
     62 H35        10.1210   -6.4830    6.5370 h1        1 DJZ      0.120700
     63 H35A       10.1120   -8.1880    6.0030 h1        1 DJZ      0.120700
     64 H35B       11.0320   -6.9710    5.0740 h1        1 DJZ      0.120700
     65 H172        4.0660    1.6880    2.9120 hn        1 DJZ      0.470300
@<TRIPOS>BOND
     1    1    2 1   
     2    1    8 1   
     3    2    3 ar  
     4    2    7 ar  
     5    3    6 ar  
     6    4    5 ar  
     7    4    6 ar  
     8    5    7 ar  
     9    5   36 1   
    10    6   17 1   
    11    7   37 1   
    12    8    9 ar  
    13    8   13 ar  
    14    9   10 ar  
    15    9   15 1   
    16   10   11 ar  
    17   10   38 1   
    18   11   12 ar  
    19   11   16 1   
    20   12   13 ar  
    21   12   39 1   
    22   13   14 1   
    23   14   40 1   
    24   14   41 1   
    25   14   42 1   
    26   15   43 1   
    27   15   44 1   
    28   15   45 1   
    29   16   24 3   
    30   17   18 1   
    31   17   46 1   
    32   17   65 1   
    33   18   19 1   
    34   18   23 1   
    35   18   47 1   
    36   19   20 1   
    37   19   48 1   
    38   19   49 1   
    39   20   21 1   
    40   20   50 1   
    41   20   51 1   
    42   21   22 1   
    43   21   25 1   
    44   22   23 1   
    45   22   52 1   
    46   22   53 1   
    47   23   54 1   
    48   23   55 1   
    49   25   26 1   
    50   25   56 1   
    51   25   57 1   
    52   26   27 ar  
    53   26   31 ar  
    54   27   28 ar  
    55   27   58 1   
    56   28   29 ar  
    57   28   59 1   
    58   29   30 ar  
    59   29   32 1   
    60   30   31 ar  
    61   30   60 1   
    62   31   61 1   
    63   32   33 2   
    64   32   34 2   
    65   32   35 1   
    66   35   62 1   
    67   35   63 1   
    68   35   64 1   
@<TRIPOS>SUBSTRUCTURE
     1 DJZ         1 TEMP              0 ****  ****    0 ROOT
