@<TRIPOS>MOLECULE
DK1
   20    21     1     0     0
SMALL
bcc


@<TRIPOS>ATOM
      1 O1          1.2210    1.0180    4.4030 o         1 DK1     -0.794300
      2 C2          0.9200   -0.0800    3.8760 c         1 DK1      0.830100
      3 O2          0.9460   -1.2170    4.4050 o         1 DK1     -0.794300
      4 C1          0.4000   -0.0170    2.4110 ca        1 DK1      0.432800
      5 N1          1.2360   -0.1210    1.3840 nb        1 DK1     -0.682000
      6 C10         0.7240   -0.0590    0.1090 ca        1 DK1      0.437600
      7 C9          1.6600   -0.1750   -0.9750 ca        1 DK1     -0.156300
      8 C8          1.2250   -0.1230   -2.2740 ca        1 DK1      0.014400
      9 CL2         2.3320   -0.2610   -3.5650 cl        1 DK1     -0.120400
     10 C7         -0.1440    0.0460   -2.5800 ca        1 DK1     -0.155000
     11 C6         -1.0570    0.1600   -1.5540 ca        1 DK1      0.057400
     12 CL1        -2.6890    0.3600   -2.0580 cl        1 DK1     -0.131400
     13 C5         -0.6760    0.1140   -0.1850 ca        1 DK1     -0.211300
     14 C4         -1.5360    0.2210    0.9600 ca        1 DK1      0.135100
     15 O3         -2.9000    0.3890    0.9100 oh        1 DK1     -0.514100
     16 C3         -1.0080    0.1570    2.2380 ca        1 DK1     -0.247300
     17 H9          2.7280   -0.3070   -0.7340 ha        1 DK1      0.166000
     18 H7         -0.4640    0.0840   -3.6320 ha        1 DK1      0.147000
     19 HO3        -3.1800    0.4230   -0.0180 ho        1 DK1      0.420000
     20 H3         -1.6540    0.2370    3.1230 ha        1 DK1      0.167000
@<TRIPOS>BOND
     1    1    2 1   
     2    2    3 1   
     3    2    4 1   
     4    4    5 ar  
     5    4   16 ar  
     6    5    6 ar  
     7    6    7 ar  
     8    6   13 ar  
     9    7    8 ar  
    10    7   17 1   
    11    8    9 1   
    12    8   10 ar  
    13   10   11 ar  
    14   10   18 1   
    15   11   12 1   
    16   11   13 ar  
    17   13   14 ar  
    18   14   15 1   
    19   14   16 ar  
    20   15   19 1   
    21   16   20 1   
@<TRIPOS>SUBSTRUCTURE
     1 DK1         1 TEMP              0 ****  ****    0 ROOT
