@<TRIPOS>MOLECULE
DK1
   20    17     1     0     0
SMALL
bcc


@<TRIPOS>ATOM
      1 O1         -1.6750    1.0960    3.8240 o         1 DK1     -0.531000
      2 C2         -1.1910    0.0150    3.3980 c2        1 DK1      0.387000
      3 O2         -1.3490   -1.0480    4.0550 o         1 DK1     -0.531000
      4 C1         -0.4110   -0.0070    2.1020 c2        1 DK1      0.021000
      5 N1         -1.2940   -0.0420    1.0610 n1        1 DK1     -0.156000
      6 C10        -0.8300   -0.0390   -0.2430 c1        1 DK1      0.043000
      7 C9         -1.7410   -0.0770   -1.3160 c1        1 DK1     -0.105000
      8 C8         -1.2750   -0.0750   -2.6250 c1        1 DK1     -0.054000
      9 CL2        -2.2290   -0.0840   -4.0840 cl        1 DK1     -0.047000
     10 C7          0.0930   -0.0350   -2.8760 c1        1 DK1     -0.172000
     11 C6          0.9930    0.0010   -1.8180 c1        1 DK1      0.003000
     12 CL1         2.6580    0.0020   -2.3380 cl        1 DK1     -0.025000
     13 C5          0.5220   -0.0010   -0.4920 c1        1 DK1     -0.108000
     14 C4          1.4190    0.0350    0.5660 c1        1 DK1      0.099000
     15 O3          2.8040   -0.1290    0.3810 oh        1 DK1     -0.255000
     16 C3          0.9570    0.0330    1.8530 c2        1 DK1     -0.247000
     17 H9         -2.7010   -0.1120   -1.1410 ha        1 DK1      0.164000
     18 H7          0.4210   -0.0340   -3.7950 ha        1 DK1      0.146000
     19 HO3         3.2420    0.4550    0.8900 ho        1 DK1      0.215000
     20 H3          1.5880    0.0450    2.5980 ha        1 DK1      0.152000
@<TRIPOS>BOND
     1    1    2 1   
     2    2    3 1   
     3    2    4 1   
     4    4    5 1   
     5    4   16 1   
     6    6    7 1   
     7    6   13 1   
     8    7   17 1   
     9    8    9 1   
    10    8   10 1   
    11   10   18 1   
    12   11   12 1   
    13   11   13 1   
    14   14   15 1   
    15   14   16 1   
    16   15   19 1   
    17   16   20 1   
@<TRIPOS>SUBSTRUCTURE
     1 DK1         1 TEMP              0 ****  ****    0 ROOT
