@<TRIPOS>MOLECULE
DK1
   20    21     1     0     0
SMALL
bcc


@<TRIPOS>ATOM
      1 O1          0.8620   -1.0140    0.5100 o         1 DK1     -0.796300
      2 C2          1.3200    0.0720    0.0780 c         1 DK1      0.828100
      3 O2          1.3150    1.1860    0.6550 o         1 DK1     -0.796300
      4 C1          2.0370    0.0150   -1.3000 ca        1 DK1      0.438800
      5 N1          1.3810    0.2220   -2.4340 nb        1 DK1     -0.682000
      6 C10         2.0800    0.1570   -3.6210 ca        1 DK1      0.436600
      7 C9          1.3390    0.3860   -4.8280 ca        1 DK1     -0.170300
      8 C8          1.9700    0.3360   -6.0440 ca        1 DK1      0.024400
      9 Cl2         1.0920    0.6090   -7.4840 cl        1 DK1     -0.125400
     10 C7          3.3520    0.0610   -6.1440 ca        1 DK1     -0.172000
     11 C6          4.0870   -0.1630   -4.9980 ca        1 DK1      0.081400
     12 Cl1         5.7460   -0.4860   -5.2440 cl        1 DK1     -0.103400
     13 C5          3.4890   -0.1250   -3.7090 ca        1 DK1     -0.173300
     14 C4          4.1480   -0.3410   -2.4510 ca        1 DK1      0.144100
     15 O3          5.4980   -0.6160   -2.4480 oh        1 DK1     -0.501100
     16 C3          3.4390   -0.2730   -1.2690 ca        1 DK1     -0.312300
     17 H9          0.2600    0.6010   -4.7510 ha        1 DK1      0.164000
     18 H7          3.8270    0.0280   -7.1360 ha        1 DK1      0.146000
     19 HO3         5.7670   -0.7310   -1.5240 ho        1 DK1      0.416000
     20 H3          3.9170   -0.4340   -0.2930 ha        1 DK1      0.152000
@<TRIPOS>BOND
     1    1    2 1   
     2    2    3 1   
     3    2    4 1   
     4    4    5 ar  
     5    4   16 ar  
     6    5    6 ar  
     7    6    7 ar  
     8    6   13 ar  
     9    7    8 ar  
    10    7   17 1   
    11    8    9 1   
    12    8   10 ar  
    13   10   11 ar  
    14   10   18 1   
    15   11   12 1   
    16   11   13 ar  
    17   13   14 ar  
    18   14   15 1   
    19   14   16 ar  
    20   15   19 1   
    21   16   20 1   
@<TRIPOS>SUBSTRUCTURE
     1 DK1         1 TEMP              0 ****  ****    0 ROOT
