@<TRIPOS>MOLECULE
DK2
   37    39     1     0     0
SMALL
bcc


@<TRIPOS>ATOM
      1 O11         0.1620    0.7660    0.2120 o         1 DK2     -0.630500
      2 C7          1.3270    0.3440    0.1890 c         1 DK2      0.740100
      3 C5          2.2010    0.0840    1.3810 ca        1 DK2     -0.156600
      4 C4          3.4930   -0.2810    0.9060 ca        1 DK2     -0.163600
      5 C3          4.5250   -0.5390    1.7840 ca        1 DK2     -0.040000
      6 C6          1.9440    0.1740    2.7310 ca        1 DK2     -0.100000
      7 C1          2.9980   -0.0900    3.6230 ca        1 DK2     -0.115000
      8 C2          4.2700   -0.4320    3.1690 ca        1 DK2     -0.124600
      9 C23         5.3890   -0.6750    4.1710 c         1 DK2      0.906200
     10 O24         5.1150   -0.5750    5.4030 o         1 DK2     -0.835800
     11 O25         6.5390   -0.9570    3.7300 o         1 DK2     -0.835800
     12 N8          2.1240    0.1390   -0.9670 n         1 DK2     -0.476400
     13 C9          3.4350   -0.2820   -0.5920 c         1 DK2      0.731100
     14 O10         4.3490   -0.5360   -1.3850 o         1 DK2     -0.611500
     15 C12         1.6420    0.0500   -2.3280 c3        1 DK2     -0.014300
     16 C13         0.8350   -1.2500   -2.7030 c         1 DK2      0.913600
     17 O14         0.4910   -1.3270   -3.9180 o         1 DK2     -0.830300
     18 O15         0.5930   -2.1200   -1.8310 o         1 DK2     -0.830300
     19 C16         0.7730    1.2480   -2.7480 c3        1 DK2     -0.056100
     20 C17         1.5010    2.5430   -2.7610 ca        1 DK2     -0.065300
     21 C18         2.1630    2.9790   -3.9170 ca        1 DK2     -0.100000
     22 C19         2.8290    4.2010   -3.9450 ca        1 DK2     -0.186500
     23 C20         2.8340    4.9980   -2.7920 ca        1 DK2      0.083100
     24 O26         3.4910    6.2140   -2.8740 oh        1 DK2     -0.523100
     25 C21         2.1830    4.5780   -1.6250 ca        1 DK2     -0.186500
     26 C22         1.5210    3.3540   -1.6180 ca        1 DK2     -0.100000
     27 H3          5.5350   -0.8200    1.4470 ha        1 DK2      0.167000
     28 H6          0.9450    0.4450    3.1000 ha        1 DK2      0.125000
     29 H1          2.8350   -0.0270    4.7120 ha        1 DK2      0.149000
     30 H12         2.5650    0.0320   -2.9820 h1        1 DK2      0.066700
     31 H161       -0.1140    1.3150   -2.0620 hc        1 DK2      0.077700
     32 H162        0.3950    1.0070   -3.7800 hc        1 DK2      0.077700
     33 H18         2.1630    2.3360   -4.8110 ha        1 DK2      0.146500
     34 H19         3.3530    4.5430   -4.8460 ha        1 DK2      0.122500
     35 HO26        3.5670    6.5560   -1.9730 ho        1 DK2      0.405000
     36 H21         2.2070    5.2030   -0.7220 ha        1 DK2      0.122500
     37 H22         1.0140    3.0000   -0.7040 ha        1 DK2      0.146500
@<TRIPOS>BOND
     1    1    2 2   
     2    2    3 1   
     3    2   12 1   
     4    3    4 ar  
     5    3    6 ar  
     6    4    5 ar  
     7    4   13 1   
     8    5    8 ar  
     9    5   27 1   
    10    6    7 ar  
    11    6   28 1   
    12    7    8 ar  
    13    7   29 1   
    14    8    9 1   
    15    9   10 1   
    16    9   11 1   
    17   12   13 1   
    18   12   15 1   
    19   13   14 2   
    20   15   16 1   
    21   15   19 1   
    22   15   30 1   
    23   16   17 1   
    24   16   18 1   
    25   19   20 1   
    26   19   31 1   
    27   19   32 1   
    28   20   21 ar  
    29   20   26 ar  
    30   21   22 ar  
    31   21   33 1   
    32   22   23 ar  
    33   22   34 1   
    34   23   24 1   
    35   23   25 ar  
    36   24   35 1   
    37   25   26 ar  
    38   25   36 1   
    39   26   37 1   
@<TRIPOS>SUBSTRUCTURE
     1 DK2         1 TEMP              0 ****  ****    0 ROOT
