@<TRIPOS>MOLECULE
DK2
   37    39     1     0     0
SMALL
bcc


@<TRIPOS>ATOM
      1 O11         0.1640    0.7660    0.2190 o         1 DK2     -0.630500
      2 C7          1.3290    0.3440    0.1930 c         1 DK2      0.740100
      3 C5          2.2070    0.0860    1.3830 ca        1 DK2     -0.156600
      4 C4          3.4980   -0.2800    0.9050 ca        1 DK2     -0.163600
      5 C3          4.5320   -0.5360    1.7800 ca        1 DK2     -0.040000
      6 C6          1.9530    0.1760    2.7330 ca        1 DK2     -0.100000
      7 C1          3.0100   -0.0870    3.6230 ca        1 DK2     -0.115000
      8 C2          4.2800   -0.4280    3.1660 ca        1 DK2     -0.124600
      9 C23         5.4030   -0.6710    4.1650 c         1 DK2      0.906200
     10 O24         5.1320   -0.5700    5.3970 o         1 DK2     -0.835800
     11 O25         6.5510   -0.9520    3.7210 o         1 DK2     -0.835800
     12 N8          2.1240    0.1390   -0.9650 n         1 DK2     -0.476400
     13 C9          3.4350   -0.2820   -0.5930 c         1 DK2      0.731100
     14 O10         4.3480   -0.5360   -1.3880 o         1 DK2     -0.611500
     15 C12         1.6380    0.0490   -2.3250 c3        1 DK2     -0.014300
     16 C13         0.8300   -1.2520   -2.6960 c         1 DK2      0.913600
     17 O14         0.4840   -1.3310   -3.9100 o         1 DK2     -0.830300
     18 O15         0.5920   -2.1220   -1.8220 o         1 DK2     -0.830300
     19 C16         0.7670    1.2450   -2.7430 c3        1 DK2     -0.056100
     20 C17         1.4950    2.5410   -2.7600 ca        1 DK2     -0.065300
     21 C18         2.1530    2.9760   -3.9170 ca        1 DK2     -0.100000
     22 C19         2.8190    4.1990   -3.9480 ca        1 DK2     -0.186500
     23 C20         2.8260    4.9970   -2.7970 ca        1 DK2      0.083100
     24 O26         3.4820    6.2130   -2.8820 oh        1 DK2     -0.523100
     25 C21         2.1790    4.5780   -1.6270 ca        1 DK2     -0.186500
     26 C22         1.5180    3.3530   -1.6170 ca        1 DK2     -0.100000
     27 H3          5.5420   -0.8170    1.4410 ha        1 DK2      0.167000
     28 H6          0.9550    0.4470    3.1050 ha        1 DK2      0.125000
     29 H1          2.8500   -0.0230    4.7120 ha        1 DK2      0.149000
     30 H12         2.5600    0.0310   -2.9810 h1        1 DK2      0.066700
     31 H161        0.3860    1.0040   -3.7740 hc        1 DK2      0.077700
     32 H162       -0.1180    1.3130   -2.0550 hc        1 DK2      0.077700
     33 H18         2.1510    2.3320   -4.8110 ha        1 DK2      0.146500
     34 H19         3.3390    4.5400   -4.8520 ha        1 DK2      0.122500
     35 HO26        3.5610    6.5560   -1.9810 ho        1 DK2      0.405000
     36 H21         2.2050    5.2030   -0.7250 ha        1 DK2      0.122500
     37 H22         1.0130    2.9990   -0.7020 ha        1 DK2      0.146500
@<TRIPOS>BOND
     1    1    2 2   
     2    2    3 1   
     3    2   12 1   
     4    3    4 ar  
     5    3    6 ar  
     6    4    5 ar  
     7    4   13 1   
     8    5    8 ar  
     9    5   27 1   
    10    6    7 ar  
    11    6   28 1   
    12    7    8 ar  
    13    7   29 1   
    14    8    9 1   
    15    9   10 1   
    16    9   11 1   
    17   12   13 1   
    18   12   15 1   
    19   13   14 2   
    20   15   16 1   
    21   15   19 1   
    22   15   30 1   
    23   16   17 1   
    24   16   18 1   
    25   19   20 1   
    26   19   31 1   
    27   19   32 1   
    28   20   21 ar  
    29   20   26 ar  
    30   21   22 ar  
    31   21   33 1   
    32   22   23 ar  
    33   22   34 1   
    34   23   24 1   
    35   23   25 ar  
    36   24   35 1   
    37   25   26 ar  
    38   25   36 1   
    39   26   37 1   
@<TRIPOS>SUBSTRUCTURE
     1 DK2         1 TEMP              0 ****  ****    0 ROOT
