@<TRIPOS>MOLECULE
DK2
   37    39     1     0     0
SMALL
bcc


@<TRIPOS>ATOM
      1 O11         0.4550    1.3360    2.1150 o         1 DK2     -0.630500
      2 C7         -0.1030    1.0920    1.0350 c         1 DK2      0.740100
      3 C5         -1.5600    0.7930    0.8370 ca        1 DK2     -0.156600
      4 C4         -1.7580    0.4590   -0.5330 ca        1 DK2     -0.163600
      5 C3         -3.0020    0.0940   -1.0030 ca        1 DK2     -0.040000
      6 C6         -2.6110    0.7750    1.7270 ca        1 DK2     -0.100000
      7 C1         -3.8790    0.4020    1.2450 ca        1 DK2     -0.115000
      8 C2         -4.0800    0.0580   -0.0900 ca        1 DK2     -0.124600
      9 C23        -5.4620   -0.3710   -0.5590 c         1 DK2      0.906200
     10 O24        -6.4000   -0.3830    0.2900 o         1 DK2     -0.835800
     11 O25        -5.6080   -0.7050   -1.7690 o         1 DK2     -0.835800
     12 N8          0.5340    0.9160   -0.2210 n         1 DK2     -0.476400
     13 C9         -0.4280    0.5740   -1.2160 c         1 DK2      0.731100
     14 O10        -0.1680    0.3590   -2.4070 o         1 DK2     -0.611500
     15 C12         1.8840    1.3180   -0.5530 c3        1 DK2     -0.014300
     16 C13         2.1420    2.8670   -0.6830 c         1 DK2      0.913600
     17 O14         3.3130    3.1790   -1.0460 o         1 DK2     -0.830300
     18 O15         1.2190    3.6860   -0.4520 o         1 DK2     -0.830300
     19 C16         2.9410    0.7720    0.4210 c3        1 DK2     -0.056100
     20 C17         3.0510   -0.7100    0.4200 ca        1 DK2     -0.065300
     21 C18         3.9290   -1.3610   -0.4560 ca        1 DK2     -0.100000
     22 C19         4.0540   -2.7480   -0.4480 ca        1 DK2     -0.186500
     23 C20         3.2820   -3.4940    0.4520 ca        1 DK2      0.083100
     24 O26         3.4550   -4.8670    0.4380 oh        1 DK2     -0.523100
     25 C21         2.3930   -2.8620    1.3320 ca        1 DK2     -0.186500
     26 C22         2.2840   -1.4750    1.3100 ca        1 DK2     -0.100000
     27 H3         -3.1840   -0.1730   -2.0560 ha        1 DK2      0.167000
     28 H6         -2.4640    1.0420    2.7820 ha        1 DK2      0.125000
     29 H1         -4.7460    0.3730    1.9250 ha        1 DK2      0.149000
     30 H12         2.0890    0.8900   -1.5800 h1        1 DK2      0.066700
     31 H161        3.9180    1.2310    0.1030 hc        1 DK2      0.077700
     32 H162        2.7090    1.1380    1.4570 hc        1 DK2      0.077700
     33 H18         4.5200   -0.7630   -1.1670 ha        1 DK2      0.146500
     34 H19         4.7370   -3.2620   -1.1360 ha        1 DK2      0.122500
     35 HO26        2.7400   -5.2490    0.9650 ho        1 DK2      0.405000
     36 H21         1.7800   -3.4580    2.0220 ha        1 DK2      0.122500
     37 H22         1.5800   -0.9600    1.9860 ha        1 DK2      0.146500
@<TRIPOS>BOND
     1    1    2 2   
     2    2    3 1   
     3    2   12 1   
     4    3    4 ar  
     5    3    6 ar  
     6    4    5 ar  
     7    4   13 1   
     8    5    8 ar  
     9    5   27 1   
    10    6    7 ar  
    11    6   28 1   
    12    7    8 ar  
    13    7   29 1   
    14    8    9 1   
    15    9   10 1   
    16    9   11 1   
    17   12   13 1   
    18   12   15 1   
    19   13   14 2   
    20   15   16 1   
    21   15   19 1   
    22   15   30 1   
    23   16   17 1   
    24   16   18 1   
    25   19   20 1   
    26   19   31 1   
    27   19   32 1   
    28   20   21 ar  
    29   20   26 ar  
    30   21   22 ar  
    31   21   33 1   
    32   22   23 ar  
    33   22   34 1   
    34   23   24 1   
    35   23   25 ar  
    36   24   35 1   
    37   25   26 ar  
    38   25   36 1   
    39   26   37 1   
@<TRIPOS>SUBSTRUCTURE
     1 DK2         1 TEMP              0 ****  ****    0 ROOT
