@<TRIPOS>MOLECULE
DK2
   37    39     1     0     0
SMALL
bcc


@<TRIPOS>ATOM
      1 O11         0.1600    0.7850    0.2200 o         1 DK2     -0.630500
      2 C7          1.3220    0.3550    0.1950 c         1 DK2      0.740100
      3 C5          2.1980    0.0940    1.3860 ca        1 DK2     -0.156600
      4 C4          3.4860   -0.2820    0.9100 ca        1 DK2     -0.163600
      5 C3          4.5190   -0.5430    1.7860 ca        1 DK2     -0.040000
      6 C6          1.9440    0.1910    2.7370 ca        1 DK2     -0.100000
      7 C1          2.9990   -0.0760    3.6280 ca        1 DK2     -0.115000
      8 C2          4.2680   -0.4280    3.1720 ca        1 DK2     -0.124600
      9 C23         5.3880   -0.6750    4.1720 c         1 DK2      0.906200
     10 O24         5.1170   -0.5680    5.4040 o         1 DK2     -0.835800
     11 O25         6.5350   -0.9660    3.7290 o         1 DK2     -0.835800
     12 N8          2.1160    0.1400   -0.9620 n         1 DK2     -0.476400
     13 C9          3.4240   -0.2880   -0.5880 c         1 DK2      0.731100
     14 O10         4.3360   -0.5510   -1.3820 o         1 DK2     -0.611500
     15 C12         1.6290    0.0490   -2.3210 c3        1 DK2     -0.014300
     16 C13         0.8130   -1.2470   -2.6880 c         1 DK2      0.913600
     17 O14         0.4660   -1.3270   -3.9030 o         1 DK2     -0.830300
     18 O15         0.5680   -2.1120   -1.8120 o         1 DK2     -0.830300
     19 C16         0.7680    1.2500   -2.7430 c3        1 DK2     -0.056100
     20 C17         1.5040    2.5410   -2.7640 ca        1 DK2     -0.065300
     21 C18         2.1670    2.9680   -3.9230 ca        1 DK2     -0.100000
     22 C19         2.8410    4.1860   -3.9570 ca        1 DK2     -0.186500
     23 C20         2.8530    4.9870   -2.8080 ca        1 DK2      0.083100
     24 O26         3.5180    6.1990   -2.8970 oh        1 DK2     -0.523100
     25 C21         2.2030    4.5760   -1.6370 ca        1 DK2     -0.186500
     26 C22         1.5330    3.3560   -1.6240 ca        1 DK2     -0.100000
     27 H3          5.5270   -0.8310    1.4480 ha        1 DK2      0.167000
     28 H6          0.9490    0.4700    3.1070 ha        1 DK2      0.125000
     29 H1          2.8390   -0.0080    4.7160 ha        1 DK2      0.149000
     30 H12         2.5510    0.0220   -2.9770 h1        1 DK2      0.066700
     31 H161       -0.1170    1.3270   -2.0560 hc        1 DK2      0.077700
     32 H162        0.3850    1.0080   -3.7740 hc        1 DK2      0.077700
     33 H18         2.1600    2.3210   -4.8140 ha        1 DK2      0.146500
     34 H19         3.3640    4.5210   -4.8620 ha        1 DK2      0.122500
     35 HO26        3.5990    6.5440   -1.9970 ho        1 DK2      0.405000
     36 H21         2.2330    5.2040   -0.7370 ha        1 DK2      0.122500
     37 H22         1.0260    3.0090   -0.7080 ha        1 DK2      0.146500
@<TRIPOS>BOND
     1    1    2 2   
     2    2    3 1   
     3    2   12 1   
     4    3    4 ar  
     5    3    6 ar  
     6    4    5 ar  
     7    4   13 1   
     8    5    8 ar  
     9    5   27 1   
    10    6    7 ar  
    11    6   28 1   
    12    7    8 ar  
    13    7   29 1   
    14    8    9 1   
    15    9   10 1   
    16    9   11 1   
    17   12   13 1   
    18   12   15 1   
    19   13   14 2   
    20   15   16 1   
    21   15   19 1   
    22   15   30 1   
    23   16   17 1   
    24   16   18 1   
    25   19   20 1   
    26   19   31 1   
    27   19   32 1   
    28   20   21 ar  
    29   20   26 ar  
    30   21   22 ar  
    31   21   33 1   
    32   22   23 ar  
    33   22   34 1   
    34   23   24 1   
    35   23   25 ar  
    36   24   35 1   
    37   25   26 ar  
    38   25   36 1   
    39   26   37 1   
@<TRIPOS>SUBSTRUCTURE
     1 DK2         1 TEMP              0 ****  ****    0 ROOT
