@<TRIPOS>MOLECULE
DK2
   37    34     1     0     0
SMALL
bcc


@<TRIPOS>ATOM
      1 O11         2.4850   -0.5180    0.1960 o         1 DK2     -0.353000
      2 C7          1.5000   -0.6720    0.8980 c1        1 DK2      0.368000
      3 C5          1.4900   -0.7400    2.4290 c2        1 DK2     -0.138000
      4 C4          0.1810   -0.8140    2.8420 c2        1 DK2     -0.141000
      5 C3         -0.1210   -0.9140    4.2190 c1        1 DK2     -0.041000
      6 C6          2.5310   -0.7640    3.3820 c1        1 DK2     -0.099000
      7 C1          2.2320   -0.8620    4.7390 c1        1 DK2     -0.117000
      8 C2          0.9060   -0.9370    5.1560 c1        1 DK2     -0.101000
      9 C23         0.5630   -0.8830    6.6630 c2        1 DK2      0.355000
     10 O24         0.5210    0.2300    7.2640 o         1 DK2     -0.570000
     11 O25         0.3310   -1.9600    7.3020 o         1 DK2     -0.570000
     12 N8          0.1360   -0.7120    0.4420 n2        1 DK2     -0.309000
     13 C9         -0.7130   -0.7970    1.5910 c2        1 DK2      0.376000
     14 O10        -1.9280   -0.7650    1.5830 o         1 DK2     -0.331000
     15 C12        -0.2950   -0.7400   -0.9320 c3        1 DK2     -0.041000
     16 C13        -1.1020   -1.9880   -1.1810 c2        1 DK2      0.332000
     17 O14        -0.5890   -2.9570   -1.8120 o         1 DK2     -0.566500
     18 O15        -2.2920   -2.0570   -0.7810 o         1 DK2     -0.566500
     19 C16        -1.1450    0.4760   -1.2200 c3        1 DK2     -0.120000
     20 C17        -0.8320    1.0000   -2.6420 c2        1 DK2     -0.069000
     21 C18        -0.3950    2.2970   -2.8170 c2        1 DK2     -0.113000
     22 C19        -0.2000    2.7970   -4.1000 c1        1 DK2     -0.174000
     23 C20        -0.4440    1.9950   -5.2000 c1        1 DK2      0.036000
     24 O26        -0.2190    2.4910   -6.4920 oh        1 DK2     -0.279000
     25 C21        -0.8810    0.6970   -5.0250 c1        1 DK2     -0.218000
     26 C22        -1.0760    0.1960   -3.7450 c1        1 DK2     -0.087000
     27 H3         -1.0490   -0.9670    4.5120 ha        1 DK2      0.168000
     28 H6          3.4690   -0.7110    3.0870 ha        1 DK2      0.125000
     29 H1          2.9580   -0.8780    5.4020 ha        1 DK2      0.149000
     30 H12         0.4970   -0.7360   -1.5250 h1        1 DK2      0.106000
     31 H161       -0.9470    1.1790   -0.5610 hc        1 DK2      0.103500
     32 H162       -2.0850    0.2350   -1.1630 hc        1 DK2      0.103500
     33 H18        -0.2220    2.8670   -2.0360 ha        1 DK2      0.128000
     34 H19         0.1140    3.7280   -4.2260 ha        1 DK2      0.124000
     35 HO26       -0.9800    2.7780   -6.8330 ho        1 DK2      0.201000
     36 H21        -1.0180    0.1240   -5.7950 ha        1 DK2      0.116000
     37 H22        -1.3850   -0.7200   -3.6220 ha        1 DK2      0.212000
@<TRIPOS>BOND
     1    1    2 1   
     2    2    3 1   
     3    3    4 1   
     4    3    6 1   
     5    4    5 1   
     6    4   13 1   
     7    5   27 1   
     8    6   28 1   
     9    7    8 1   
    10    7   29 1   
    11    8    9 1   
    12    9   10 1   
    13    9   11 1   
    14   12   13 1   
    15   12   15 1   
    16   13   14 1   
    17   15   16 1   
    18   15   19 1   
    19   15   30 1   
    20   16   17 1   
    21   16   18 1   
    22   19   20 1   
    23   19   31 1   
    24   19   32 1   
    25   20   21 1   
    26   20   26 1   
    27   21   22 1   
    28   21   33 1   
    29   22   34 1   
    30   23   24 1   
    31   23   25 1   
    32   24   35 1   
    33   25   36 1   
    34   26   37 1   
@<TRIPOS>SUBSTRUCTURE
     1 DK2         1 TEMP              0 ****  ****    0 ROOT
