@<TRIPOS>MOLECULE
DK3
   42    41     1     0     0
SMALL
bcc


@<TRIPOS>ATOM
      1 C12        -6.5000   -0.1860   -3.9900 c3        1 DK3     -0.093100
      2 C13         7.0110    0.6640    4.2660 c3        1 DK3      0.126700
      3 C11        -4.9870   -0.1450   -3.9760 c3        1 DK3     -0.080400
      4 O3          3.6590   -1.3110    1.6900 oh        1 DK3     -0.601800
      5 C3          3.0220   -0.0620    1.8090 c3        1 DK3      0.142100
      6 C2          3.4220    0.5850    3.1150 c3        1 DK3     -0.128400
      7 C1          4.9270    0.7360    3.1630 c         1 DK3      0.636100
      8 O1          5.6340    0.3680    4.3200 os        1 DK3     -0.439900
      9 O2          5.5240    1.1730    2.1990 o         1 DK3     -0.545000
     10 C4          1.5220   -0.2570    1.7820 c3        1 DK3     -0.115400
     11 C5          1.0300   -0.1860    0.3520 c3        1 DK3     -0.081400
     12 C6         -0.4830   -0.1580    0.3400 c3        1 DK3     -0.077400
     13 C7         -0.9770   -0.1640   -1.0900 c3        1 DK3     -0.079400
     14 C8         -2.4900   -0.1740   -1.1020 c3        1 DK3     -0.078400
     15 C9         -2.9830   -0.1060   -2.5310 c3        1 DK3     -0.079400
     16 C10        -4.4950   -0.1650   -2.5450 c3        1 DK3     -0.079400
     17 H12        -6.8190   -0.1540   -4.9160 hc        1 DK3      0.032700
     18 H12A       -6.8080   -1.0140   -3.5660 hc        1 DK3      0.032700
     19 H12B       -6.8520    0.5840   -3.4970 hc        1 DK3      0.032700
     20 H13         7.4610    0.2690    5.0440 h1        1 DK3      0.050367
     21 H13A        7.1380    1.6370    4.2740 h1        1 DK3      0.050367
     22 H13B        7.3940    0.2910    3.4430 h1        1 DK3      0.050367
     23 H11        -4.6360   -0.9230   -4.4530 hc        1 DK3      0.038700
     24 H11A       -4.6790    0.6740   -4.4150 hc        1 DK3      0.038700
     25 HO3         3.9490   -1.4180    0.8560 ho        1 DK3      0.406000
     26 H3          3.2890    0.5130    1.0650 h1        1 DK3      0.063700
     27 H2          3.1270    0.0250    3.8610 hc        1 DK3      0.092200
     28 H2A         3.0030    1.4670    3.1840 hc        1 DK3      0.092200
     29 H4          1.0920    0.4450    2.3100 hc        1 DK3      0.054200
     30 H4A         1.3000   -1.1310    2.1600 hc        1 DK3      0.054200
     31 H5          1.3750    0.6260   -0.0710 hc        1 DK3      0.040700
     32 H5A         1.3460   -0.9700   -0.1400 hc        1 DK3      0.040700
     33 H6         -0.7980    0.6520    0.7900 hc        1 DK3      0.042200
     34 H6A        -0.8270   -0.9450    0.8070 hc        1 DK3      0.042200
     35 H7         -0.6520    0.6360   -1.5500 hc        1 DK3      0.040200
     36 H7A        -0.6410   -0.9610   -1.5470 hc        1 DK3      0.040200
     37 H8         -2.8250    0.5980   -0.6040 hc        1 DK3      0.039700
     38 H8A        -2.8130   -0.9970   -0.6840 hc        1 DK3      0.039700
     39 H9         -2.6860    0.7310   -2.9390 hc        1 DK3      0.039700
     40 H9A        -2.6230   -0.8620   -3.0370 hc        1 DK3      0.039700
     41 H10        -4.7940   -0.9890   -2.1100 hc        1 DK3      0.039700
     42 H10A       -4.8560    0.6060   -2.0650 hc        1 DK3      0.039700
@<TRIPOS>BOND
     1    1    3 1   
     2    1   17 1   
     3    1   18 1   
     4    1   19 1   
     5    2    8 1   
     6    2   20 1   
     7    2   21 1   
     8    2   22 1   
     9    3   16 1   
    10    3   23 1   
    11    3   24 1   
    12    4    5 1   
    13    4   25 1   
    14    5    6 1   
    15    5   10 1   
    16    5   26 1   
    17    6    7 1   
    18    6   27 1   
    19    6   28 1   
    20    7    8 1   
    21    7    9 2   
    22   10   11 1   
    23   10   29 1   
    24   10   30 1   
    25   11   12 1   
    26   11   31 1   
    27   11   32 1   
    28   12   13 1   
    29   12   33 1   
    30   12   34 1   
    31   13   14 1   
    32   13   35 1   
    33   13   36 1   
    34   14   15 1   
    35   14   37 1   
    36   14   38 1   
    37   15   16 1   
    38   15   39 1   
    39   15   40 1   
    40   16   41 1   
    41   16   42 1   
@<TRIPOS>SUBSTRUCTURE
     1 DK3         1 TEMP              0 ****  ****    0 ROOT
