@<TRIPOS>MOLECULE
DK3
   42    41     1     0     0
SMALL
bcc


@<TRIPOS>ATOM
      1 C12        -0.0370    0.1020    0.0450 c3        1 DK3     -0.092100
      2 C13        13.6630    0.8800    8.3130 c3        1 DK3      0.124700
      3 C11         1.4690    0.1340    0.0510 c3        1 DK3     -0.080400
      4 O3         10.1290   -1.4390    5.1430 oh        1 DK3     -0.603800
      5 C3          9.7370   -0.1820    5.6730 c3        1 DK3      0.154100
      6 C2         10.2710   -0.0050    7.0960 c3        1 DK3     -0.171400
      7 C1         11.7610    0.1140    7.1040 c         1 DK3      0.632100
      8 O1         12.2440    0.7470    8.2140 os        1 DK3     -0.435900
      9 O2         12.5690   -0.2850    6.2600 o         1 DK3     -0.557000
     10 C4          8.2110   -0.1550    5.6790 c3        1 DK3     -0.075400
     11 C5          7.6620   -0.0690    4.2720 c3        1 DK3     -0.078400
     12 C6          6.1480   -0.0980    4.2740 c3        1 DK3     -0.078400
     13 C7          5.5980    0.0010    2.8670 c3        1 DK3     -0.078400
     14 C8          4.0850   -0.0320    2.8660 c3        1 DK3     -0.078400
     15 C9          3.5340    0.0680    1.4590 c3        1 DK3     -0.079400
     16 C10         2.0210    0.0350    1.4580 c3        1 DK3     -0.079400
     17 H12        -0.4530    0.9530    0.6360 hc        1 DK3      0.032700
     18 H12A       -0.4230    0.1760   -1.0000 hc        1 DK3      0.032700
     19 H12B       -0.4130   -0.8500    0.4920 hc        1 DK3      0.032700
     20 H13        14.0500    1.4780    7.4540 h1        1 DK3      0.053033
     21 H13A       14.1400   -0.1300    8.3220 h1        1 DK3      0.053033
     22 H13B       13.8110    1.4120    9.2850 h1        1 DK3      0.053033
     23 H11         1.8280    1.0850   -0.4240 hc        1 DK3      0.038700
     24 H11A        1.8670   -0.7140   -0.5670 hc        1 DK3      0.038700
     25 H3         10.1380    0.6440    5.0200 h1        1 DK3      0.043700
     26 H2          9.9940   -0.8980    7.7180 hc        1 DK3      0.091700
     27 H2A         9.8200    0.9050    7.5680 hc        1 DK3      0.091700
     28 H4          7.8670    0.7260    6.2800 hc        1 DK3      0.050200
     29 H4A         7.8320   -1.0850    6.1770 hc        1 DK3      0.050200
     30 H5          8.0610   -0.9290    3.6710 hc        1 DK3      0.049700
     31 H5A         8.0200    0.8750    3.7830 hc        1 DK3      0.049700
     32 H6          5.7910   -1.0480    4.7510 hc        1 DK3      0.038700
     33 H6A         5.7550    0.7510    4.8920 hc        1 DK3      0.038700
     34 H7          5.9940   -0.8480    2.2490 hc        1 DK3      0.040700
     35 H7A         5.9540    0.9510    2.3890 hc        1 DK3      0.040700
     36 H8          3.6890    0.8160    3.4850 hc        1 DK3      0.039200
     37 H8A         3.7290   -0.9840    3.3420 hc        1 DK3      0.039200
     38 H9          3.9300   -0.7800    0.8400 hc        1 DK3      0.039200
     39 H9A         3.8900    1.0190    0.9830 hc        1 DK3      0.039200
     40 H10         1.6650   -0.9170    1.9340 hc        1 DK3      0.039200
     41 H10A        1.6250    0.8820    2.0770 hc        1 DK3      0.039200
     42 HO3        11.0920   -1.4180    5.0510 ho        1 DK3      0.424000
@<TRIPOS>BOND
     1    1    3 1   
     2    1   17 1   
     3    1   18 1   
     4    1   19 1   
     5    2    8 1   
     6    2   20 1   
     7    2   21 1   
     8    2   22 1   
     9    3   16 1   
    10    3   23 1   
    11    3   24 1   
    12    4    5 1   
    13    4   42 1   
    14    5    6 1   
    15    5   10 1   
    16    5   25 1   
    17    6    7 1   
    18    6   26 1   
    19    6   27 1   
    20    7    8 1   
    21    7    9 2   
    22   10   11 1   
    23   10   28 1   
    24   10   29 1   
    25   11   12 1   
    26   11   30 1   
    27   11   31 1   
    28   12   13 1   
    29   12   32 1   
    30   12   33 1   
    31   13   14 1   
    32   13   34 1   
    33   13   35 1   
    34   14   15 1   
    35   14   36 1   
    36   14   37 1   
    37   15   16 1   
    38   15   38 1   
    39   15   39 1   
    40   16   40 1   
    41   16   41 1   
@<TRIPOS>SUBSTRUCTURE
     1 DK3         1 TEMP              0 ****  ****    0 ROOT
