@<TRIPOS>MOLECULE
DK3
   42    41     1     0     0
SMALL
bcc


@<TRIPOS>ATOM
      1 C12         8.7250   -0.1920    0.0250 c3        1 DK3     -0.092100
      2 C13        -7.2940    0.2210   -0.0370 c3        1 DK3      0.125700
      3 C11         7.4350    0.5740   -0.1260 c3        1 DK3     -0.080400
      4 O3         -2.6110    1.0510    1.0180 oh        1 DK3     -0.586800
      5 C3         -2.5530    0.0790   -0.0120 c3        1 DK3      0.141100
      6 C2         -3.7500   -0.8700    0.0690 c3        1 DK3     -0.163400
      7 C1         -4.9920   -0.2210   -0.4550 c         1 DK3      0.638100
      8 O1         -6.0640   -0.3690    0.3830 os        1 DK3     -0.440900
      9 O2         -5.1590    0.3820   -1.5160 o         1 DK3     -0.539000
     10 C4         -1.2550   -0.7210    0.0390 c3        1 DK3     -0.111400
     11 C5         -0.0510    0.1840   -0.1050 c3        1 DK3     -0.080400
     12 C6          1.2400   -0.5920    0.0440 c3        1 DK3     -0.078400
     13 C7          2.4430    0.3120   -0.1140 c3        1 DK3     -0.079400
     14 C8          3.7350   -0.4610    0.0390 c3        1 DK3     -0.078400
     15 C9          4.9390    0.4430   -0.1200 c3        1 DK3     -0.079400
     16 C10         6.2310   -0.3300    0.0330 c3        1 DK3     -0.079400
     17 H12         8.7980   -0.9970   -0.7450 hc        1 DK3      0.032700
     18 H12A        9.5990    0.4920   -0.0960 hc        1 DK3      0.032700
     19 H12B        8.7850   -0.6660    1.0340 hc        1 DK3      0.032700
     20 H13        -8.0000   -0.0150    0.7970 h1        1 DK3      0.051367
     21 H13A       -7.1630    1.3230   -0.1640 h1        1 DK3      0.051367
     22 H13B       -7.6270   -0.2370   -0.9990 h1        1 DK3      0.051367
     23 H11         7.3910    1.3930    0.6390 hc        1 DK3      0.038700
     24 H11A        7.4040    1.0630   -1.1360 hc        1 DK3      0.038700
     25 H3         -2.6070    0.6880   -0.9620 h1        1 DK3      0.101700
     26 H2         -3.5580   -1.7790   -0.5600 hc        1 DK3      0.081700
     27 H2A        -3.9110   -1.2010    1.1290 hc        1 DK3      0.081700
     28 H4         -1.1980   -1.2780    1.0110 hc        1 DK3      0.046200
     29 H4A        -1.2590   -1.4800   -0.7860 hc        1 DK3      0.046200
     30 H5         -0.0770    0.6860   -1.1080 hc        1 DK3      0.051200
     31 H5A        -0.1030    0.9940    0.6700 hc        1 DK3      0.051200
     32 H6          1.2700   -1.0850    1.0520 hc        1 DK3      0.038200
     33 H6A         1.2790   -1.4090   -0.7250 hc        1 DK3      0.038200
     34 H7          2.4150    0.8020   -1.1230 hc        1 DK3      0.041700
     35 H7A         2.4010    1.1310    0.6520 hc        1 DK3      0.041700
     36 H8          3.7640   -0.9510    1.0480 hc        1 DK3      0.039200
     37 H8A         3.7760   -1.2800   -0.7270 hc        1 DK3      0.039200
     38 H9          4.9100    0.9320   -1.1290 hc        1 DK3      0.039700
     39 H9A         4.8970    1.2620    0.6450 hc        1 DK3      0.039700
     40 H10         6.2720   -1.1490   -0.7330 hc        1 DK3      0.039200
     41 H10A        6.2600   -0.8190    1.0420 hc        1 DK3      0.039200
     42 HO3        -2.4680    0.5970    1.8570 ho        1 DK3      0.398000
@<TRIPOS>BOND
     1    1    3 1   
     2    1   17 1   
     3    1   18 1   
     4    1   19 1   
     5    2    8 1   
     6    2   20 1   
     7    2   21 1   
     8    2   22 1   
     9    3   16 1   
    10    3   23 1   
    11    3   24 1   
    12    4    5 1   
    13    4   42 1   
    14    5    6 1   
    15    5   10 1   
    16    5   25 1   
    17    6    7 1   
    18    6   26 1   
    19    6   27 1   
    20    7    8 1   
    21    7    9 2   
    22   10   11 1   
    23   10   28 1   
    24   10   29 1   
    25   11   12 1   
    26   11   30 1   
    27   11   31 1   
    28   12   13 1   
    29   12   32 1   
    30   12   33 1   
    31   13   14 1   
    32   13   34 1   
    33   13   35 1   
    34   14   15 1   
    35   14   36 1   
    36   14   37 1   
    37   15   16 1   
    38   15   38 1   
    39   15   39 1   
    40   16   40 1   
    41   16   41 1   
@<TRIPOS>SUBSTRUCTURE
     1 DK3         1 TEMP              0 ****  ****    0 ROOT
