@<TRIPOS>MOLECULE
DK3
   42    41     1     0     0
SMALL
bcc


@<TRIPOS>ATOM
      1 C12        -0.0480    0.0910    0.0620 c3        1 DK3     -0.092100
      2 C13        13.6610    0.8790    8.3190 c3        1 DK3      0.125700
      3 C11         1.4580    0.1500    0.0670 c3        1 DK3     -0.080400
      4 O3         10.1560   -1.4080    5.0940 oh        1 DK3     -0.603800
      5 C3          9.7450   -0.1730    5.6590 c3        1 DK3      0.154100
      6 C2         10.2800   -0.0260    7.0850 c3        1 DK3     -0.171400
      7 C1         11.7670    0.1170    7.0930 c         1 DK3      0.632100
      8 O1         12.2430    0.7260    8.2200 os        1 DK3     -0.435900
      9 O2         12.5800   -0.2450    6.2370 o         1 DK3     -0.557000
     10 C4          8.2190   -0.1720    5.6700 c3        1 DK3     -0.075400
     11 C5          7.6640   -0.0570    4.2670 c3        1 DK3     -0.078400
     12 C6          6.1520   -0.1120    4.2710 c3        1 DK3     -0.078400
     13 C7          5.5960    0.0150    2.8680 c3        1 DK3     -0.078400
     14 C8          4.0830   -0.0440    2.8700 c3        1 DK3     -0.078400
     15 C9          3.5270    0.0830    1.4680 c3        1 DK3     -0.079400
     16 C10         2.0150    0.0240    1.4680 c3        1 DK3     -0.079400
     17 H12        -0.4060   -0.8780    0.4860 hc        1 DK3      0.032700
     18 H12A       -0.4380    0.1860   -0.9800 hc        1 DK3      0.032700
     19 H12B       -0.4770    0.9200    0.6760 hc        1 DK3      0.032700
     20 H13        14.0350    1.5080    7.4770 h1        1 DK3      0.053033
     21 H13A       14.1540   -0.1220    8.2980 h1        1 DK3      0.053033
     22 H13B       13.8020    1.3860    9.3060 h1        1 DK3      0.053033
     23 H11         1.7980    1.1190   -0.3850 hc        1 DK3      0.038700
     24 H11A        1.8690   -0.6750   -0.5740 hc        1 DK3      0.038700
     25 H3         10.1310    0.6770    5.0280 h1        1 DK3      0.043700
     26 H2          9.8150    0.8640    7.5830 hc        1 DK3      0.091700
     27 H2A        10.0190   -0.9410    7.6830 hc        1 DK3      0.091700
     28 H4          7.8620    0.6880    6.2950 hc        1 DK3      0.050200
     29 H4A         7.8560   -1.1210    6.1440 hc        1 DK3      0.050200
     30 H5          8.0760   -0.8940    3.6410 hc        1 DK3      0.049700
     31 H5A         8.0050    0.9050    3.8020 hc        1 DK3      0.049700
     32 H6          5.7450    0.7140    4.9120 hc        1 DK3      0.038700
     33 H6A         5.8110   -1.0800    4.7240 hc        1 DK3      0.038700
     34 H7          5.9340    0.9840    2.4150 hc        1 DK3      0.040700
     35 H7A         6.0040   -0.8100    2.2270 hc        1 DK3      0.040700
     36 H8          3.7450   -1.0130    3.3220 hc        1 DK3      0.039200
     37 H8A         3.6750    0.7800    3.5120 hc        1 DK3      0.039200
     38 H9          3.9360   -0.7420    0.8250 hc        1 DK3      0.039200
     39 H9A         3.8660    1.0520    1.0150 hc        1 DK3      0.039200
     40 H10         1.6770   -0.9460    1.9210 hc        1 DK3      0.039200
     41 H10A        1.6060    0.8480    2.1100 hc        1 DK3      0.039200
     42 HO3        11.1190   -1.3690    5.0000 ho        1 DK3      0.424000
@<TRIPOS>BOND
     1    1    3 1   
     2    1   17 1   
     3    1   18 1   
     4    1   19 1   
     5    2    8 1   
     6    2   20 1   
     7    2   21 1   
     8    2   22 1   
     9    3   16 1   
    10    3   23 1   
    11    3   24 1   
    12    4    5 1   
    13    4   42 1   
    14    5    6 1   
    15    5   10 1   
    16    5   25 1   
    17    6    7 1   
    18    6   26 1   
    19    6   27 1   
    20    7    8 1   
    21    7    9 2   
    22   10   11 1   
    23   10   28 1   
    24   10   29 1   
    25   11   12 1   
    26   11   30 1   
    27   11   31 1   
    28   12   13 1   
    29   12   32 1   
    30   12   33 1   
    31   13   14 1   
    32   13   34 1   
    33   13   35 1   
    34   14   15 1   
    35   14   36 1   
    36   14   37 1   
    37   15   16 1   
    38   15   38 1   
    39   15   39 1   
    40   16   40 1   
    41   16   41 1   
@<TRIPOS>SUBSTRUCTURE
     1 DK3         1 TEMP              0 ****  ****    0 ROOT
