@<TRIPOS>MOLECULE
DK4
   32    33     1     0     0
SMALL
bcc


@<TRIPOS>ATOM
      1 C1         -0.4020    0.2240    0.4710 c3        1 DK4      0.317500
      2 N1          1.0260    0.0370    0.3060 n         1 DK4     -0.356000
      3 C2         -0.9690    1.4530   -0.2980 c3        1 DK4      0.086100
      4 N2          3.2370   -0.1510    1.2780 n         1 DK4     -0.580500
      5 O2         -0.3510    2.6020    0.2410 oh        1 DK4     -0.576800
      6 C3         -2.4980    1.5090   -0.0700 c3        1 DK4      0.087600
      7 F3         -3.0500    2.5590   -0.7890 f         1 DK4     -0.237300
      8 C4         -3.1420    0.1680   -0.4930 c3        1 DK4      0.092100
      9 O4         -4.5020    0.1310   -0.1050 oh        1 DK4     -0.582800
     10 C5         -2.4390   -0.9910    0.2290 c3        1 DK4      0.108100
     11 O5         -1.0390   -0.9560   -0.0590 os        1 DK4     -0.443600
     12 C6         -2.9350   -2.3440   -0.2940 c3        1 DK4      0.141400
     13 O6         -2.4400   -3.4040    0.4900 oh        1 DK4     -0.586800
     14 C7          1.5570   -0.2520   -0.9410 cc        1 DK4      0.012600
     15 C8          2.9000   -0.4550   -1.1190 cd        1 DK4     -0.029700
     16 F8          3.4230   -0.7200   -2.3340 f         1 DK4     -0.131500
     17 C9          3.8360   -0.3940    0.0330 c         1 DK4      0.705700
     18 O9          5.0620   -0.5450   -0.0400 o         1 DK4     -0.575500
     19 C10         1.8600    0.0420    1.4600 c         1 DK4      0.821500
     20 O10         1.3870    0.2180    2.6010 o         1 DK4     -0.624500
     21 H1         -0.6300    0.3320    1.5760 h2        1 DK4      0.120700
     22 H2         -0.7550    1.3700   -1.3990 h1        1 DK4      0.061700
     23 HN2         3.8090   -0.1100    2.0970 hn        1 DK4      0.361500
     24 HO2        -0.7480    3.3650   -0.2030 ho        1 DK4      0.423000
     25 H3         -2.7040    1.6910    1.0250 h1        1 DK4      0.090700
     26 H4         -3.0520    0.0460   -1.6080 h1        1 DK4      0.061700
     27 HO4        -4.9340    0.8800   -0.5380 ho        1 DK4      0.421000
     28 H5         -2.6060   -0.9190    1.3390 h1        1 DK4      0.082700
     29 H6         -4.0530   -2.3850   -0.1860 h1        1 DK4      0.067200
     30 H6A        -2.6390   -2.4720   -1.3680 h1        1 DK4      0.067200
     31 HO6        -1.4760   -3.3870    0.4180 ho        1 DK4      0.411000
     32 H7          0.8350   -0.3110   -1.7770 h4        1 DK4      0.183000
@<TRIPOS>BOND
     1    1    2 1   
     2    1    3 1   
     3    1   11 1   
     4    1   21 1   
     5    2   14 1   
     6    2   19 1   
     7    3    5 1   
     8    3    6 1   
     9    3   22 1   
    10    4   17 1   
    11    4   19 1   
    12    4   23 1   
    13    5   24 1   
    14    6    7 1   
    15    6    8 1   
    16    6   25 1   
    17    8    9 1   
    18    8   10 1   
    19    8   26 1   
    20    9   27 1   
    21   10   11 1   
    22   10   12 1   
    23   10   28 1   
    24   12   13 1   
    25   12   29 1   
    26   12   30 1   
    27   13   31 1   
    28   14   15 2   
    29   14   32 1   
    30   15   16 1   
    31   15   17 1   
    32   17   18 2   
    33   19   20 2   
@<TRIPOS>SUBSTRUCTURE
     1 DK4         1 TEMP              0 ****  ****    0 ROOT
