@<TRIPOS>MOLECULE
DK4
   32    33     1     0     0
SMALL
bcc


@<TRIPOS>ATOM
      1 C1          0.1160    0.0540   -0.0030 c3        1 DK4      0.317500
      2 N1         -0.4500    0.1180   -1.3360 n         1 DK4     -0.356000
      3 C2          1.6730    0.0580    0.0200 c3        1 DK4      0.086100
      4 N2         -1.8550   -0.8430   -3.0600 n         1 DK4     -0.580500
      5 O2          2.1010   -1.1080   -0.6510 oh        1 DK4     -0.576800
      6 C3          2.1390    0.0290    1.4960 c3        1 DK4      0.087600
      7 F3          3.5220    0.0900    1.5600 f         1 DK4     -0.237300
      8 C4          1.5090    1.2110    2.2680 c3        1 DK4      0.092100
      9 O4          1.7620    1.0840    3.6540 oh        1 DK4     -0.582800
     10 C5         -0.0160    1.1900    2.0890 c3        1 DK4      0.108100
     11 O5         -0.3350    1.2320    0.6960 os        1 DK4     -0.443600
     12 C6         -0.6570    2.4430    2.6980 c3        1 DK4      0.141400
     13 O6         -2.0620    2.3400    2.7070 oh        1 DK4     -0.586800
     14 C7         -0.2460    1.2330   -2.1340 cc        1 DK4      0.012600
     15 C8         -0.7880    1.3260   -3.3880 cd        1 DK4     -0.029700
     16 F8         -0.5790    2.4030   -4.1730 f         1 DK4     -0.131500
     17 C9         -1.6390    0.2360   -3.9300 c         1 DK4      0.705700
     18 O9         -2.1510    0.2290   -5.0570 o         1 DK4     -0.575500
     19 C10        -1.3110   -0.9290   -1.7710 c         1 DK4      0.821500
     20 O10        -1.5730   -1.9010   -1.0330 o         1 DK4     -0.624500
     21 H1         -0.2680   -0.8800    0.5110 h2        1 DK4      0.120700
     22 H2          2.0790    0.9760   -0.4850 h1        1 DK4      0.061700
     23 HN2        -2.4290   -1.6050   -3.3590 hn        1 DK4      0.361500
     24 HO2         3.0660   -1.1280   -0.5850 ho        1 DK4      0.423000
     25 H3          1.8110   -0.9420    1.9690 h1        1 DK4      0.090700
     26 H4          1.9350    2.1790    1.8830 h1        1 DK4      0.061700
     27 HO4         2.7240    1.0670    3.7590 ho        1 DK4      0.421000
     28 H5         -0.4520    0.2650    2.5570 h1        1 DK4      0.082700
     29 H6         -0.3280    3.3540    2.1330 h1        1 DK4      0.067200
     30 H6A        -0.3520    2.5160    3.7770 h1        1 DK4      0.067200
     31 HO6        -2.3500    2.2700    1.7870 ho        1 DK4      0.411000
     32 H7          0.3750    2.0380   -1.6970 h4        1 DK4      0.183000
@<TRIPOS>BOND
     1    1    2 1   
     2    1    3 1   
     3    1   11 1   
     4    1   21 1   
     5    2   14 1   
     6    2   19 1   
     7    3    5 1   
     8    3    6 1   
     9    3   22 1   
    10    4   17 1   
    11    4   19 1   
    12    4   23 1   
    13    5   24 1   
    14    6    7 1   
    15    6    8 1   
    16    6   25 1   
    17    8    9 1   
    18    8   10 1   
    19    8   26 1   
    20    9   27 1   
    21   10   11 1   
    22   10   12 1   
    23   10   28 1   
    24   12   13 1   
    25   12   29 1   
    26   12   30 1   
    27   13   31 1   
    28   14   15 2   
    29   14   32 1   
    30   15   16 1   
    31   15   17 1   
    32   17   18 2   
    33   19   20 2   
@<TRIPOS>SUBSTRUCTURE
     1 DK4         1 TEMP              0 ****  ****    0 ROOT
