@<TRIPOS>MOLECULE
DK4
   32    32     1     0     0
SMALL
bcc


@<TRIPOS>ATOM
      1 C1         -0.1590   -0.6670   -0.0790 c3        1 DK4      0.334500
      2 N1         -0.6530   -0.4850   -1.4720 n         1 DK4     -0.351000
      3 C2          1.2730   -0.6690   -0.0970 c3        1 DK4      0.080100
      4 N2         -1.1090    1.0350   -3.4680 n         1 DK4     -0.582500
      5 O2          1.7430   -1.9230   -0.8460 oh        1 DK4     -0.589800
      6 C3          1.8710   -0.6700    1.1820 c3        1 DK4      0.092600
      7 F3          3.3010   -0.4960    1.0200 f         1 DK4     -0.236300
      8 C4          1.3610    0.3950    2.0740 c3        1 DK4      0.091100
      9 O4          1.9500    0.2320    3.3500 oh        1 DK4     -0.586800
     10 C5         -0.2270    0.3960    2.2450 c3        1 DK4      0.111100
     11 O5         -0.7360    0.3810    0.7560 os        1 DK4     -0.432600
     12 C6         -0.6370    1.4950    2.8790 c3        1 DK4      0.141400
     13 O6         -2.0490    1.4270    3.0880 oh        1 DK4     -0.590800
     14 C7         -1.2020   -1.5910   -2.1830 c2        1 DK4     -0.058500
     15 C8         -1.7160   -1.4060   -3.5470 c1        1 DK4     -0.001900
     16 F8         -2.2870   -2.4070   -4.1730 f         1 DK4     -0.068000
     17 C9         -1.6750   -0.0670   -4.1760 c2        1 DK4      0.674300
     18 O9         -2.0990    0.0880   -5.3050 o         1 DK4     -0.564300
     19 C10        -0.6150    0.8520   -2.1000 c         1 DK4      0.784100
     20 O10        -0.2490    1.8410   -1.4340 o         1 DK4     -0.591100
     21 H1         -0.4790   -1.5700    0.2650 h2        1 DK4      0.075700
     22 H2          1.5830    0.1260   -0.5880 h1        1 DK4      0.106700
     23 HN2        -1.0830    1.8810   -3.8640 hn        1 DK4      0.360500
     24 HO2         2.6380   -1.8240   -1.0860 ho        1 DK4      0.425000
     25 H3          1.7000   -1.5720    1.6230 h1        1 DK4      0.080700
     26 H4          1.6400    1.2750    1.7090 h1        1 DK4      0.072700
     27 HO4         2.5330    0.9220    3.5080 ho        1 DK4      0.421000
     28 H5         -0.5240   -0.4130    2.7210 h1        1 DK4      0.071700
     29 H6         -0.1690    1.5630    3.7680 h1        1 DK4      0.070200
     30 H6A        -0.4200    2.3010    2.3250 h1        1 DK4      0.070200
     31 HO6        -2.2960    2.0600    3.6640 ho        1 DK4      0.410000
     32 H7         -1.2120   -2.5110   -1.7590 h4        1 DK4      0.181000
@<TRIPOS>BOND
     1    1    2 1   
     2    1    3 1   
     3    1   11 1   
     4    1   21 1   
     5    2   14 1   
     6    2   19 1   
     7    3    5 1   
     8    3    6 1   
     9    3   22 1   
    10    4   17 1   
    11    4   19 1   
    12    4   23 1   
    13    5   24 1   
    14    6    7 1   
    15    6    8 1   
    16    6   25 1   
    17    8    9 1   
    18    8   10 1   
    19    8   26 1   
    20    9   27 1   
    21   10   11 1   
    22   10   12 1   
    23   10   28 1   
    24   12   13 1   
    25   12   29 1   
    26   12   30 1   
    27   13   31 1   
    28   14   15 2   
    29   14   32 1   
    30   15   17 2   
    31   17   18 1   
    32   19   20 2   
@<TRIPOS>SUBSTRUCTURE
     1 DK4         1 TEMP              0 ****  ****    0 ROOT
