@<TRIPOS>MOLECULE
DK4
   32    33     1     0     0
SMALL
bcc


@<TRIPOS>ATOM
      1 C1          0.1240    0.0540   -0.0030 c3        1 DK4      0.317500
      2 N1         -0.4430    0.1090   -1.3370 n         1 DK4     -0.356000
      3 C2          1.6810    0.0780    0.0200 c3        1 DK4      0.086100
      4 N2         -1.8370   -0.8720   -3.0590 ns        1 DK4     -0.580500
      5 O2          2.1240   -1.0830   -0.6510 oh        1 DK4     -0.576800
      6 C3          2.1470    0.0570    1.4950 c3        1 DK4      0.087600
      7 F3          3.5300    0.1370    1.5580 f         1 DK4     -0.237300
      8 C4          1.5020    1.2320    2.2660 c3        1 DK4      0.092100
      9 O4          1.7580    1.1090    3.6520 oh        1 DK4     -0.582800
     10 C5         -0.0230    1.1900    2.0870 c3        1 DK4      0.108100
     11 O5         -0.3420    1.2260    0.6950 os        1 DK4     -0.443600
     12 C6         -0.6800    2.4350    2.6950 c3        1 DK4      0.141400
     13 O6         -2.0830    2.3140    2.7050 oh        1 DK4     -0.586800
     14 C7         -0.2530    1.2250   -2.1350 cc        1 DK4      0.012600
     15 C8         -0.7980    1.3100   -3.3900 cd        1 DK4     -0.029700
     16 F8         -0.6020    2.3880   -4.1760 f         1 DK4     -0.131500
     17 C9         -1.6350    0.2090   -3.9300 c         1 DK4      0.705700
     18 O9         -2.1480    0.1940   -5.0560 o         1 DK4     -0.575500
     19 C10        -1.2910   -0.9500   -1.7690 c         1 DK4      0.821500
     20 O10        -1.5400   -1.9240   -1.0300 o         1 DK4     -0.624500
     21 H1         -0.2470   -0.8840    0.5120 h2        1 DK4      0.120700
     22 H2          2.0750    1.0020   -0.4870 h1        1 DK4      0.061700
     23 HN2        -2.4020   -1.6410   -3.3560 hn        1 DK4      0.361500
     24 HO2         3.0900   -1.0890   -0.5840 ho        1 DK4      0.423000
     25 H3          1.8320   -0.9180    1.9700 h1        1 DK4      0.090700
     26 H4          1.9150    2.2040    1.8800 h1        1 DK4      0.061700
     27 HO4         2.7190    1.1060    3.7570 ho        1 DK4      0.421000
     28 H5         -0.4460    0.2600    2.5560 h1        1 DK4      0.082700
     29 H6         -0.3760    2.5130    3.7740 h1        1 DK4      0.067200
     30 H6A        -0.3630    3.3500    2.1290 h1        1 DK4      0.067200
     31 HO6        -2.3700    2.2390    1.7850 ho        1 DK4      0.411000
     32 H7          0.3570    2.0380   -1.7000 h4        1 DK4      0.183000
@<TRIPOS>BOND
     1    1    2 1   
     2    1    3 1   
     3    1   11 1   
     4    1   21 1   
     5    2   14 1   
     6    2   19 1   
     7    3    5 1   
     8    3    6 1   
     9    3   22 1   
    10    4   17 1   
    11    4   19 1   
    12    4   23 1   
    13    5   24 1   
    14    6    7 1   
    15    6    8 1   
    16    6   25 1   
    17    8    9 1   
    18    8   10 1   
    19    8   26 1   
    20    9   27 1   
    21   10   11 1   
    22   10   12 1   
    23   10   28 1   
    24   12   13 1   
    25   12   29 1   
    26   12   30 1   
    27   13   31 1   
    28   14   15 2   
    29   14   32 1   
    30   15   16 1   
    31   15   17 1   
    32   17   18 2   
    33   19   20 2   
@<TRIPOS>SUBSTRUCTURE
     1 DK4         1 TEMP              0 ****  ****    0 ROOT
