@<TRIPOS>MOLECULE
DK4
   32    33     1     0     0
SMALL
bcc


@<TRIPOS>ATOM
      1 C1          0.1200    0.0570   -0.0020 c3        1 DK4      0.317500
      2 N1         -0.4520    0.1140   -1.3330 n         1 DK4     -0.356000
      3 C2          1.6770    0.0870    0.0150 c3        1 DK4      0.086100
      4 N2         -1.8490   -0.8670   -3.0530 n         1 DK4     -0.580500
      5 O2          2.1230   -1.0700   -0.6610 oh        1 DK4     -0.576800
      6 C3          2.1490    0.0630    1.4880 c3        1 DK4      0.087600
      7 F3          3.5320    0.1480    1.5470 f         1 DK4     -0.237300
      8 C4          1.5020    1.2320    2.2660 c3        1 DK4      0.092100
      9 O4          1.7640    1.1050    3.6510 oh        1 DK4     -0.582800
     10 C5         -0.0230    1.1850    2.0930 c3        1 DK4      0.108100
     11 O5         -0.3480    1.2240    0.7020 os        1 DK4     -0.443600
     12 C6         -0.6830    2.4240    2.7080 c3        1 DK4      0.141400
     13 O6         -2.0850    2.2980    2.7230 oh        1 DK4     -0.586800
     14 C7         -0.2700    1.2330   -2.1280 cc        1 DK4      0.012600
     15 C8         -0.8200    1.3210   -3.3800 cd        1 DK4     -0.029700
     16 F8         -0.6310    2.4030   -4.1640 f         1 DK4     -0.131500
     17 C9         -1.6540    0.2180   -3.9210 c         1 DK4      0.705700
     18 O9         -2.1710    0.2050   -5.0460 o         1 DK4     -0.575500
     19 C10        -1.2970   -0.9470   -1.7660 c         1 DK4      0.821500
     20 O10        -1.5390   -1.9250   -1.0300 o         1 DK4     -0.624500
     21 H1         -0.2450   -0.8850    0.5120 h2        1 DK4      0.120700
     22 H2          2.0650    1.0140   -0.4900 h1        1 DK4      0.061700
     23 HN2        -2.4110   -1.6370   -3.3510 hn        1 DK4      0.361500
     24 HO2         3.0880   -1.0730   -0.5980 ho        1 DK4      0.423000
     25 H3          1.8400   -0.9150    1.9610 h1        1 DK4      0.090700
     26 H4          1.9100    2.2080    1.8820 h1        1 DK4      0.061700
     27 HO4         2.7260    1.1050    3.7520 ho        1 DK4      0.421000
     28 H5         -0.4410    0.2510    2.5600 h1        1 DK4      0.082700
     29 H6         -0.3720    3.3430    2.1440 h1        1 DK4      0.067200
     30 H6A        -0.3750    2.5000    3.7860 h1        1 DK4      0.067200
     31 HO6        -2.3760    2.2250    1.8040 ho        1 DK4      0.411000
     32 H7          0.3390    2.0480   -1.6920 h4        1 DK4      0.183000
@<TRIPOS>BOND
     1    1    2 1   
     2    1    3 1   
     3    1   11 1   
     4    1   21 1   
     5    2   14 1   
     6    2   19 1   
     7    3    5 1   
     8    3    6 1   
     9    3   22 1   
    10    4   17 1   
    11    4   19 1   
    12    4   23 1   
    13    5   24 1   
    14    6    7 1   
    15    6    8 1   
    16    6   25 1   
    17    8    9 1   
    18    8   10 1   
    19    8   26 1   
    20    9   27 1   
    21   10   11 1   
    22   10   12 1   
    23   10   28 1   
    24   12   13 1   
    25   12   29 1   
    26   12   30 1   
    27   13   31 1   
    28   14   15 2   
    29   14   32 1   
    30   15   16 1   
    31   15   17 1   
    32   17   18 2   
    33   19   20 2   
@<TRIPOS>SUBSTRUCTURE
     1 DK4         1 TEMP              0 ****  ****    0 ROOT
