@<TRIPOS>MOLECULE
DK5
   45    44     1     0     0
SMALL
bcc


@<TRIPOS>ATOM
      1 C1          0.8580   -0.6700    0.8420 c2        1 DK5      0.212000
      2 N1         -1.7430    0.9420   -1.2130 n         1 DK5     -0.277000
      3 C2          1.3580   -1.7660    1.7320 c3        1 DK5     -0.202000
      4 N2         -1.5620    1.6110   -3.4390 n         1 DK5     -0.291000
      5 C3          1.8770   -1.2420    3.0300 c2        1 DK5     -0.042000
      6 F3          1.0640   -0.3760    3.6880 f         1 DK5     -0.104000
      7 C4          3.0780   -1.6270    3.5320 c2        1 DK5     -0.043000
      8 O4          3.4870   -1.1160    4.7350 oh        1 DK5     -0.233000
      9 C5         -0.5250    3.7840    2.8280 c2        1 DK5     -0.309000
     10 O5          0.2840   -0.8950   -0.2300 o         1 DK5     -0.362000
     11 C6         -0.2650    2.5820    2.3100 c2        1 DK5     -0.030000
     12 O6         -0.2450    2.2990    0.9610 oh        1 DK5     -0.325000
     13 C7         -2.0220   -0.2090   -2.0830 c3        1 DK5     -0.185000
     14 C8         -1.9230    0.2810   -3.5210 c1        1 DK5      0.129000
     15 C9         -1.3400    2.4990   -4.4580 c2        1 DK5      0.295000
     16 C10        -1.3580    2.0230   -2.0090 c2        1 DK5      0.340000
     17 O10        -1.0020    3.1680   -1.7110 o         1 DK5     -0.303000
     18 C11        -2.5680    1.4250   -6.3720 c2        1 DK5      0.362000
     19 O11        -3.3810    0.7760   -5.7190 o         1 DK5     -0.220000
     20 C12        -2.3950    1.4040   -7.8420 c2        1 DK5     -0.231000
     21 C13        -3.0100    0.4630   -8.6140 c2        1 DK5      0.048000
     22 C14        -2.8370    0.4800  -10.0790 c3        1 DK5     -0.196000
     23 C15        -1.9780    1.5640  -10.6010 c2        1 DK5     -0.031000
     24 C16        -1.3890    2.4780   -9.7850 c2        1 DK5     -0.195000
     25 C17        -1.5690    2.4400   -8.3810 c1        1 DK5     -0.123000
     26 H1         -1.2230    0.7930   -0.3640 hn        1 DK5      0.294000
     27 H2          1.0150    0.3740    1.2040 h4        1 DK5      0.131000
     28 H2A         0.5140   -2.4850    1.9330 hc        1 DK5      0.136000
     29 H3          2.1620   -2.3390    1.1950 hc        1 DK5      0.136000
     30 HN3        -0.7730    3.4270   -4.1490 h5        1 DK5      0.234000
     31 H4          3.7400   -2.3320    3.0090 h4        1 DK5      0.148000
     32 HO4         4.3240   -1.5480    4.9650 ho        1 DK5      0.228000
     33 H5         -0.5270    3.9480    3.9120 ha        1 DK5      0.133000
     34 H6         -0.7470    4.6650    2.2140 ha        1 DK5      0.133000
     35 H6A        -0.0320    1.6660    2.8810 h4        1 DK5      0.170000
     36 HO6        -0.4090    3.1160    0.4640 ho        1 DK5      0.229000
     37 H7         -3.0670   -0.5840   -1.8840 h1        1 DK5      0.184000
     38 H8         -1.3000   -1.0610   -1.9110 h1        1 DK5      0.184000
     39 H13        -3.6490   -0.3310   -8.1850 ha        1 DK5      0.172000
     40 H14        -2.4150   -0.5190  -10.4080 hc        1 DK5      0.180000
     41 H15        -3.8600    0.5540  -10.5620 hc        1 DK5      0.180000
     42 H16        -1.8440    1.5860  -11.6970 ha        1 DK5      0.162000
     43 H17        -0.7520    3.2800  -10.1970 ha        1 DK5      0.174000
     44 N3         -1.7060    2.4040   -5.7260 n         1 DK5     -0.233000
     45 H32        -1.3200    3.0750   -6.4190 hn        1 DK5      0.343000
@<TRIPOS>BOND
     1    1    3 1   
     2    1   10 1   
     3    1   27 1   
     4    2   13 1   
     5    2   16 1   
     6    2   26 1   
     7    3    5 1   
     8    3   28 1   
     9    3   29 1   
    10    4   14 1   
    11    4   15 1   
    12    4   16 1   
    13    5    6 1   
    14    5    7 1   
    15    7    8 1   
    16    7   31 1   
    17    8   32 1   
    18    9   11 1   
    19    9   33 1   
    20    9   34 1   
    21   11   12 1   
    22   11   35 1   
    23   12   36 1   
    24   13   14 1   
    25   13   37 1   
    26   13   38 1   
    27   15   30 1   
    28   15   44 1   
    29   16   17 1   
    30   18   19 1   
    31   18   20 1   
    32   18   44 1   
    33   20   21 1   
    34   20   25 1   
    35   21   22 1   
    36   21   39 1   
    37   22   23 1   
    38   22   40 1   
    39   22   41 1   
    40   23   24 1   
    41   23   42 1   
    42   24   25 1   
    43   24   43 1   
    44   44   45 1   
@<TRIPOS>SUBSTRUCTURE
     1 DK5         1 TEMP              0 ****  ****    0 ROOT
