@<TRIPOS>MOLECULE
DK5
   44    46     1     0     0
SMALL
bcc


@<TRIPOS>ATOM
      1 C1         -2.6020    0.4690    0.7320 c3        1 DK5      0.320500
      2 N1         -1.1510    0.4720    0.6380 n         1 DK5     -0.381000
      3 C2         -3.2840    1.7080    0.1310 c3        1 DK5     -0.147400
      4 N2          0.9390    0.4980   -0.6970 nc        1 DK5     -0.649100
      5 C3         -4.7970    1.5660    0.3130 c3        1 DK5      0.134600
      6 F3         -5.4700    2.6460   -0.2340 f         1 DK5     -0.235300
      7 C4         -5.2620    0.2480   -0.3550 c3        1 DK5      0.086100
      8 O4         -6.6280    0.0070   -0.0710 oh        1 DK5     -0.591800
      9 C5         -4.4700   -0.9300    0.2270 c3        1 DK5      0.112100
     10 O5         -3.0660   -0.7250    0.0690 os        1 DK5     -0.431600
     11 C6         -4.7830   -2.2250   -0.5310 c3        1 DK5      0.141400
     12 O6         -4.1390   -3.3280    0.0660 oh        1 DK5     -0.594800
     13 C7         -0.4180    0.0560    1.7280 cc        1 DK5      0.063600
     14 C8          0.9410   -0.0920    1.6790 cd        1 DK5     -0.417600
     15 C9          1.6130    0.1400    0.3940 cd        1 DK5      0.607200
     16 C10        -0.4610    0.6530   -0.6260 c         1 DK5      0.838900
     17 O10        -1.1290    0.9760   -1.6230 o         1 DK5     -0.585500
     18 C11         3.8650   -0.0280   -0.7210 c         1 DK5      0.679700
     19 O11         3.4720   -0.0160   -1.8920 o         1 DK5     -0.502100
     20 C12         5.3170   -0.0940   -0.3750 ca        1 DK5     -0.154600
     21 C13         5.8720    0.7060    0.6280 ca        1 DK5     -0.091000
     22 C14         7.2380    0.6310    0.8960 ca        1 DK5     -0.135500
     23 C15         8.0490   -0.2400    0.1680 ca        1 DK5     -0.105000
     24 C16         7.4950   -1.0330   -0.8380 ca        1 DK5     -0.135500
     25 C17         6.1310   -0.9590   -1.1160 ca        1 DK5     -0.091000
     26 H1         -2.8880    0.3940    1.8290 h2        1 DK5      0.044700
     27 H2         -2.9240    2.6340    0.6450 hc        1 DK5      0.097200
     28 H2A        -3.0460    1.7990   -0.9630 hc        1 DK5      0.097200
     29 H3         -5.0550    1.5230    1.4120 h1        1 DK5      0.059700
     30 HN3         3.4150   -0.1740    1.2830 hn        1 DK5      0.327500
     31 H4         -5.1010    0.3170   -1.4670 h1        1 DK5      0.072700
     32 HO4        -7.1180    0.7630   -0.4220 ho        1 DK5      0.419000
     33 H5         -4.7120   -1.0530    1.3190 h1        1 DK5      0.063700
     34 H6         -5.8830   -2.4350   -0.4500 h1        1 DK5      0.068200
     35 H6A        -4.4800   -2.1220   -1.6060 h1        1 DK5      0.068200
     36 HO6        -3.1890   -3.1810   -0.0220 ho        1 DK5      0.411000
     37 H7         -0.9750   -0.1400    2.6650 h4        1 DK5      0.156000
     38 H8          1.5030   -0.3930    2.5690 ha        1 DK5      0.156000
     39 H13         5.2450    1.4120    1.1940 ha        1 DK5      0.146500
     40 H14         7.6770    1.2650    1.6810 ha        1 DK5      0.140500
     41 H15         9.1260   -0.2980    0.3840 ha        1 DK5      0.138000
     42 H16         8.1360   -1.7140   -1.4190 ha        1 DK5      0.140500
     43 H17         5.6880   -1.5650   -1.9220 ha        1 DK5      0.146500
     44 N3          3.0010   -0.0240    0.3880 n         1 DK5     -0.489400
@<TRIPOS>BOND
     1    1    2 1   
     2    1    3 1   
     3    1   10 1   
     4    1   26 1   
     5    2   13 1   
     6    2   16 1   
     7    3    5 1   
     8    3   27 1   
     9    3   28 1   
    10    4   15 2   
    11    4   16 1   
    12    5    6 1   
    13    5    7 1   
    14    5   29 1   
    15    7    8 1   
    16    7    9 1   
    17    7   31 1   
    18    8   32 1   
    19    9   10 1   
    20    9   11 1   
    21    9   33 1   
    22   11   12 1   
    23   11   34 1   
    24   11   35 1   
    25   12   36 1   
    26   13   14 2   
    27   13   37 1   
    28   14   15 1   
    29   14   38 1   
    30   15   44 1   
    31   16   17 2   
    32   18   19 2   
    33   18   20 1   
    34   18   44 1   
    35   20   21 ar  
    36   20   25 ar  
    37   21   22 ar  
    38   21   39 1   
    39   22   23 ar  
    40   22   40 1   
    41   23   24 ar  
    42   23   41 1   
    43   24   25 ar  
    44   24   42 1   
    45   25   43 1   
    46   30   44 1   
@<TRIPOS>SUBSTRUCTURE
     1 DK5         1 TEMP              0 ****  ****    0 ROOT
