@<TRIPOS>MOLECULE
DK5
   45    47     1     0     0
SMALL
bcc


@<TRIPOS>ATOM
      1 C1          2.2980    0.9050   -0.1950 cx        1 DK5     -0.026000
      2 N1         -1.3790    0.6210   -1.9720 n         1 DK5     -0.374000
      3 C2          2.5400    2.3830   -0.0090 cx        1 DK5     -0.233000
      4 N2         -2.0580    0.4450   -4.3150 n2        1 DK5     -0.320000
      5 C3          2.8960    1.4270    1.1120 cx        1 DK5     -0.017000
      6 F3          4.1790    1.2320    1.5050 f         1 DK5     -0.105000
      7 C4          1.8140    1.2400    2.1840 c3        1 DK5      0.027000
      8 O4          2.1990    0.3580    3.2160 oh        1 DK5     -0.310000
      9 C5          0.6370    0.5750    1.4280 c3        1 DK5     -0.021000
     10 O5          0.9920    0.4250    0.0330 os        1 DK5     -0.262000
     11 C6         -0.6410    1.4050    1.5130 c3        1 DK5     -0.036000
     12 O6         -1.7510    0.6790    1.0190 oh        1 DK5     -0.354000
     13 C7         -2.7090    0.2900   -1.5430 c3        1 DK5     -0.134000
     14 C8         -3.7450    0.0470   -2.5300 c1        1 DK5      0.021000
     15 C9         -3.2940    0.1630   -3.9600 c2        1 DK5      0.098000
     16 C10        -1.0530    0.6620   -3.3160 c2        1 DK5      0.352000
     17 O10         0.1080    0.8970   -3.7240 o         1 DK5     -0.370000
     18 C11        -4.2010    0.0570   -6.2940 c2        1 DK5      0.343000
     19 O11        -5.1740   -0.2490   -6.9960 o         1 DK5     -0.264000
     20 C12        -2.9450    0.6110   -6.8920 c2        1 DK5     -0.187000
     21 C13        -1.7640   -0.1110   -6.8680 c2        1 DK5      0.146000
     22 C14        -0.4930    0.5190   -7.2220 c3        1 DK5     -0.239000
     23 C15        -0.5880    1.8550   -7.8130 c2        1 DK5      0.043000
     24 C16        -1.7910    2.5040   -7.9210 c2        1 DK5     -0.208000
     25 C17        -2.9750    1.9020   -7.4440 c2        1 DK5      0.144000
     26 H1         -0.6620    0.7240   -1.2800 hn        1 DK5      0.295000
     27 H2          2.8020    0.2980   -0.9610 h1        1 DK5      0.175000
     28 H2A         1.6880    3.0700    0.1390 hc        1 DK5      0.133000
     29 H3          3.3630    2.8450   -0.5850 hc        1 DK5      0.133000
     30 HN3        -5.1810   -0.3660   -4.5320 hn        1 DK5      0.292000
     31 H4          1.5190    2.2310    2.6250 h1        1 DK5      0.108000
     32 HO4         3.0980    0.5960    3.4830 ho        1 DK5      0.230000
     33 H5         -0.8180    1.7200    2.5750 h1        1 DK5      0.106000
     34 H6          0.4660   -0.4680    1.8150 h1        1 DK5      0.137000
     35 H6A        -0.5740    2.3080    0.8480 h1        1 DK5      0.106000
     36 HO6        -1.9210   -0.0440    1.6370 ho        1 DK5      0.214000
     37 H7         -3.1020    1.1130   -0.8460 h1        1 DK5      0.203000
     38 H8         -2.6850   -0.6300   -0.8620 h1        1 DK5      0.203000
     39 H13        -1.7400   -1.1650   -6.5300 ha        1 DK5      0.188000
     40 H14         0.0760    0.6210   -6.2120 hc        1 DK5      0.244000
     41 H15         0.1620   -0.1630   -7.8440 hc        1 DK5      0.244000
     42 H16         0.3530    2.3310   -8.1490 ha        1 DK5      0.186000
     43 H17        -1.8500    3.5120   -8.3710 ha        1 DK5      0.192000
     44 N3         -4.2950   -0.0710   -4.9050 n         1 DK5     -0.297000
     45 H32        -3.9350    2.4520   -7.5070 ha        1 DK5      0.193000
@<TRIPOS>BOND
     1    1    3 1   
     2    1    5 1   
     3    1   10 1   
     4    1   27 1   
     5    2   13 1   
     6    2   16 1   
     7    2   26 1   
     8    3    5 1   
     9    3   28 1   
    10    3   29 1   
    11    4   15 1   
    12    4   16 1   
    13    5    6 1   
    14    5    7 1   
    15    7    8 1   
    16    7    9 1   
    17    7   31 1   
    18    8   32 1   
    19    9   10 1   
    20    9   11 1   
    21    9   34 1   
    22   11   12 1   
    23   11   33 1   
    24   11   35 1   
    25   12   36 1   
    26   13   14 1   
    27   13   37 1   
    28   13   38 1   
    29   14   15 1   
    30   15   44 1   
    31   16   17 1   
    32   18   19 1   
    33   18   20 1   
    34   18   44 1   
    35   20   21 1   
    36   20   25 1   
    37   21   22 1   
    38   21   39 1   
    39   22   23 1   
    40   22   40 1   
    41   22   41 1   
    42   23   24 1   
    43   23   42 1   
    44   24   25 1   
    45   24   43 1   
    46   25   45 1   
    47   30   44 1   
@<TRIPOS>SUBSTRUCTURE
     1 DK5         1 TEMP              0 ****  ****    0 ROOT
