@<TRIPOS>MOLECULE
DK5
   44    42     1     0     0
SMALL
bcc


@<TRIPOS>ATOM
      1 C1          0.9790   -3.0340   -1.3570 c3        1 DK5      0.170000
      2 N1          0.6720   -1.7160   -0.7590 n3        1 DK5     -0.294000
      3 C2          1.2890   -3.9120   -0.3430 c3        1 DK5     -0.224000
      4 N2          0.9470   -0.1410    1.2080 n1        1 DK5     -0.288000
      5 C3          0.2040   -4.2640    0.4780 c3        1 DK5      0.030000
      6 F3         -0.1790   -3.1150    1.2430 f         1 DK5     -0.161000
      7 N3          0.8100    2.2950    0.8630 n         1 DK5     -0.319000
      8 C4         -0.9900   -4.7460   -0.2840 c3        1 DK5     -0.023000
      9 O4         -0.6600   -5.9810   -0.9060 oh        1 DK5     -0.306000
     10 C5         -1.4890   -3.7560   -1.3830 c3        1 DK5     -0.001000
     11 O5         -0.1800   -3.4590   -2.1860 os        1 DK5     -0.266000
     12 C6         -1.9820   -2.6290   -0.8300 c3        1 DK5     -0.054000
     13 O6         -3.2330   -2.3280   -1.4120 oh        1 DK5     -0.313000
     14 C7          0.3510   -0.6170   -1.6010 c2        1 DK5      0.048000
     15 C8          0.2860    0.7370   -1.0410 c1        1 DK5     -0.315000
     16 C9          0.6300    0.9630    0.3770 c1        1 DK5      0.236000
     17 C10         0.8840   -1.5010    0.6750 c1        1 DK5      0.360000
     18 O10         1.1560   -2.4410    1.3910 o         1 DK5     -0.351000
     19 C11         0.1510    3.3750    0.2290 c2        1 DK5      0.365000
     20 O11        -0.5690    3.1700   -0.7290 o         1 DK5     -0.328000
     21 C12         0.3380    4.7890    0.7490 c2        1 DK5     -0.134000
     22 C13         0.4290    5.0190    2.1120 c2        1 DK5     -0.100000
     23 C14         0.5960    6.3100    2.5870 c1        1 DK5     -0.135000
     24 C15         0.6730    7.3730    1.6970 c1        1 DK5     -0.119000
     25 C16         0.5830    7.1430    0.3370 c1        1 DK5     -0.119000
     26 C17         0.4150    5.8500   -0.1390 c1        1 DK5     -0.075000
     27 H1          1.7610   -2.9390   -1.9380 h2        1 DK5      0.137000
     28 H2          1.9800   -3.5060    0.2170 hc        1 DK5      0.142500
     29 H2A         1.6520   -4.7270   -0.7410 hc        1 DK5      0.142500
     30 H3          0.4890   -4.9670    1.0890 h1        1 DK5      0.098000
     31 HN3         1.3830    2.4530    1.5530 hn        1 DK5      0.255000
     32 H4         -1.7200   -4.9010    0.3480 h1        1 DK5      0.090000
     33 HO4        -1.1630   -6.6290   -0.5630 ho        1 DK5      0.205000
     34 H5         -2.1550   -4.1830   -1.9560 h1        1 DK5      0.151000
     35 H6         -2.0940   -2.7610    0.1360 h1        1 DK5      0.102500
     36 H6A        -1.3610   -1.8880   -0.9880 h1        1 DK5      0.102500
     37 HO6        -3.8850   -2.6700   -0.9090 ho        1 DK5      0.200000
     38 H7          0.1230   -0.7700   -2.5390 h4        1 DK5      0.174000
     39 H8          0.0660    1.4950   -1.6180 ha        1 DK5      0.196000
     40 H13         0.3750    4.2720    2.7390 ha        1 DK5      0.141000
     41 H14         0.6600    6.4730    3.5470 ha        1 DK5      0.141000
     42 H15         0.7920    8.2880    2.0340 ha        1 DK5      0.140500
     43 H16         0.6370    7.8900   -0.2880 ha        1 DK5      0.140500
     44 H17         0.3510    5.6880   -1.1000 ha        1 DK5      0.155000
@<TRIPOS>BOND
     1    1    2 1   
     2    1    3 1   
     3    1   11 1   
     4    1   27 1   
     5    2   14 1   
     6    2   17 1   
     7    3    5 1   
     8    3   28 1   
     9    3   29 1   
    10    4   16 1   
    11    5    6 1   
    12    5    8 1   
    13    5   30 1   
    14    7   16 1   
    15    7   19 1   
    16    7   31 1   
    17    8    9 1   
    18    8   10 1   
    19    8   32 1   
    20    9   33 1   
    21   10   11 1   
    22   10   12 1   
    23   10   34 1   
    24   12   13 1   
    25   12   35 1   
    26   12   36 1   
    27   13   37 1   
    28   14   15 1   
    29   14   38 1   
    30   15   39 1   
    31   17   18 1   
    32   19   20 1   
    33   19   21 1   
    34   21   22 1   
    35   21   26 1   
    36   22   23 1   
    37   22   40 1   
    38   23   41 1   
    39   24   25 1   
    40   24   42 1   
    41   25   43 1   
    42   26   44 1   
@<TRIPOS>SUBSTRUCTURE
     1 DK5         1 TEMP              0 ****  ****    0 ROOT
