@<TRIPOS>MOLECULE
DK5
   45    46     1     0     0
SMALL
bcc


@<TRIPOS>ATOM
      1 C1          0.6720   -0.9590    1.7630 c3        1 DK5     -0.012000
      2 N1         -1.6630    0.5930   -1.5000 n2        1 DK5     -0.209000
      3 C2          2.1290   -0.5470    1.6630 c3        1 DK5     -0.166000
      4 N2          0.2020    1.9470   -2.3740 n2        1 DK5      0.013000
      5 C3          2.4700    0.6900    2.4320 c2        1 DK5     -0.045000
      6 F3          1.8140    0.8810    3.6040 f         1 DK5     -0.101000
      7 C4          3.4170    1.5580    1.9920 c2        1 DK5     -0.056000
      8 O4          3.6850    2.6800    2.7340 oh        1 DK5     -0.237000
      9 C5         -0.4940    1.0270    1.0870 c3        1 DK5      0.120000
     10 O5         -0.1630   -0.3080    0.8000 os        1 DK5     -0.304000
     11 C6         -1.9780    1.1800    1.4440 c3        1 DK5     -0.039000
     12 O6         -2.6340   -0.0580    1.5650 oh        1 DK5     -0.303000
     13 C7         -2.0790    0.2710   -2.8230 c3        1 DK5     -0.133000
     14 C8         -1.2850    0.8460   -3.9590 c2        1 DK5      0.252000
     15 C9         -0.1380    1.6970   -3.6000 c2        1 DK5     -0.110000
     16 C10        -0.5930    1.3460   -1.3280 c2        1 DK5      0.168000
     17 O10        -0.1020    1.7280   -0.1110 os        1 DK5     -0.171000
     18 C11        -1.0100    0.8630   -6.3930 c2        1 DK5      0.184000
     19 O11        -1.7270    0.5560   -5.1500 os        1 DK5     -0.109000
     20 C12        -1.9640    1.1950   -7.4580 c2        1 DK5     -0.191000
     21 C13        -3.3090    1.0300   -7.3960 c2        1 DK5      0.004000
     22 C14        -4.1610    1.3830   -8.5520 c3        1 DK5     -0.185000
     23 C15        -3.4370    1.9210   -9.7240 c2        1 DK5     -0.040000
     24 C16        -2.0870    2.0560   -9.7370 c2        1 DK5     -0.205000
     25 C17        -1.2780    1.6850   -8.6290 c1        1 DK5     -0.066000
     26 H1          0.5580   -2.0440    1.4830 h1        1 DK5      0.118000
     27 H2          0.2680   -0.7890    2.7960 h1        1 DK5      0.118000
     28 H2A         2.4070   -0.4030    0.5850 hc        1 DK5      0.113500
     29 H3          2.7510   -1.3920    2.0700 hc        1 DK5      0.113500
     30 HN3         0.4750    2.1740   -4.3970 h4        1 DK5      0.234000
     31 H4          3.9670    1.4090    1.0540 h4        1 DK5      0.145000
     32 HO4         4.4890    3.0800    2.3730 ho        1 DK5      0.226000
     33 H5          0.1840    1.5120    1.8530 h2        1 DK5      0.169000
     34 H6         -2.0650    1.6490    2.4630 h1        1 DK5      0.107500
     35 H6A        -2.4930    1.8360    0.6930 h1        1 DK5      0.107500
     36 HO6        -2.4480   -0.5760    0.7710 ho        1 DK5      0.216000
     37 H7         -3.1730    0.5680   -2.9320 h1        1 DK5      0.210500
     38 H8         -2.0640   -0.8670   -2.9290 h1        1 DK5      0.210500
     39 H13        -3.8280    0.6250   -6.5110 ha        1 DK5      0.144000
     40 H14        -4.7400    0.4620   -8.8680 hc        1 DK5      0.170500
     41 H15        -4.9360    2.1380   -8.2180 hc        1 DK5      0.170500
     42 H16        -4.0630    2.1980  -10.5900 ha        1 DK5      0.161000
     43 H17        -1.5630    2.4570  -10.6240 ha        1 DK5      0.178000
     44 N3          0.2500    0.7280   -6.3490 n2        1 DK5     -0.239000
     45 H32         0.7620    0.8640   -7.2030 hn        1 DK5      0.268000
@<TRIPOS>BOND
     1    1    3 1   
     2    1   10 1   
     3    1   26 1   
     4    1   27 1   
     5    2   13 1   
     6    2   16 1   
     7    3    5 1   
     8    3   28 1   
     9    3   29 1   
    10    4   15 1   
    11    4   16 1   
    12    5    6 1   
    13    5    7 1   
    14    7    8 1   
    15    7   31 1   
    16    8   32 1   
    17    9   10 1   
    18    9   11 1   
    19    9   17 1   
    20    9   33 1   
    21   11   12 1   
    22   11   34 1   
    23   11   35 1   
    24   12   36 1   
    25   13   14 1   
    26   13   37 1   
    27   13   38 1   
    28   14   15 1   
    29   14   19 1   
    30   15   30 1   
    31   16   17 1   
    32   18   19 1   
    33   18   20 1   
    34   18   44 1   
    35   20   21 1   
    36   20   25 1   
    37   21   22 1   
    38   21   39 1   
    39   22   23 1   
    40   22   40 1   
    41   22   41 1   
    42   23   24 1   
    43   23   42 1   
    44   24   25 1   
    45   24   43 1   
    46   44   45 1   
@<TRIPOS>SUBSTRUCTURE
     1 DK5         1 TEMP              0 ****  ****    0 ROOT
