@<TRIPOS>MOLECULE
DKA
   31    30     1     0     0
SMALL
bcc


@<TRIPOS>ATOM
      1 C1          0.0260   -0.1090   -0.0410 c         1 DKA      0.907600
      2 O1          0.9990   -0.9140   -0.1290 o         1 DKA     -0.853800
      3 C2         -0.7380   -0.0240    1.2930 c3        1 DKA     -0.193400
      4 C3          0.2090    0.0680    2.4640 c3        1 DKA     -0.065400
      5 C4         -0.5180   -0.0330    3.7880 c3        1 DKA     -0.078400
      6 C5          0.4380    0.0790    4.9560 c3        1 DKA     -0.078400
      7 C6         -0.2870   -0.0290    6.2810 c3        1 DKA     -0.078400
      8 C7          0.6720    0.0830    7.4470 c3        1 DKA     -0.079400
      9 C8         -0.0540   -0.0250    8.7710 c3        1 DKA     -0.078400
     10 C9          0.9050    0.0860    9.9370 c3        1 DKA     -0.080400
     11 C10         0.1870   -0.0200   11.2580 c3        1 DKA     -0.091100
     12 O2         -0.3720    0.6210   -0.9940 o         1 DKA     -0.853800
     13 H21        -1.3710   -0.9440    1.3830 hc        1 DKA      0.018700
     14 H22        -1.4210    0.8620    1.2730 hc        1 DKA      0.018700
     15 H31         0.9690   -0.7550    2.3770 hc        1 DKA      0.043700
     16 H32         0.7680    1.0390    2.4160 hc        1 DKA      0.043700
     17 H41        -1.2900    0.7790    3.8570 hc        1 DKA      0.025700
     18 H42        -1.0640   -1.0110    3.8430 hc        1 DKA      0.025700
     19 H51         1.2120   -0.7300    4.8830 hc        1 DKA      0.036700
     20 H52         0.9810    1.0590    4.9040 hc        1 DKA      0.036700
     21 H61        -1.0610    0.7800    6.3520 hc        1 DKA      0.034200
     22 H62        -0.8290   -1.0100    6.3330 hc        1 DKA      0.034200
     23 H71         1.2140    1.0630    7.3940 hc        1 DKA      0.037200
     24 H72         1.4460   -0.7270    7.3750 hc        1 DKA      0.037200
     25 H81        -0.8270    0.7850    8.8430 hc        1 DKA      0.036700
     26 H82        -0.5970   -1.0050    8.8230 hc        1 DKA      0.036700
     27 H91         1.4490    1.0660    9.8820 hc        1 DKA      0.037200
     28 H92         1.6780   -0.7240    9.8630 hc        1 DKA      0.037200
     29 H101        0.9120    0.0640   12.1040 hc        1 DKA      0.028033
     30 H102       -0.3410   -1.0010   11.3420 hc        1 DKA      0.028033
     31 H103       -0.5710    0.7940   11.3610 hc        1 DKA      0.028033
@<TRIPOS>BOND
     1    1    2 1   
     2    1    3 1   
     3    1   12 1   
     4    3    4 1   
     5    3   13 1   
     6    3   14 1   
     7    4    5 1   
     8    4   15 1   
     9    4   16 1   
    10    5    6 1   
    11    5   17 1   
    12    5   18 1   
    13    6    7 1   
    14    6   19 1   
    15    6   20 1   
    16    7    8 1   
    17    7   21 1   
    18    7   22 1   
    19    8    9 1   
    20    8   23 1   
    21    8   24 1   
    22    9   10 1   
    23    9   25 1   
    24    9   26 1   
    25   10   11 1   
    26   10   27 1   
    27   10   28 1   
    28   11   29 1   
    29   11   30 1   
    30   11   31 1   
@<TRIPOS>SUBSTRUCTURE
     1 DKA         1 TEMP              0 ****  ****    0 ROOT
