@<TRIPOS>MOLECULE
DKA
   31    29     1     0     0
SMALL
bcc


@<TRIPOS>ATOM
      1 C1          2.8100    3.0380   -3.9880 c1        1 DKA      0.327000
      2 O1          4.0030    3.3320   -3.7160 o         1 DKA     -0.588500
      3 C2          1.7740    2.9850   -2.8870 c2        1 DKA     -0.222000
      4 C3          1.7450    1.5960   -2.2880 c3        1 DKA     -0.144000
      5 C4          0.6360    1.5110   -1.2630 c3        1 DKA     -0.157000
      6 C5          0.6340    0.1350   -0.6340 c3        1 DKA     -0.157000
      7 C6         -0.4640    0.0570    0.4040 c3        1 DKA     -0.157000
      8 C7         -0.4670   -1.3200    1.0310 c3        1 DKA     -0.158000
      9 C8         -1.5890   -1.4110    2.0420 c3        1 DKA     -0.157000
     10 C9         -1.5300   -2.7510    2.7420 c3        1 DKA     -0.159000
     11 C10        -2.7090   -2.8810    3.6820 c3        1 DKA     -0.209000
     12 O2          2.4790    2.7870   -5.1770 o         1 DKA     -0.588500
     13 H21         0.8940    3.1990   -3.2560 ha        1 DKA      0.058000
     14 H22         2.0030    3.6340   -2.1920 ha        1 DKA      0.058000
     15 H31         1.5860    0.9390   -2.9950 hc        1 DKA      0.083000
     16 H32         2.6030    1.4090   -1.8560 hc        1 DKA      0.083000
     17 H41         0.7800    2.1860   -0.5700 hc        1 DKA      0.065000
     18 H42        -0.2250    1.6710   -1.7000 hc        1 DKA      0.065000
     19 H51         0.4770   -0.5390   -1.3260 hc        1 DKA      0.076000
     20 H52         1.4980   -0.0300   -0.2080 hc        1 DKA      0.076000
     21 H61        -0.3070    0.7300    1.0960 hc        1 DKA      0.073500
     22 H62        -1.3280    0.2230   -0.0220 hc        1 DKA      0.073500
     23 H71         0.3880   -1.4770    1.4790 hc        1 DKA      0.076500
     24 H72        -0.6000   -1.9950    0.3360 hc        1 DKA      0.076500
     25 H81        -1.4930   -0.6940    2.7010 hc        1 DKA      0.076000
     26 H82        -2.4490   -1.3200    1.5840 hc        1 DKA      0.076000
     27 H91        -0.6980   -2.8160    3.2520 hc        1 DKA      0.076500
     28 H92        -1.5620   -3.4680    2.0770 hc        1 DKA      0.076500
     29 H101       -2.7160   -2.1240    4.3030 hc        1 DKA      0.067333
     30 H102       -2.6330   -3.7180    4.1870 hc        1 DKA      0.067333
     31 H103       -3.5410   -2.8870    3.1630 hc        1 DKA      0.067333
@<TRIPOS>BOND
     1    1    2 1   
     2    1   12 1   
     3    3    4 1   
     4    3   13 1   
     5    3   14 1   
     6    4    5 1   
     7    4   15 1   
     8    4   16 1   
     9    5    6 1   
    10    5   17 1   
    11    5   18 1   
    12    6    7 1   
    13    6   19 1   
    14    6   20 1   
    15    7    8 1   
    16    7   21 1   
    17    7   22 1   
    18    8    9 1   
    19    8   23 1   
    20    8   24 1   
    21    9   10 1   
    22    9   25 1   
    23    9   26 1   
    24   10   11 1   
    25   10   27 1   
    26   10   28 1   
    27   11   29 1   
    28   11   30 1   
    29   11   31 1   
@<TRIPOS>SUBSTRUCTURE
     1 DKA         1 TEMP              0 ****  ****    0 ROOT
