@<TRIPOS>MOLECULE
DKA
   31    30     1     0     0
SMALL
bcc


@<TRIPOS>ATOM
      1 C1         -4.5680   -0.0910    0.1110 c         1 DKA      0.907600
      2 O1         -4.6200   -1.0140    0.9750 o         1 DKA     -0.853800
      3 C2         -3.2680    0.7210   -0.0210 c3        1 DKA     -0.193400
      4 C3         -2.0580   -0.1810   -0.0540 c3        1 DKA     -0.065400
      5 C4         -0.7650    0.6050    0.0020 c3        1 DKA     -0.078400
      6 C5          0.4420   -0.3070   -0.0520 c3        1 DKA     -0.078400
      7 C6          1.7350    0.4770    0.0130 c3        1 DKA     -0.078400
      8 C7          2.9400   -0.4380   -0.0420 c3        1 DKA     -0.079400
      9 C8          4.2320    0.3470    0.0220 c3        1 DKA     -0.078400
     10 C9          5.4380   -0.5680   -0.0330 c3        1 DKA     -0.080400
     11 C10         6.7270    0.2090    0.0320 c3        1 DKA     -0.091100
     12 O2         -5.5350    0.2200   -0.6430 o         1 DKA     -0.853800
     13 H21        -3.3130    1.3470   -0.9470 hc        1 DKA      0.018700
     14 H22        -3.2050    1.4120    0.8580 hc        1 DKA      0.018700
     15 H31        -2.1160   -0.8920    0.8130 hc        1 DKA      0.043700
     16 H32        -2.0800   -0.8000   -0.9890 hc        1 DKA      0.043700
     17 H41        -0.7270    1.3290   -0.8550 hc        1 DKA      0.025700
     18 H42        -0.7350    1.2110    0.9450 hc        1 DKA      0.025700
     19 H51         0.3980   -1.0330    0.8020 hc        1 DKA      0.036700
     20 H52         0.4140   -0.9100   -0.9980 hc        1 DKA      0.036700
     21 H61         1.7760    1.2040   -0.8410 hc        1 DKA      0.034200
     22 H62         1.7620    1.0780    0.9590 hc        1 DKA      0.034200
     23 H71         2.8970   -1.1650    0.8110 hc        1 DKA      0.037200
     24 H72         2.9120   -1.0390   -0.9890 hc        1 DKA      0.037200
     25 H81         4.2740    1.0740   -0.8310 hc        1 DKA      0.036700
     26 H82         4.2600    0.9480    0.9700 hc        1 DKA      0.036700
     27 H91         5.3930   -1.2950    0.8210 hc        1 DKA      0.037200
     28 H92         5.4070   -1.1690   -0.9790 hc        1 DKA      0.037200
     29 H101        6.8010    0.9220   -0.8250 hc        1 DKA      0.028033
     30 H102        6.7870    0.7960    0.9800 hc        1 DKA      0.028033
     31 H103        7.6020   -0.4840   -0.0100 hc        1 DKA      0.028033
@<TRIPOS>BOND
     1    1    2 1   
     2    1    3 1   
     3    1   12 1   
     4    3    4 1   
     5    3   13 1   
     6    3   14 1   
     7    4    5 1   
     8    4   15 1   
     9    4   16 1   
    10    5    6 1   
    11    5   17 1   
    12    5   18 1   
    13    6    7 1   
    14    6   19 1   
    15    6   20 1   
    16    7    8 1   
    17    7   21 1   
    18    7   22 1   
    19    8    9 1   
    20    8   23 1   
    21    8   24 1   
    22    9   10 1   
    23    9   25 1   
    24    9   26 1   
    25   10   11 1   
    26   10   27 1   
    27   10   28 1   
    28   11   29 1   
    29   11   30 1   
    30   11   31 1   
@<TRIPOS>SUBSTRUCTURE
     1 DKA         1 TEMP              0 ****  ****    0 ROOT
