@<TRIPOS>MOLECULE
DKD
   47    49     1     0     0
SMALL
bcc


@<TRIPOS>ATOM
      1 CAK        -4.6420   -2.0770    1.0120 ca        1 DKD     -0.132000
      2 CAG        -4.7200   -3.4460    0.7600 ca        1 DKD     -0.137500
      3 CAD        -4.6770   -3.9210   -0.5500 ca        1 DKD     -0.155000
      4 CAH        -4.5530   -3.0210   -1.6080 ca        1 DKD     -0.137500
      5 CAL        -4.4750   -1.6530   -1.3590 ca        1 DKD     -0.132000
      6 CAX        -4.5200   -1.1660   -0.0440 ca        1 DKD     -0.049300
      7 CAS        -4.4610    0.2970    0.2150 c3        1 DKD     -0.045100
      8 CAZ        -3.1460    0.9380   -0.2240 c3        1 DKD      0.016100
      9 CAU        -3.3940    2.3750   -0.7810 c         1 DKD      0.905600
     10 OAB        -2.7000    2.7090   -1.7830 o         1 DKD     -0.821800
     11 OAA        -4.2860    3.0830   -0.2490 o         1 DKD     -0.821800
     12 OAT        -2.3310    0.9660    0.9710 os        1 DKD     -0.327900
     13 CAY        -0.9710    0.9410    0.7970 ca        1 DKD      0.159100
     14 CAP        -0.2300    0.5030    1.9130 ca        1 DKD     -0.188000
     15 CAN         1.1570    0.4680    1.8450 ca        1 DKD     -0.105000
     16 CAO        -0.3080    1.3490   -0.3730 ca        1 DKD     -0.188000
     17 CAM         1.0800    1.3000   -0.4190 ca        1 DKD     -0.105000
     18 CAW         1.8270    0.8560    0.6800 ca        1 DKD     -0.153300
     19 CAR         3.3120    0.8160    0.6100 c3        1 DKD     -0.013100
     20 CAQ         3.7960   -0.3520   -0.2360 c3        1 DKD     -0.042100
     21 CAV         5.2820   -0.4090   -0.3000 ca        1 DKD     -0.063300
     22 CAI         6.0200   -0.8470    0.8080 ca        1 DKD     -0.129500
     23 CAE         7.4100   -0.9090    0.7500 ca        1 DKD     -0.132500
     24 CAC         8.0800   -0.5360   -0.4160 ca        1 DKD     -0.144000
     25 CAF         7.3530   -0.1000   -1.5220 ca        1 DKD     -0.132500
     26 CAJ         5.9610   -0.0360   -1.4660 ca        1 DKD     -0.129500
     27 HAK        -4.6680   -1.7060    2.0470 ha        1 DKD      0.137500
     28 HAG        -4.8120   -4.1520    1.5970 ha        1 DKD      0.115500
     29 HAD        -4.7380   -5.0000   -0.7480 ha        1 DKD      0.113000
     30 HAH        -4.5150   -3.3920   -2.6420 ha        1 DKD      0.115500
     31 HAL        -4.3730   -0.9410   -2.1920 ha        1 DKD      0.137500
     32 HAS        -5.2900    0.8110   -0.3450 hc        1 DKD      0.075700
     33 HASA       -4.6170    0.5130    1.3050 hc        1 DKD      0.075700
     34 HAZ        -2.6360    0.3180   -1.0100 h1        1 DKD      0.042700
     35 HAP        -0.7600    0.2040    2.8270 ha        1 DKD      0.170000
     36 HAN         1.7330    0.1290    2.7190 ha        1 DKD      0.114500
     37 HAO        -0.8940    1.7410   -1.2280 ha        1 DKD      0.170000
     38 HAM         1.6010    1.6250   -1.3320 ha        1 DKD      0.114500
     39 HAR         3.6930    1.7750    0.1680 hc        1 DKD      0.038700
     40 HARA        3.7480    0.7280    1.6410 hc        1 DKD      0.038700
     41 HAQ         3.4060   -1.3110    0.2000 hc        1 DKD      0.054700
     42 HAQA        3.3660   -0.2580   -1.2690 hc        1 DKD      0.054700
     43 HAI         5.4910   -1.1390    1.7270 ha        1 DKD      0.133500
     44 HAE         7.9800   -1.2530    1.6250 ha        1 DKD      0.123500
     45 HAC         9.1770   -0.5860   -0.4610 ha        1 DKD      0.121000
     46 HAF         7.8770    0.1970   -2.4420 ha        1 DKD      0.123500
     47 HAJ         5.3910    0.3100   -2.3410 ha        1 DKD      0.133500
@<TRIPOS>BOND
     1    1    2 ar  
     2    1    6 ar  
     3    1   27 1   
     4    2    3 ar  
     5    2   28 1   
     6    3    4 ar  
     7    3   29 1   
     8    4    5 ar  
     9    4   30 1   
    10    5    6 ar  
    11    5   31 1   
    12    6    7 1   
    13    7    8 1   
    14    7   32 1   
    15    7   33 1   
    16    8    9 1   
    17    8   12 1   
    18    8   34 1   
    19    9   10 1   
    20    9   11 1   
    21   12   13 1   
    22   13   14 ar  
    23   13   16 ar  
    24   14   15 ar  
    25   14   35 1   
    26   15   18 ar  
    27   15   36 1   
    28   16   17 ar  
    29   16   37 1   
    30   17   18 ar  
    31   17   38 1   
    32   18   19 1   
    33   19   20 1   
    34   19   39 1   
    35   19   40 1   
    36   20   21 1   
    37   20   41 1   
    38   20   42 1   
    39   21   22 ar  
    40   21   26 ar  
    41   22   23 ar  
    42   22   43 1   
    43   23   24 ar  
    44   23   44 1   
    45   24   25 ar  
    46   24   45 1   
    47   25   26 ar  
    48   25   46 1   
    49   26   47 1   
@<TRIPOS>SUBSTRUCTURE
     1 DKD         1 TEMP              0 ****  ****    0 ROOT
