@<TRIPOS>MOLECULE
DKD
   47    49     1     0     0
SMALL
bcc


@<TRIPOS>ATOM
      1 CAK         0.2670    0.3720   -0.0530 ca        1 DKD     -0.132000
      2 CAG         1.6330    0.5480    0.1630 ca        1 DKD     -0.137500
      3 CAD         2.1560    0.4600    1.4520 ca        1 DKD     -0.155000
      4 CAH         1.3070    0.1920    2.5260 ca        1 DKD     -0.137500
      5 CAL        -0.0580    0.0160    2.3130 ca        1 DKD     -0.132000
      6 CAX        -0.5930    0.1050    1.0200 ca        1 DKD     -0.049300
      7 CAS        -2.0550   -0.0590    0.8010 c3        1 DKD     -0.045100
      8 CAZ        -2.5700   -1.4490    1.1690 c3        1 DKD      0.016100
      9 CAU        -4.0000   -1.3600    1.7860 c         1 DKD      0.905600
     10 OAB        -4.2400   -2.1430    2.7480 o         1 DKD     -0.821800
     11 OAA        -4.7980   -0.4970    1.3390 o         1 DKD     -0.821800
     12 OAT        -2.5760   -2.1840   -0.0780 os        1 DKD     -0.327900
     13 CAY        -2.4330   -3.5450    0.0020 ca        1 DKD      0.159100
     14 CAP        -1.9790   -4.1720   -1.1750 ca        1 DKD     -0.188000
     15 CAN        -1.8280   -5.5530   -1.2030 ca        1 DKD     -0.105000
     16 CAO        -2.7420   -4.3160    1.1360 ca        1 DKD     -0.188000
     17 CAM        -2.5790   -5.6940    1.0850 ca        1 DKD     -0.105000
     18 CAW        -2.1160   -6.3280   -0.0750 ca        1 DKD     -0.153300
     19 CAR        -1.9530   -7.8050   -0.1090 c3        1 DKD     -0.013100
     20 CAQ        -0.7180   -8.2450    0.6650 c3        1 DKD     -0.042100
     21 CAV        -0.5380   -9.7220    0.6250 ca        1 DKD     -0.063300
     22 CAI        -0.0850  -10.3460   -0.5440 ca        1 DKD     -0.129500
     23 CAE         0.0930  -11.7270   -0.5830 ca        1 DKD     -0.132500
     24 CAC        -0.1800  -12.5010    0.5450 ca        1 DKD     -0.144000
     25 CAF        -0.6310  -11.8860    1.7130 ca        1 DKD     -0.132500
     26 CAJ        -0.8100  -10.5040    1.7540 ca        1 DKD     -0.129500
     27 HAK        -0.1410    0.4350   -1.0720 ha        1 DKD      0.137500
     28 HAG         2.2990    0.7550   -0.6870 ha        1 DKD      0.115500
     29 HAD         3.2330    0.5980    1.6210 ha        1 DKD      0.113000
     30 HAH         1.7160    0.1180    3.5430 ha        1 DKD      0.115500
     31 HAL        -0.7290   -0.2000    3.1580 ha        1 DKD      0.137500
     32 HAS        -2.6140    0.6860    1.4310 hc        1 DKD      0.075700
     33 HASA       -2.3210    0.1490   -0.2700 hc        1 DKD      0.075700
     34 HAZ        -1.8820   -1.9550    1.8980 h1        1 DKD      0.042700
     35 HAP        -1.7570   -3.5600   -2.0600 ha        1 DKD      0.170000
     36 HAN        -1.4760   -6.0400   -2.1250 ha        1 DKD      0.114500
     37 HAO        -3.1500   -3.8210    2.0410 ha        1 DKD      0.170000
     38 HAM        -2.8260   -6.3000    1.9700 ha        1 DKD      0.114500
     39 HAR        -1.8690   -8.1640   -1.1690 hc        1 DKD      0.038700
     40 HARA       -2.8600   -8.2940    0.3370 hc        1 DKD      0.038700
     41 HAQ         0.1880   -7.7480    0.2250 hc        1 DKD      0.054700
     42 HAQA       -0.8080   -7.8920    1.7270 hc        1 DKD      0.054700
     43 HAI         0.1290   -9.7360   -1.4350 ha        1 DKD      0.133500
     44 HAE         0.4480  -12.2080   -1.5060 ha        1 DKD      0.123500
     45 HAC        -0.0400  -13.5900    0.5140 ha        1 DKD      0.121000
     46 HAF        -0.8490  -12.4920    2.6040 ha        1 DKD      0.123500
     47 HAJ        -1.1680  -10.0240    2.6760 ha        1 DKD      0.133500
@<TRIPOS>BOND
     1    1    2 ar  
     2    1    6 ar  
     3    1   27 1   
     4    2    3 ar  
     5    2   28 1   
     6    3    4 ar  
     7    3   29 1   
     8    4    5 ar  
     9    4   30 1   
    10    5    6 ar  
    11    5   31 1   
    12    6    7 1   
    13    7    8 1   
    14    7   32 1   
    15    7   33 1   
    16    8    9 1   
    17    8   12 1   
    18    8   34 1   
    19    9   10 1   
    20    9   11 1   
    21   12   13 1   
    22   13   14 ar  
    23   13   16 ar  
    24   14   15 ar  
    25   14   35 1   
    26   15   18 ar  
    27   15   36 1   
    28   16   17 ar  
    29   16   37 1   
    30   17   18 ar  
    31   17   38 1   
    32   18   19 1   
    33   19   20 1   
    34   19   39 1   
    35   19   40 1   
    36   20   21 1   
    37   20   41 1   
    38   20   42 1   
    39   21   22 ar  
    40   21   26 ar  
    41   22   23 ar  
    42   22   43 1   
    43   23   24 ar  
    44   23   44 1   
    45   24   25 ar  
    46   24   45 1   
    47   25   26 ar  
    48   25   46 1   
    49   26   47 1   
@<TRIPOS>SUBSTRUCTURE
     1 DKD         1 TEMP              0 ****  ****    0 ROOT
