@<TRIPOS>MOLECULE
DKD
   47    42     1     0     0
SMALL
bcc


@<TRIPOS>ATOM
      1 CAK         1.6300    5.2860    2.5610 c1        1 DKD     -0.144000
      2 CAG         1.2280    5.8830    3.7450 c1        1 DKD     -0.138667
      3 CAD        -0.0330    6.4530    3.8420 c1        1 DKD     -0.138667
      4 CAH        -0.8900    6.4260    2.7540 c1        1 DKD     -0.138667
      5 CAL        -0.4880    5.8280    1.5680 c1        1 DKD     -0.138667
      6 CAX         0.7710    5.2580    1.4720 c1        1 DKD     -0.048000
      7 CAS         1.2100    4.6040    0.1770 c3        1 DKD     -0.128000
      8 CAZ         0.5070    3.2720    0.0200 c3        1 DKD     -0.050000
      9 CAU        -0.4790    3.3540   -1.1200 c2        1 DKD      0.318000
     10 OAB        -0.0640    3.4700   -2.3040 o         1 DKD     -0.555000
     11 OAA        -1.7140    3.3550   -0.8850 o         1 DKD     -0.555000
     12 OAT         1.4570    2.2670   -0.2510 os        1 DKD     -0.208000
     13 CAY         0.8950    0.9980   -0.4880 c2        1 DKD      0.121000
     14 CAP         1.1300    0.3500   -1.6910 c2        1 DKD     -0.186000
     15 CAN         0.6420   -0.9320   -1.8950 c1        1 DKD     -0.108000
     16 CAO         0.1720    0.3640    0.5110 c1        1 DKD     -0.195000
     17 CAM        -0.3150   -0.9180    0.3070 c1        1 DKD     -0.093000
     18 CAW        -0.0800   -1.5660   -0.8960 c1        1 DKD     -0.149000
     19 CAR        -0.6940   -2.9210   -1.1540 c3        1 DKD     -0.099000
     20 CAQ         0.3220   -3.9990   -0.8610 c3        1 DKD     -0.128000
     21 CAV        -0.3070   -5.3580   -1.0790 c2        1 DKD     -0.057000
     22 CAI        -0.3160   -5.9230   -2.3440 c2        1 DKD     -0.130000
     23 CAE        -0.8760   -7.1750   -2.5400 c1        1 DKD     -0.132000
     24 CAC        -1.4260   -7.8630   -1.4710 c1        1 DKD     -0.138667
     25 CAF        -1.4170   -7.2990   -0.2050 c1        1 DKD     -0.138667
     26 CAJ        -0.8570   -6.0460   -0.0090 c1        1 DKD     -0.129000
     27 HAK         2.5260    4.9060    2.4850 ha        1 DKD      0.119000
     28 HAG         1.8320    5.9020    4.5120 ha        1 DKD      0.130167
     29 HAD        -0.3220    6.8600    4.6810 ha        1 DKD      0.130167
     30 HAH        -1.7780    6.8280    2.8220 ha        1 DKD      0.130167
     31 HAL        -1.0900    5.8150    0.8000 ha        1 DKD      0.130167
     32 HAS         0.9810    5.1840   -0.5760 hc        1 DKD      0.105000
     33 HASA        2.1780    4.4610    0.1950 hc        1 DKD      0.105000
     34 HAZ         0.0310    3.0560    0.8470 h1        1 DKD      0.082000
     35 HAP         1.6270    0.8010   -2.3990 ha        1 DKD      0.133000
     36 HAN         0.8080   -1.3880   -2.7420 ha        1 DKD      0.109000
     37 HAO         0.0070    0.8200    1.3570 ha        1 DKD      0.199000
     38 HAM        -0.8240   -1.3640    1.0110 ha        1 DKD      0.120000
     39 HAR        -0.9710   -2.9810   -2.0900 hc        1 DKD      0.079000
     40 HARA       -1.4720   -3.0420   -0.5750 hc        1 DKD      0.079000
     41 HAQ         1.0890   -3.8950   -1.4590 hc        1 DKD      0.092500
     42 HAQA        0.6200   -3.9220    0.0670 hc        1 DKD      0.092500
     43 HAI         0.0890   -5.4460   -3.0940 ha        1 DKD      0.133000
     44 HAE        -0.8740   -7.5780   -3.4310 ha        1 DKD      0.123000
     45 HAC        -1.8210   -8.7460   -1.6090 ha        1 DKD      0.130167
     46 HAF        -1.8050   -7.7840    0.5490 ha        1 DKD      0.130167
     47 HAJ        -0.8360   -5.6560    0.8860 ha        1 DKD      0.133000
@<TRIPOS>BOND
     1    1    6 1   
     2    1   27 1   
     3    2    3 1   
     4    2   28 1   
     5    3   29 1   
     6    4    5 1   
     7    4   30 1   
     8    5   31 1   
     9    6    7 1   
    10    7    8 1   
    11    7   32 1   
    12    7   33 1   
    13    8    9 1   
    14    8   12 1   
    15    8   34 1   
    16    9   10 1   
    17    9   11 1   
    18   12   13 1   
    19   13   14 1   
    20   13   16 1   
    21   14   15 1   
    22   14   35 1   
    23   15   36 1   
    24   16   37 1   
    25   17   18 1   
    26   17   38 1   
    27   18   19 1   
    28   19   20 1   
    29   19   39 1   
    30   19   40 1   
    31   20   21 1   
    32   20   41 1   
    33   20   42 1   
    34   21   22 1   
    35   21   26 1   
    36   22   23 1   
    37   22   43 1   
    38   23   44 1   
    39   24   25 1   
    40   24   45 1   
    41   25   46 1   
    42   26   47 1   
@<TRIPOS>SUBSTRUCTURE
     1 DKD         1 TEMP              0 ****  ****    0 ROOT
