@<TRIPOS>MOLECULE
DKD
   47    49     1     0     0
SMALL
bcc


@<TRIPOS>ATOM
      1 CAK         0.2800    0.3700   -0.0300 ca        1 DKD     -0.132000
      2 CAG         1.6450    0.5410    0.1900 ca        1 DKD     -0.137500
      3 CAD         2.1650    0.4440    1.4800 ca        1 DKD     -0.155000
      4 CAH         1.3110    0.1740    2.5500 ca        1 DKD     -0.137500
      5 CAL        -0.0540    0.0040    2.3330 ca        1 DKD     -0.132000
      6 CAX        -0.5850    0.1020    1.0380 ca        1 DKD     -0.049300
      7 CAS        -2.0460   -0.0560    0.8140 c3        1 DKD     -0.045100
      8 CAZ        -2.5670   -1.4470    1.1720 c3        1 DKD      0.016100
      9 CAU        -4.0030   -1.3560    1.7760 c         1 DKD      0.905600
     10 OAB        -4.2530   -2.1430    2.7330 o         1 DKD     -0.821800
     11 OAA        -4.7950   -0.4900    1.3250 o         1 DKD     -0.821800
     12 OAT        -2.5630   -2.1760   -0.0780 os        1 DKD     -0.327900
     13 CAY        -2.4240   -3.5380   -0.0020 ca        1 DKD      0.159100
     14 CAP        -1.9600   -4.1620   -1.1770 ca        1 DKD     -0.187500
     15 CAN        -1.8120   -5.5430   -1.2090 ca        1 DKD     -0.105000
     16 CAO        -2.7460   -4.3120    1.1260 ca        1 DKD     -0.187500
     17 CAM        -2.5850   -5.6910    1.0720 ca        1 DKD     -0.105000
     18 CAW        -2.1120   -6.3220   -0.0870 ca        1 DKD     -0.153300
     19 CAR        -1.9520   -7.7990   -0.1240 c3        1 DKD     -0.013100
     20 CAQ        -0.7260   -8.2450    0.6600 c3        1 DKD     -0.042100
     21 CAV        -0.5490   -9.7220    0.6170 ca        1 DKD     -0.063300
     22 CAI        -0.0830  -10.3420   -0.5500 ca        1 DKD     -0.129500
     23 CAE         0.0920  -11.7230   -0.5930 ca        1 DKD     -0.132500
     24 CAC        -0.1960  -12.5010    0.5290 ca        1 DKD     -0.144000
     25 CAF        -0.6610  -11.8900    1.6930 ca        1 DKD     -0.132500
     26 CAJ        -0.8370  -10.5080    1.7380 ca        1 DKD     -0.129500
     27 HAK        -0.1260    0.4400   -1.0510 ha        1 DKD      0.137500
     28 HAG         2.3140    0.7480   -0.6570 ha        1 DKD      0.115500
     29 HAD         3.2410    0.5780    1.6530 ha        1 DKD      0.113000
     30 HAH         1.7170    0.0930    3.5690 ha        1 DKD      0.115500
     31 HAL        -0.7290   -0.2130    3.1750 ha        1 DKD      0.137500
     32 HAS        -2.6050    0.6870    1.4480 hc        1 DKD      0.075200
     33 HASA       -2.3090    0.1590   -0.2560 hc        1 DKD      0.075200
     34 HAZ        -1.8880   -1.9570    1.9050 h1        1 DKD      0.042700
     35 HAP        -1.7290   -3.5470   -2.0570 ha        1 DKD      0.170000
     36 HAN        -1.4520   -6.0270   -2.1290 ha        1 DKD      0.114500
     37 HAO        -3.1610   -3.8210    2.0290 ha        1 DKD      0.170000
     38 HAM        -2.8420   -6.3000    1.9520 ha        1 DKD      0.114500
     39 HAR        -1.8580   -8.1540   -1.1850 hc        1 DKD      0.038700
     40 HARA       -2.8650   -8.2870    0.3110 hc        1 DKD      0.038700
     41 HAQ        -0.8260   -7.8950    1.7220 hc        1 DKD      0.054700
     42 HAQA        0.1860   -7.7480    0.2320 hc        1 DKD      0.054700
     43 HAI         0.1430   -9.7280   -1.4350 ha        1 DKD      0.133500
     44 HAE         0.4580  -12.2010   -1.5130 ha        1 DKD      0.123500
     45 HAC        -0.0580  -13.5900    0.4950 ha        1 DKD      0.121000
     46 HAF        -0.8910  -12.5000    2.5790 ha        1 DKD      0.123500
     47 HAJ        -1.2060  -10.0310    2.6580 ha        1 DKD      0.133500
@<TRIPOS>BOND
     1    1    2 ar  
     2    1    6 ar  
     3    1   27 1   
     4    2    3 ar  
     5    2   28 1   
     6    3    4 ar  
     7    3   29 1   
     8    4    5 ar  
     9    4   30 1   
    10    5    6 ar  
    11    5   31 1   
    12    6    7 1   
    13    7    8 1   
    14    7   32 1   
    15    7   33 1   
    16    8    9 1   
    17    8   12 1   
    18    8   34 1   
    19    9   10 1   
    20    9   11 1   
    21   12   13 1   
    22   13   14 ar  
    23   13   16 ar  
    24   14   15 ar  
    25   14   35 1   
    26   15   18 ar  
    27   15   36 1   
    28   16   17 ar  
    29   16   37 1   
    30   17   18 ar  
    31   17   38 1   
    32   18   19 1   
    33   19   20 1   
    34   19   39 1   
    35   19   40 1   
    36   20   21 1   
    37   20   41 1   
    38   20   42 1   
    39   21   22 ar  
    40   21   26 ar  
    41   22   23 ar  
    42   22   43 1   
    43   23   24 ar  
    44   23   44 1   
    45   24   25 ar  
    46   24   45 1   
    47   25   26 ar  
    48   25   46 1   
    49   26   47 1   
@<TRIPOS>SUBSTRUCTURE
     1 DKD         1 TEMP              0 ****  ****    0 ROOT
