@<TRIPOS>MOLECULE
DKG
   13    13     1     0     0
SMALL
bcc


@<TRIPOS>ATOM
      1 C7         -0.0050   -0.0030    0.0100 c3        1 DKG     -0.059800
      2 C4          1.4700    0.0010    0.0230 ca        1 DKG     -0.143600
      3 C5          2.2080    0.0530    1.2140 ca        1 DKG     -0.206300
      4 C3          2.2150   -0.0590   -1.1770 ca        1 DKG      0.322200
      5 N2          3.5790   -0.0690   -1.1860 nb        1 DKG     -0.307000
      6 N1          4.2450   -0.0240   -0.1010 nb        1 DKG     -0.315000
      7 C6          3.6100    0.0370    1.1070 ca        1 DKG      0.329200
      8 H1         -0.4160    0.4600    0.9410 hc        1 DKG      0.054367
      9 H2         -0.3960    0.5630   -0.8720 hc        1 DKG      0.054367
     10 H3         -0.3820   -1.0550   -0.0540 hc        1 DKG      0.054367
     11 H4          1.7150    0.1040    2.1930 ha        1 DKG      0.150000
     12 H5          1.7210   -0.0990   -2.1610 h4        1 DKG      0.033100
     13 H6          4.2620    0.0750    1.9950 h4        1 DKG      0.033100
@<TRIPOS>BOND
     1    1    2 1   
     2    1    8 1   
     3    1    9 1   
     4    1   10 1   
     5    2    3 ar  
     6    2    4 ar  
     7    3    7 ar  
     8    3   11 1   
     9    4    5 ar  
    10    4   12 1   
    11    5    6 ar  
    12    6    7 ar  
    13    7   13 1   
@<TRIPOS>SUBSTRUCTURE
     1 DKG         1 TEMP              0 ****  ****    0 ROOT
