@<TRIPOS>MOLECULE
DKI
   42    44     1     0     0
SMALL
bcc


@<TRIPOS>ATOM
      1 FAF        -0.2260   -0.9380   -0.2930 f         1 DKI     -0.122400
      2 CAU         0.9890   -0.3770   -0.0990 ca        1 DKI      0.176900
      3 CAI         1.4240   -0.1240    1.2130 ca        1 DKI     -0.174000
      4 CAH         2.6640    0.4630    1.4350 ca        1 DKI     -0.056000
      5 CAJ         3.4840    0.8180    0.3690 ca        1 DKI     -0.174000
      6 CAV         3.0680    0.5740   -0.9510 ca        1 DKI      0.176900
      7 FAG         3.8750    0.9370   -1.9730 f         1 DKI     -0.122400
      8 CAZ         1.8090   -0.0370   -1.2120 ca        1 DKI     -0.070400
      9 NAQ         1.3660   -0.2580   -2.5390 n         1 DKI     -0.392100
     10 CAS         1.6380   -1.4340   -3.2010 c         1 DKI      0.493200
     11 SAE         2.4610   -2.6450   -2.5290 s         1 DKI     -0.460400
     12 NBA         1.1490   -1.5510   -4.5450 n         1 DKI     -0.072500
     13 NAP         0.4540   -0.5770   -5.1850 nc        1 DKI     -0.553800
     14 CAT         1.3330   -2.6820   -5.4500 cc        1 DKI      0.769400
     15 NAA         1.9490   -3.8540   -5.1460 nh        1 DKI     -0.940500
     16 NAO         0.7420   -2.3710   -6.6620 nd        1 DKI     -0.781000
     17 CAX         0.2190   -1.0690   -6.4470 cd        1 DKI      0.755900
     18 NAR        -0.4380   -0.3150   -7.4470 nh        1 DKI     -0.668300
     19 CAW        -1.2770   -0.8150   -8.3920 ca        1 DKI      0.336600
     20 CAL        -1.7620   -2.1630   -8.4050 ca        1 DKI     -0.221000
     21 CAN        -2.6030   -2.5900   -9.3970 ca        1 DKI      0.053500
     22 CAK        -1.7390    0.0610   -9.4370 ca        1 DKI     -0.221000
     23 CAM        -2.5790   -0.3980  -10.4140 ca        1 DKI      0.053500
     24 CAY        -3.0520   -1.7390  -10.4470 ca        1 DKI     -0.670500
     25 SBB        -3.9350   -2.2750  -11.6180 sy        1 DKI      1.522200
     26 OAC        -4.0520   -3.6450  -11.7270 o         1 DKI     -0.582800
     27 OAD        -4.0500   -1.4590  -12.7240 o         1 DKI     -0.582800
     28 NAB        -5.7020   -1.9060  -10.8090 n4        1 DKI     -0.777500
     29 HAI         0.7710   -0.4020    2.0550 ha        1 DKI      0.167500
     30 HAH         3.0020    0.6510    2.4670 ha        1 DKI      0.159000
     31 HAJ         4.4650    1.2870    0.5420 ha        1 DKI      0.167500
     32 HAQ         0.8590    0.4950   -2.9570 hn        1 DKI      0.353500
     33 HAA1        2.4030   -3.9690   -4.2550 hn        1 DKI      0.480300
     34 HAA2        2.0780   -4.5190   -5.8730 hn        1 DKI      0.480300
     35 HAR        -0.2070    0.6600   -7.4710 hn        1 DKI      0.479800
     36 HAL        -1.4550   -2.8740   -7.6180 ha        1 DKI      0.179500
     37 HAN        -2.9400   -3.6450   -9.3970 ha        1 DKI      0.163000
     38 HAK        -1.3970    1.1090   -9.4640 ha        1 DKI      0.179500
     39 HAM        -2.8920    0.2900  -11.2240 ha        1 DKI      0.163000
     40 HAB1       -5.6160   -1.4910   -9.8910 hn        1 DKI      0.443467
     41 HAB2       -6.2300   -2.7690  -10.7230 hn        1 DKI      0.443467
     42 HAB3       -6.2290   -1.2720  -11.4000 hn        1 DKI      0.443467
@<TRIPOS>BOND
     1    1    2 1   
     2    2    3 ar  
     3    2    8 ar  
     4    3    4 ar  
     5    3   29 1   
     6    4    5 ar  
     7    4   30 1   
     8    5    6 ar  
     9    5   31 1   
    10    6    7 1   
    11    6    8 ar  
    12    8    9 1   
    13    9   10 1   
    14    9   32 1   
    15   10   11 2   
    16   10   12 1   
    17   12   13 1   
    18   12   14 1   
    19   13   17 2   
    20   14   15 1   
    21   14   16 2   
    22   15   33 1   
    23   15   34 1   
    24   16   17 1   
    25   17   18 1   
    26   18   19 1   
    27   18   35 1   
    28   19   20 ar  
    29   19   22 ar  
    30   20   21 ar  
    31   20   36 1   
    32   21   24 ar  
    33   21   37 1   
    34   22   23 ar  
    35   22   38 1   
    36   23   24 ar  
    37   23   39 1   
    38   24   25 1   
    39   25   26 2   
    40   25   27 2   
    41   25   28 1   
    42   28   40 1   
    43   28   41 1   
    44   28   42 1   
@<TRIPOS>SUBSTRUCTURE
     1 DKI         1 TEMP              0 ****  ****    0 ROOT
