@<TRIPOS>MOLECULE
DKI
   45    47     1     0     0
SMALL
bcc


@<TRIPOS>ATOM
      1 FAF         0.7900   -0.8970    0.2570 f         1 DKI     -0.110900
      2 CAU         1.8900   -0.1530    0.0100 ca        1 DKI      0.199400
      3 CAI         2.7290    0.2630    1.0500 ca        1 DKI     -0.129000
      4 CAH         3.8560    1.0410    0.7730 ca        1 DKI      0.034000
      5 CAJ         4.1660    1.4160   -0.5370 ca        1 DKI     -0.129000
      6 CAV         3.3440    1.0150   -1.5960 ca        1 DKI      0.199400
      7 FAG         3.6190    1.3770   -2.8670 f         1 DKI     -0.110900
      8 CAZ         2.1780    0.2250   -1.3400 ca        1 DKI     -0.228400
      9 NAQ         1.2400   -0.0810   -2.4110 n4        1 DKI     -0.423200
     10 CAS         1.5240   -1.4040   -3.0940 c         1 DKI      0.075200
     11 SAE         2.6970   -2.3030   -2.7280 s         1 DKI      0.229600
     12 NBA         0.5550   -1.7360   -4.1470 n         1 DKI      0.010500
     13 NAP        -0.4510   -0.9410   -4.5210 nc        1 DKI     -0.424800
     14 CAT         0.4960   -2.9500   -4.9350 cc        1 DKI      0.541400
     15 NAA         1.4010   -4.0930   -4.8480 n4        1 DKI     -0.827300
     16 NAO        -0.5610   -2.8840   -5.7980 nd        1 DKI     -0.542000
     17 CAX        -1.1370   -1.6230   -5.5120 cd        1 DKI      0.637900
     18 NAR        -2.3670   -1.1310   -6.1520 n4        1 DKI     -0.596100
     19 CAW        -2.4580   -1.3450   -7.6140 ca        1 DKI      0.024600
     20 CAL        -3.0320   -2.5290   -8.1070 ca        1 DKI     -0.109000
     21 CAN        -3.2170   -2.6670   -9.4860 ca        1 DKI      0.027500
     22 CAK        -2.0610   -0.3190   -8.4890 ca        1 DKI     -0.109000
     23 CAM        -2.2600   -0.4870   -9.8620 ca        1 DKI      0.027500
     24 CAY        -2.8370   -1.6560  -10.3820 ca        1 DKI     -0.397500
     25 SBB        -2.8830   -1.9230  -12.0460 sy        1 DKI      1.437200
     26 OAC        -3.0100   -3.2660  -12.3010 o         1 DKI     -0.510300
     27 OAD        -2.0560   -1.0330  -12.6850 o         1 DKI     -0.510300
     28 NAB        -4.5630   -1.2810  -12.4920 n4        1 DKI     -0.815500
     29 HAI         2.4830   -0.0250    2.0930 ha        1 DKI      0.226000
     30 HAH         4.5120    1.3700    1.6070 ha        1 DKI      0.224000
     31 HAJ         5.0580    2.0410   -0.7500 ha        1 DKI      0.226000
     32 HAQ         0.2880   -0.1020   -2.0000 hn        1 DKI      0.496800
     33 HAA1        2.1750   -3.9040   -4.1610 hn        1 DKI      0.518133
     34 HAA2        1.8080   -4.2840   -5.7860 hn        1 DKI      0.518133
     35 HAR        -3.1650   -1.6230   -5.6980 hn        1 DKI      0.511300
     36 HAL        -3.3490   -3.3550   -7.4430 ha        1 DKI      0.194000
     37 HAN        -3.6550   -3.6170   -9.8660 ha        1 DKI      0.216500
     38 HAK        -1.6070    0.6240   -8.1320 ha        1 DKI      0.194000
     39 HAM        -1.9250    0.3240  -10.5470 ha        1 DKI      0.216500
     40 HAB1       -5.1140   -0.9130  -11.7190 hn        1 DKI      0.487133
     41 HAB2       -4.4910   -0.5260  -13.1900 hn        1 DKI      0.487133
     42 HAQ2        1.2950    0.6840   -3.1100 hn        1 DKI      0.496800
     43 HAA3        0.8660   -4.9340   -4.5490 hn        1 DKI      0.518133
     44 HAR2       -2.4560   -0.1110   -5.9650 hn        1 DKI      0.511300
     45 HAB3       -5.1300   -2.0210  -12.9330 hn        1 DKI      0.487133
@<TRIPOS>BOND
     1    1    2 1   
     2    2    3 ar  
     3    2    8 ar  
     4    3    4 ar  
     5    3   29 1   
     6    4    5 ar  
     7    4   30 1   
     8    5    6 ar  
     9    5   31 1   
    10    6    7 1   
    11    6    8 ar  
    12    8    9 1   
    13    9   10 1   
    14    9   32 1   
    15    9   42 1   
    16   10   11 2   
    17   10   12 1   
    18   12   13 1   
    19   12   14 1   
    20   13   17 2   
    21   14   15 1   
    22   14   16 2   
    23   15   33 1   
    24   15   34 1   
    25   15   43 1   
    26   16   17 1   
    27   17   18 1   
    28   18   19 1   
    29   18   35 1   
    30   18   44 1   
    31   19   20 ar  
    32   19   22 ar  
    33   20   21 ar  
    34   20   36 1   
    35   21   24 ar  
    36   21   37 1   
    37   22   23 ar  
    38   22   38 1   
    39   23   24 ar  
    40   23   39 1   
    41   24   25 1   
    42   25   26 2   
    43   25   27 2   
    44   25   28 1   
    45   28   40 1   
    46   28   41 1   
    47   28   45 1   
@<TRIPOS>SUBSTRUCTURE
     1 DKI         1 TEMP              0 ****  ****    0 ROOT
