@<TRIPOS>MOLECULE
DKI
   42    44     1     0     0
SMALL
bcc


@<TRIPOS>ATOM
      1 FAF        -0.2270   -0.9370   -0.3000 f         1 DKI     -0.122400
      2 CAU         0.9890   -0.3780   -0.1040 ca        1 DKI      0.176900
      3 CAI         1.4230   -0.1250    1.2080 ca        1 DKI     -0.174000
      4 CAH         2.6640    0.4600    1.4310 ca        1 DKI     -0.056000
      5 CAJ         3.4860    0.8120    0.3670 ca        1 DKI     -0.174000
      6 CAV         3.0710    0.5680   -0.9540 ca        1 DKI      0.176900
      7 FAG         3.8800    0.9290   -1.9750 f         1 DKI     -0.122400
      8 CAZ         1.8110   -0.0400   -1.2160 ca        1 DKI     -0.070400
      9 NAQ         1.3700   -0.2610   -2.5440 ns        1 DKI     -0.392100
     10 CAS         1.6400   -1.4380   -3.2040 c         1 DKI      0.493200
     11 SAE         2.4590   -2.6510   -2.5310 s         1 DKI     -0.460400
     12 NBA         1.1530   -1.5550   -4.5480 n         1 DKI     -0.072500
     13 NAP         0.4620   -0.5790   -5.1910 nc        1 DKI     -0.553800
     14 CAT         1.3320   -2.6890   -5.4520 cc        1 DKI      0.769400
     15 NAA         1.9440   -3.8620   -5.1460 nv        1 DKI     -0.940500
     16 NAO         0.7430   -2.3770   -6.6640 nd        1 DKI     -0.781000
     17 CAX         0.2260   -1.0730   -6.4520 cd        1 DKI      0.755900
     18 NAR        -0.4270   -0.3180   -7.4540 nu        1 DKI     -0.668300
     19 CAW        -1.2720   -0.8160   -8.3940 ca        1 DKI      0.336600
     20 CAL        -1.7680   -2.1610   -8.3990 ca        1 DKI     -0.221000
     21 CAN        -2.6140   -2.5870   -9.3870 ca        1 DKI      0.053500
     22 CAK        -1.7310    0.0570   -9.4430 ca        1 DKI     -0.221000
     23 CAM        -2.5770   -0.4000  -10.4150 ca        1 DKI      0.053500
     24 CAY        -3.0600   -1.7380  -10.4400 ca        1 DKI     -0.670500
     25 SBB        -3.9510   -2.2730  -11.6060 sy        1 DKI      1.522200
     26 OAC        -4.0800   -3.6420  -11.7070 o         1 DKI     -0.582800
     27 OAD        -4.0630   -1.4620  -12.7160 o         1 DKI     -0.582800
     28 NAB        -5.7130   -1.8860  -10.7930 nz        1 DKI     -0.777500
     29 HAI         0.7680   -0.4010    2.0500 ha        1 DKI      0.167500
     30 HAH         3.0000    0.6480    2.4650 ha        1 DKI      0.159000
     31 HAJ         4.4680    1.2800    0.5410 ha        1 DKI      0.167500
     32 HAQ         0.8670    0.4930   -2.9630 hn        1 DKI      0.353500
     33 HAA1        2.3970   -3.9780   -4.2540 hn        1 DKI      0.480300
     34 HAA2        2.0710   -4.5300   -5.8710 hn        1 DKI      0.480300
     35 HAR        -0.1890    0.6550   -7.4830 hn        1 DKI      0.479800
     36 HAL        -1.4640   -2.8700   -7.6100 ha        1 DKI      0.179500
     37 HAN        -2.9600   -3.6390   -9.3810 ha        1 DKI      0.163000
     38 HAK        -1.3810    1.1030   -9.4760 ha        1 DKI      0.179500
     39 HAM        -2.8860    0.2860  -11.2280 ha        1 DKI      0.163000
     40 HAB1       -5.6200   -1.4660   -9.8770 hn        1 DKI      0.443467
     41 HAB2       -6.2470   -2.7430  -10.7000 hn        1 DKI      0.443467
     42 HAB3       -6.2360   -1.2500  -11.3860 hn        1 DKI      0.443467
@<TRIPOS>BOND
     1    1    2 1   
     2    2    3 ar  
     3    2    8 ar  
     4    3    4 ar  
     5    3   29 1   
     6    4    5 ar  
     7    4   30 1   
     8    5    6 ar  
     9    5   31 1   
    10    6    7 1   
    11    6    8 ar  
    12    8    9 1   
    13    9   10 1   
    14    9   32 1   
    15   10   11 2   
    16   10   12 1   
    17   12   13 1   
    18   12   14 1   
    19   13   17 2   
    20   14   15 1   
    21   14   16 2   
    22   15   33 1   
    23   15   34 1   
    24   16   17 1   
    25   17   18 1   
    26   18   19 1   
    27   18   35 1   
    28   19   20 ar  
    29   19   22 ar  
    30   20   21 ar  
    31   20   36 1   
    32   21   24 ar  
    33   21   37 1   
    34   22   23 ar  
    35   22   38 1   
    36   23   24 ar  
    37   23   39 1   
    38   24   25 1   
    39   25   26 2   
    40   25   27 2   
    41   25   28 1   
    42   28   40 1   
    43   28   41 1   
    44   28   42 1   
@<TRIPOS>SUBSTRUCTURE
     1 DKI         1 TEMP              0 ****  ****    0 ROOT
