@<TRIPOS>MOLECULE
DKI
   41    43     1     0     0
SMALL
bcc


@<TRIPOS>ATOM
      1 FAF        -5.3400   -0.6060    2.2520 f         1 DKI     -0.121900
      2 CAU        -5.9150   -0.6110    1.0290 ca        1 DKI      0.175400
      3 CAI        -7.3170   -0.6710    0.9380 ca        1 DKI     -0.180500
      4 CAH        -7.9340   -0.6910   -0.3070 ca        1 DKI     -0.065000
      5 CAJ        -7.1810   -0.6630   -1.4740 ca        1 DKI     -0.180500
      6 CAV        -5.7780   -0.6020   -1.4040 ca        1 DKI      0.175400
      7 FAG        -5.0650   -0.5890   -2.5540 f         1 DKI     -0.121900
      8 CAZ        -5.1130   -0.5680   -0.1460 ca        1 DKI     -0.046400
      9 NAQ        -3.7010   -0.5400   -0.0640 n         1 DKI     -0.405100
     10 CAS        -3.0040    0.6510   -0.0210 c         1 DKI      0.518200
     11 SAE        -3.7680    2.0840   -0.0040 s         1 DKI     -0.542400
     12 NBA        -1.5900    0.5750    0.0020 n         1 DKI     -0.073500
     13 NAP        -0.8880   -0.5970   -0.0840 nc        1 DKI     -0.623800
     14 CAT        -0.6490    1.6780    0.1930 cc        1 DKI      0.769400
     15 NAA        -0.9900    2.9860    0.3530 nh        1 DKI     -0.953500
     16 NAO         0.6270    1.1680    0.2040 nd        1 DKI     -0.784000
     17 CAX         0.4380   -0.2370    0.0390 cd        1 DKI      0.815900
     18 NAR         1.4740   -1.1800    0.0380 nh        1 DKI     -0.702300
     19 CAW         2.8320   -0.8190   -0.0180 ca        1 DKI      0.211600
     20 CAL         3.3840    0.1790    0.8150 ca        1 DKI     -0.182000
     21 CAN         4.7500    0.4300    0.7810 ca        1 DKI      0.004000
     22 CAK         3.7010   -1.5500   -0.8670 ca        1 DKI     -0.182000
     23 CAM         5.0610   -1.2820   -0.8720 ca        1 DKI      0.004000
     24 CAY         5.6130   -0.2930   -0.0500 ca        1 DKI     -0.414500
     25 SBB         7.2630    0.0430   -0.0890 sy        1 DKI      1.532200
     26 OAC         7.4570    1.3900    0.2850 o         1 DKI     -0.660800
     27 OAD         7.7740   -0.3700   -1.3390 o         1 DKI     -0.660800
     28 NAB         7.8610   -0.9060    1.0570 n3        1 DKI     -1.026700
     29 HAI        -7.9110   -0.6960    1.8640 ha        1 DKI      0.160000
     30 HAH        -9.0340   -0.7300   -0.3690 ha        1 DKI      0.150000
     31 HAJ        -7.6650   -0.6820   -2.4620 ha        1 DKI      0.160000
     32 HAQ        -3.2440   -1.4270   -0.1080 hn        1 DKI      0.354500
     33 HAA1       -0.2600    3.6560    0.3940 hn        1 DKI      0.474300
     34 HAA2       -1.9490    3.2700    0.2540 hn        1 DKI      0.474300
     35 HAR         1.2460   -2.0350   -0.4310 hn        1 DKI      0.442800
     36 HAL         2.7490    0.7640    1.4970 ha        1 DKI      0.153000
     37 HAN         5.1650    1.2310    1.4190 ha        1 DKI      0.154000
     38 HAK         3.3040   -2.3330   -1.5320 ha        1 DKI      0.153000
     39 HAM         5.7220   -1.8430   -1.5570 ha        1 DKI      0.154000
     40 HAB1        8.1840   -1.8250    0.8920 hn        1 DKI      0.445800
     41 HAB2        7.9670   -0.6260    1.9980 hn        1 DKI      0.445800
@<TRIPOS>BOND
     1    1    2 1   
     2    2    3 ar  
     3    2    8 ar  
     4    3    4 ar  
     5    3   29 1   
     6    4    5 ar  
     7    4   30 1   
     8    5    6 ar  
     9    5   31 1   
    10    6    7 1   
    11    6    8 ar  
    12    8    9 1   
    13    9   10 1   
    14    9   32 1   
    15   10   11 2   
    16   10   12 1   
    17   12   13 1   
    18   12   14 1   
    19   13   17 2   
    20   14   15 1   
    21   14   16 2   
    22   15   33 1   
    23   15   34 1   
    24   16   17 1   
    25   17   18 1   
    26   18   19 1   
    27   18   35 1   
    28   19   20 ar  
    29   19   22 ar  
    30   20   21 ar  
    31   20   36 1   
    32   21   24 ar  
    33   21   37 1   
    34   22   23 ar  
    35   22   38 1   
    36   23   24 ar  
    37   23   39 1   
    38   24   25 1   
    39   25   26 2   
    40   25   27 2   
    41   25   28 1   
    42   28   40 1   
    43   28   41 1   
@<TRIPOS>SUBSTRUCTURE
     1 DKI         1 TEMP              0 ****  ****    0 ROOT
