@<TRIPOS>MOLECULE
DKI
   41    36     1     0     0
SMALL
bcc


@<TRIPOS>ATOM
      1 FAF         1.3260    2.0100    4.5020 f         1 DKI     -0.088000
      2 CAU         2.5630    1.5200    4.6560 c2        1 DKI      0.137000
      3 CAI         3.1590    1.5230    5.9080 c2        1 DKI     -0.180000
      4 CAH         4.4510    1.0460    6.0610 c1        1 DKI     -0.065000
      5 CAJ         5.1470    0.5670    4.9630 c1        1 DKI     -0.181000
      6 CAV         4.5510    0.5640    3.7110 c1        1 DKI      0.144000
      7 FAG         5.2280    0.1110    2.6480 f         1 DKI     -0.086000
      8 CAZ         3.2590    1.0410    3.5580 c2        1 DKI     -0.039000
      9 NAQ         2.6690    1.0880    2.2680 n         1 DKI     -0.259000
     10 CAS         2.6420   -0.0760    1.4570 c2        1 DKI      0.211000
     11 SAE         3.5990   -1.3910    1.8480 s         1 DKI     -0.259000
     12 NBA         1.8220   -0.1150    0.3010 n         1 DKI     -0.198000
     13 NAP         0.8410    0.7530   -0.0020 n2        1 DKI     -0.191000
     14 CAT         1.9200   -0.9950   -0.7050 c1        1 DKI      0.225000
     15 NAA         2.8460   -2.0670   -0.7870 n2        1 DKI     -0.652000
     16 NAO         1.0010   -0.6730   -1.6300 n2        1 DKI     -0.258000
     17 CAX         0.3350    0.4080   -1.1940 c1        1 DKI      0.097000
     18 NAR        -0.6690    1.1130   -1.9090 n2        1 DKI     -0.223000
     19 CAW        -1.8540    0.4440   -2.3140 c2        1 DKI      0.130000
     20 CAL        -2.9980    0.5310   -1.5370 c2        1 DKI     -0.208000
     21 CAN        -4.1800   -0.0460   -1.9750 c1        1 DKI      0.006000
     22 CAK        -1.8920   -0.2220   -3.5300 c1        1 DKI     -0.156000
     23 CAM        -3.0730   -0.7990   -3.9670 c1        1 DKI      0.002000
     24 CAY        -4.2170   -0.7120   -3.1900 c1        1 DKI     -0.859000
     25 SBB        -5.7060   -1.5260   -3.7090 s4        1 DKI      2.087800
     26 OAC        -6.4340   -2.0470   -2.5860 o         1 DKI     -0.548400
     27 OAD        -5.4150   -2.7300   -4.4370 o         1 DKI     -0.548400
     28 NAB        -6.6330   -0.5020   -4.5980 n2        1 DKI     -0.652000
     29 HAI         2.6680    1.8610    6.6820 ha        1 DKI      0.160000
     30 HAH         4.8700    1.0480    6.9420 ha        1 DKI      0.150000
     31 HAJ         6.0580    0.2310    5.0710 ha        1 DKI      0.160000
     32 HAQ         2.3110    1.8680    1.9590 hn        1 DKI      0.268000
     33 HAA1        3.3310   -2.3090   -0.0520 hn        1 DKI      0.255250
     34 HAA2        2.9510   -2.5200   -1.5740 hn        1 DKI      0.255250
     35 HAR        -0.5430    1.9890   -2.1260 hn        1 DKI      0.238000
     36 HAL        -2.9720    1.0000   -0.6810 ha        1 DKI      0.139000
     37 HAN        -4.9860    0.0150   -1.4270 ha        1 DKI      0.154000
     38 HAK        -1.0860   -0.2830   -4.0780 ha        1 DKI      0.167000
     39 HAM        -3.0990   -1.2680   -4.8230 ha        1 DKI      0.154000
     40 HAB1       -6.2960   -0.1240   -5.3580 hn        1 DKI      0.255250
     41 HAB2       -7.4940   -0.3290   -4.3440 hn        1 DKI      0.255250
@<TRIPOS>BOND
     1    1    2 1   
     2    2    3 1   
     3    2    8 1   
     4    3    4 1   
     5    3   29 1   
     6    4   30 1   
     7    5    6 1   
     8    5   31 1   
     9    6    8 1   
    10    8    9 1   
    11    9   10 1   
    12    9   32 1   
    13   10   11 1   
    14   10   12 1   
    15   12   13 1   
    16   12   14 1   
    17   13   17 1   
    18   14   16 1   
    19   15   33 1   
    20   15   34 1   
    21   16   17 1   
    22   18   19 1   
    23   18   35 1   
    24   19   20 1   
    25   19   22 1   
    26   20   21 1   
    27   20   36 1   
    28   21   37 1   
    29   22   38 1   
    30   23   24 1   
    31   23   39 1   
    32   24   25 1   
    33   25   26 1   
    34   25   27 1   
    35   28   40 1   
    36   28   41 1   
@<TRIPOS>SUBSTRUCTURE
     1 DKI         1 TEMP              0 ****  ****    0 ROOT
