@<TRIPOS>MOLECULE
DKK
   54    54     1     0     0
SMALL
bcc


@<TRIPOS>ATOM
      1 C1          0.0000    0.0000    0.0000 c2        1 DKK     -0.576000
      2 O5          0.0210    0.0140   -2.4170 os        1 DKK     -0.314000
      3 C7          0.0490    0.0280   -4.8340 c3        1 DKK     -0.248000
      4 C9          1.6430   -1.4420   -5.9450 c2        1 DKK      0.032000
      5 C11         2.4220   -2.7290   -6.0260 c3        1 DKK     -0.079000
      6 C12         3.2770   -2.7230   -7.2670 ca        1 DKK     -0.107000
      7 C13         4.5780   -2.2130   -7.2190 ca        1 DKK      0.080000
      8 C14         5.3660   -2.2090   -8.3720 ca        1 DKK     -0.032000
      9 C15         4.8620   -2.7080   -9.5530 ca        1 DKK     -0.138000
     10 C16         3.5680   -3.2140   -9.5990 ca        1 DKK     -0.036000
     11 C19         5.1000   -1.6940   -5.9900 c1        1 DKK     -0.130000
     12 C22         3.8900   -3.7130  -12.0030 c3        1 DKK     -0.199000
     13 C30         6.4600   -5.4410  -16.2820 c2        1 DKK     -0.018000
     14 C31         5.3360   -5.3440  -15.7440 c2        1 DKK     -0.106000
     15 N2          1.3030    0.0000    0.0000 n2        1 DKK      0.150000
     16 N3         -0.6880    0.0000    1.1900 nz        1 DKK      0.643000
     17 N4         -0.6870    0.0080   -1.1910 ny        1 DKK      0.919000
     18 C6         -0.8180    0.0210   -3.5730 c3        1 DKK      0.016000
     19 N8          0.8060   -1.2240   -4.9120 ny        1 DKK      0.734000
     20 O10         1.7700   -0.6010   -6.8100 o         1 DKK     -0.133000
     21 C17         2.7790   -3.2260   -8.4510 ca        1 DKK      0.048000
     22 F18         1.5240   -3.7230   -8.4980 f         1 DKK     -0.077000
     23 N20         5.5220   -1.2670   -5.0250 n1        1 DKK     -0.012000
     24 N21         3.0600   -3.7180  -10.7950 nu        1 DKK      0.242000
     25 C23         3.0810   -4.3810  -13.1090 c2        1 DKK      0.143000
     26 F24         3.1850   -5.7920  -12.5250 f         1 DKK     -0.174000
     27 F25         1.7250   -3.8160  -13.1920 f         1 DKK     -0.174000
     28 C26         5.3240   -4.8870  -14.5070 c1        1 DKK      0.143000
     29 N27         6.4420   -4.4520  -13.6080 n2        1 DKK     -0.016000
     30 C28         7.4990   -4.6050  -14.2820 c2        1 DKK     -0.038000
     31 C29         7.5500   -5.0850  -15.5890 c2        1 DKK     -0.177000
     32 H7          0.5940    0.9380   -4.6150 hx        1 DKK      0.168000
     33 H7A        -0.6850    0.2380   -5.6020 hx        1 DKK      0.168000
     34 H11         3.2210   -2.7920   -5.2970 hc        1 DKK      0.119000
     35 H11A        1.8140   -3.6140   -5.8790 hc        1 DKK      0.119000
     36 H14         6.4020   -2.1000   -8.6710 ha        1 DKK      0.159000
     37 H15         5.6360   -2.6690  -10.3100 ha        1 DKK      0.158000
     38 H22         4.9540   -3.8530  -11.8510 h1        1 DKK      0.102500
     39 H22A        4.0170   -2.6420  -12.1040 h1        1 DKK      0.102500
     40 HN2         1.8870   -0.3280    0.7430 hn        1 DKK      0.158000
     41 HN3        -0.1930    0.6140    1.8070 hn        1 DKK      0.110000
     42 HN3A       -0.5120   -0.9500    1.4500 hn        1 DKK      0.110000
     43 HN4        -1.5570   -0.4120   -1.4540 hn        1 DKK      0.013000
     44 H6         -1.4400    0.9000   -3.7020 h1        1 DKK      0.095000
     45 H6A        -1.4360   -0.8630   -3.4770 h1        1 DKK      0.095000
     46 HN8         1.4050   -1.1700   -4.1120 hn        1 DKK      0.062500
     47 HN21        2.0940   -3.8160  -11.0380 hn        1 DKK      0.118000
     48 H28         8.4990   -4.2640  -14.0420 h4        1 DKK      0.136000
     49 H29         8.5810   -4.9990  -15.9110 ha        1 DKK      0.140000
     50 H30         6.6140   -5.6330  -17.3370 ha        1 DKK      0.135000
     51 H33        -1.3530   -0.7010    1.4490 hn        1 DKK      0.110000
     52 H42        -1.0780    0.9160   -1.0360 hn        1 DKK      0.013000
     53 H82         0.2790   -2.0740   -4.9470 hn        1 DKK      0.062500
     54 H31         4.7010   -5.2730  -16.6200 ha        1 DKK      0.180000
@<TRIPOS>BOND
     1    1   15 1   
     2    1   16 1   
     3    1   17 1   
     4    2   17 1   
     5    2   18 1   
     6    3   18 1   
     7    3   19 1   
     8    3   32 1   
     9    3   33 1   
    10    4    5 1   
    11    4   19 1   
    12    4   20 1   
    13    5    6 1   
    14    5   34 1   
    15    5   35 1   
    16    6    7 1   
    17    6   21 1   
    18    7    8 1   
    19    7   11 1   
    20    8    9 1   
    21    8   36 1   
    22    9   10 1   
    23    9   37 1   
    24   10   21 1   
    25   10   24 1   
    26   11   23 1   
    27   12   24 1   
    28   12   25 1   
    29   12   38 1   
    30   12   39 1   
    31   13   14 1   
    32   13   31 1   
    33   13   50 1   
    34   14   28 1   
    35   14   54 1   
    36   15   40 1   
    37   16   41 1   
    38   16   42 1   
    39   16   51 1   
    40   17   43 1   
    41   17   52 1   
    42   18   44 1   
    43   18   45 1   
    44   19   46 1   
    45   19   53 1   
    46   21   22 1   
    47   24   47 1   
    48   25   26 1   
    49   25   27 1   
    50   28   29 1   
    51   29   30 1   
    52   30   31 1   
    53   30   48 1   
    54   31   49 1   
@<TRIPOS>SUBSTRUCTURE
     1 DKK         1 TEMP              0 ****  ****    0 ROOT
