@<TRIPOS>MOLECULE
DKK
   51    52     1     0     0
SMALL
bcc


@<TRIPOS>ATOM
      1 C1          5.9870   -0.5440   -1.4710 c2        1 DKK      0.685100
      2 O5          4.4790    1.1910   -2.0610 os        1 DKK     -0.236100
      3 C7          3.2250    2.4410   -0.4830 c3        1 DKK      0.078000
      4 C9          2.8620    1.5110    1.7620 c         1 DKK      0.660100
      5 C11         2.5110    0.2970    2.6140 c3        1 DKK     -0.120100
      6 C12         1.3770   -0.5100    2.0900 ca        1 DKK     -0.035300
      7 C13         1.5680   -1.8030    1.5740 ca        1 DKK     -0.036000
      8 C14         0.4770   -2.5370    1.0920 ca        1 DKK     -0.069000
      9 C15        -0.8070   -2.0150    1.1250 ca        1 DKK     -0.161000
     10 C16        -1.0540   -0.7300    1.6520 ca        1 DKK      0.145600
     11 C19         2.8560   -2.4040    1.5460 cg        1 DKK      0.248800
     12 C22        -3.3850   -0.5040    0.8650 c3        1 DKK      0.162800
     13 C30        -7.0220    0.8850   -1.8470 ca        1 DKK     -0.094000
     14 C31        -5.8450    1.1960   -1.1610 ca        1 DKK     -0.208300
     15 N2          5.3510   -0.7450   -0.3480 n2        1 DKK     -0.859100
     16 N3          7.0700   -1.3390   -1.9620 nh        1 DKK     -0.934800
     17 N4          5.6280    0.5760   -2.3750 nh        1 DKK     -0.511700
     18 C6          4.6140    2.2840   -1.1130 c3        1 DKK      0.108400
     19 N8          2.8280    1.3720    0.3890 n         1 DKK     -0.539900
     20 O10         3.1290    2.5990    2.3120 o         1 DKK     -0.613100
     21 C17         0.0700    0.0150    2.1370 ca        1 DKK      0.068900
     22 F18        -0.1310    1.2500    2.6620 f         1 DKK     -0.130900
     23 N20         3.8960   -2.9260    1.5220 n1        1 DKK     -0.375800
     24 N21        -2.3510   -0.2210    1.8130 nh        1 DKK     -0.718600
     25 C23        -3.5310    0.5260   -0.3210 c3        1 DKK      0.330300
     26 F24        -3.5000    1.8300    0.1370 f         1 DKK     -0.230300
     27 F25        -2.4400    0.5030   -1.1630 f         1 DKK     -0.230300
     28 C26        -4.8410    0.2130   -1.0690 ca        1 DKK      0.333600
     29 N27        -4.9610   -1.0210   -1.6150 nb        1 DKK     -0.647000
     30 C28        -6.1000   -1.2960   -2.2720 ca        1 DKK      0.396200
     31 C29        -7.1600   -0.3790   -2.4170 ca        1 DKK     -0.227300
     32 H7          3.2190    3.4140    0.0880 h1        1 DKK      0.074200
     33 H7A         2.4640    2.5000   -1.3140 h1        1 DKK      0.074200
     34 H11         3.4410   -0.3260    2.7130 hc        1 DKK      0.093700
     35 H11A        2.2450    0.6840    3.6380 hc        1 DKK      0.093700
     36 H14         0.6400   -3.5470    0.6820 ha        1 DKK      0.149000
     37 H15        -1.6350   -2.6300    0.7410 ha        1 DKK      0.149000
     38 H22        -3.2490   -1.5180    0.4020 h1        1 DKK      0.090700
     39 H22A       -4.3630   -0.4790    1.4250 h1        1 DKK      0.090700
     40 H31        -5.6980    2.1870   -0.7070 ha        1 DKK      0.163000
     41 HN2         5.7240   -1.4630    0.2360 hn        1 DKK      0.403400
     42 HN3         7.5920   -1.7960   -1.2460 hn        1 DKK      0.395300
     43 HN3A        7.6580   -0.8980   -2.6350 hn        1 DKK      0.395300
     44 HN4         5.4580    0.1730   -3.3000 hn        1 DKK      0.392800
     45 H6          5.4000    2.0720   -0.3470 h1        1 DKK      0.058200
     46 H6A         4.8800    3.2060   -1.6920 h1        1 DKK      0.058200
     47 HN8         2.8830    0.4530    0.0070 hn        1 DKK      0.329500
     48 HN21       -2.3640    0.7310    2.1310 hn        1 DKK      0.422800
     49 H28        -6.1640   -2.3100   -2.7090 h4        1 DKK      0.030100
     50 H29        -8.0670   -0.6620   -2.9680 ha        1 DKK      0.150000
     51 H30        -7.8240    1.6330   -1.9360 ha        1 DKK      0.147000
@<TRIPOS>BOND
     1    1   15 2   
     2    1   16 1   
     3    1   17 1   
     4    2   17 1   
     5    2   18 1   
     6    3   18 1   
     7    3   19 1   
     8    3   32 1   
     9    3   33 1   
    10    4    5 1   
    11    4   19 1   
    12    4   20 2   
    13    5    6 1   
    14    5   34 1   
    15    5   35 1   
    16    6    7 ar  
    17    6   21 ar  
    18    7    8 ar  
    19    7   11 1   
    20    8    9 ar  
    21    8   36 1   
    22    9   10 ar  
    23    9   37 1   
    24   10   21 ar  
    25   10   24 1   
    26   11   23 3   
    27   12   24 1   
    28   12   25 1   
    29   12   38 1   
    30   12   39 1   
    31   13   14 ar  
    32   13   31 ar  
    33   13   51 1   
    34   14   28 ar  
    35   14   40 1   
    36   15   41 1   
    37   16   42 1   
    38   16   43 1   
    39   17   44 1   
    40   18   45 1   
    41   18   46 1   
    42   19   47 1   
    43   21   22 1   
    44   24   48 1   
    45   25   26 1   
    46   25   27 1   
    47   25   28 1   
    48   28   29 ar  
    49   29   30 ar  
    50   30   31 ar  
    51   30   49 1   
    52   31   50 1   
@<TRIPOS>SUBSTRUCTURE
     1 DKK         1 TEMP              0 ****  ****    0 ROOT
