@<TRIPOS>MOLECULE
DKK
   51    45     1     0     0
SMALL
bcc


@<TRIPOS>ATOM
      1 C1         -4.0440    5.2190    5.6470 c1        1 DKK      0.118000
      2 O5         -2.0890    4.2010    4.7690 os        1 DKK     -0.232000
      3 C7         -0.4640    2.9720    3.4590 c3        1 DKK     -0.047000
      4 C9          0.8810    1.4310    2.0770 c1        1 DKK      0.315000
      5 C11         1.4720    0.0200    1.8240 c2        1 DKK     -0.157000
      6 C12         2.1330   -0.0060    0.4080 c2        1 DKK     -0.036000
      7 C13         3.4660    0.3520    0.2690 c2        1 DKK     -0.050000
      8 C14         4.1350    0.0990   -0.9290 c1        1 DKK     -0.063000
      9 C15         3.4710   -0.5090   -1.9810 c1        1 DKK     -0.164000
     10 C16         2.1550   -0.8650   -1.8510 c1        1 DKK      0.080000
     11 C19         4.2090    0.9180    1.4380 c1        1 DKK     -0.105000
     12 C22         1.9120   -2.4640   -3.7470 c3        1 DKK     -0.071000
     13 C30        -2.0010   -4.8420   -5.2100 c1        1 DKK     -0.125500
     14 C31        -1.1830   -3.7070   -5.1440 c1        1 DKK     -0.141000
     15 N2         -3.6040    6.3600    6.0820 n1        1 DKK     -0.340000
     16 N3         -5.4920    5.0700    5.2640 n2        1 DKK     -0.363000
     17 N4         -3.1630    4.1140    5.5380 n3        1 DKK     -0.113000
     18 C6         -1.5010    2.9270    4.6110 c3        1 DKK     -0.050000
     19 N8          0.0730    1.6860    3.2550 n3        1 DKK     -0.375000
     20 O10         1.1590    2.3440    1.3270 o         1 DKK     -0.382000
     21 C17         1.4720   -0.6130   -0.6430 c1        1 DKK      0.023000
     22 F18         0.1290   -0.8630   -0.5530 f         1 DKK     -0.098000
     23 N20         4.8280    1.3870    2.4210 n1        1 DKK     -0.028000
     24 N21         1.4140   -1.3800   -3.0270 n3        1 DKK     -0.281000
     25 C23         1.1590   -2.5820   -5.1000 c3        1 DKK      0.284000
     26 F24         0.4410   -1.5350   -5.2790 f         1 DKK     -0.158500
     27 F25         2.0610   -2.6920   -6.1020 f         1 DKK     -0.158500
     28 C26         0.2310   -3.8540   -5.0830 c2        1 DKK     -0.093000
     29 N27         0.7730   -5.0680   -5.0900 n2        1 DKK     -0.123000
     30 C28        -0.0490   -6.2100   -5.1570 c1        1 DKK     -0.068000
     31 C29        -1.4460   -6.0700   -5.2160 c1        1 DKK     -0.125500
     32 H7         -0.9210    3.2960    2.5930 h1        1 DKK      0.113000
     33 H7A         0.2840    3.6090    3.7030 h1        1 DKK      0.113000
     34 H11         2.0970   -0.1650    2.4570 ha        1 DKK      0.138000
     35 H11A        0.7160   -0.6910    1.8660 ha        1 DKK      0.138000
     36 H14         5.1480    0.3730   -1.0380 ha        1 DKK      0.152000
     37 H15         3.9590   -0.6920   -2.8430 ha        1 DKK      0.156000
     38 H22         2.8020   -2.3400   -3.9060 h1        1 DKK      0.132000
     39 H22A        1.7950   -3.2180   -3.2710 h1        1 DKK      0.132000
     40 H30        -3.0110   -4.7420   -5.2530 ha        1 DKK      0.150500
     41 H31        -1.5780   -2.8260   -5.1400 ha        1 DKK      0.163000
     42 HN2        -4.2320    7.1430    6.1600 DU        1 DKK      0.150000
     43 HN3        -6.0780    5.8210    5.3270 hn        1 DKK      0.203000
     44 HN3A       -5.8530    4.1870    5.0740 hn        1 DKK      0.203000
     45 HN4        -3.3800    3.2990    5.9510 hn        1 DKK      0.202000
     46 H6         -1.0720    2.6850    5.4080 h1        1 DKK      0.103500
     47 H6A        -2.1920    2.2730    4.4010 h1        1 DKK      0.103500
     48 HN8         0.0190    1.0390    3.9390 hn        1 DKK      0.232000
     49 HN21        0.6220   -0.9810   -3.2840 hn        1 DKK      0.226000
     50 H28         0.3380   -7.0700   -5.1620 ha        1 DKK      0.167000
     51 H29        -2.0010   -6.8390   -5.2600 ha        1 DKK      0.150500
@<TRIPOS>BOND
     1    1   15 1   
     2    1   17 1   
     3    2   17 1   
     4    2   18 1   
     5    3   18 1   
     6    3   19 1   
     7    3   32 1   
     8    3   33 1   
     9    4   19 1   
    10    4   20 1   
    11    5    6 1   
    12    5   34 1   
    13    5   35 1   
    14    6    7 1   
    15    6   21 1   
    16    7    8 1   
    17    7   11 1   
    18    8   36 1   
    19    9   10 1   
    20    9   37 1   
    21   10   24 1   
    22   11   23 1   
    23   12   24 1   
    24   12   25 1   
    25   12   38 1   
    26   12   39 1   
    27   13   31 1   
    28   13   40 1   
    29   14   28 1   
    30   14   41 1   
    31   16   43 1   
    32   16   44 1   
    33   17   45 1   
    34   18   46 1   
    35   18   47 1   
    36   19   48 1   
    37   21   22 1   
    38   24   49 1   
    39   25   26 1   
    40   25   27 1   
    41   25   28 1   
    42   28   29 1   
    43   29   30 1   
    44   30   50 1   
    45   31   51 1   
@<TRIPOS>SUBSTRUCTURE
     1 DKK         1 TEMP              0 ****  ****    0 ROOT
