@<TRIPOS>MOLECULE
DKX
   32    33     1     0     0
SMALL
bcc


@<TRIPOS>ATOM
      1 C1         -0.1460    0.1680    0.3420 c3        1 DKX      0.314500
      2 N1          1.2560   -0.0330    0.0390 n         1 DKX     -0.368000
      3 C2         -0.7490    1.4600   -0.2840 c3        1 DKX      0.086100
      4 N2          3.5340   -0.3500    0.8020 n         1 DKX     -0.583500
      5 O2         -0.0570    2.5570    0.2760 oh        1 DKX     -0.574800
      6 C3         -2.2500    1.5270    0.0850 c3        1 DKX      0.087600
      7 F3         -2.8360    2.6380   -0.5020 f         1 DKX     -0.238300
      8 C4         -2.9610    0.2340   -0.3740 c3        1 DKX      0.092100
      9 O4         -4.2820    0.1920    0.1320 oh        1 DKX     -0.583800
     10 C5         -2.2250   -0.9890    0.1940 c3        1 DKX      0.108100
     11 O5         -0.8570   -0.9560   -0.2160 os        1 DKX     -0.444600
     12 C6         -2.8000   -2.2890   -0.3790 c3        1 DKX      0.141400
     13 O6         -2.2610   -3.4140    0.2760 oh        1 DKX     -0.587800
     14 C7          1.6840   -0.2340   -1.2660 cc        1 DKX      0.062600
     15 C8          2.9870   -0.4550   -1.5740 cd        1 DKX     -0.316200
     16 C9          4.0030   -0.5100   -0.5160 c         1 DKX      0.716700
     17 O9          5.2180   -0.6880   -0.7020 o         1 DKX     -0.603500
     18 C10         2.1850   -0.1390    1.1160 c         1 DKX      0.820500
     19 O10         1.8110   -0.0420    2.3030 o         1 DKX     -0.633500
     20 H1         -0.2780    0.1980    1.4670 h2        1 DKX      0.120700
     21 H2         -0.6360    1.4540   -1.4030 h1        1 DKX      0.059700
     22 HO2        -0.4780    3.3560   -0.0710 ho        1 DKX      0.421000
     23 H3         -2.3520    1.6310    1.2050 h1        1 DKX      0.090700
     24 H4         -2.9750    0.1940   -1.4980 h1        1 DKX      0.060700
     25 HO4        -4.7300    0.9830   -0.1990 ho        1 DKX      0.420000
     26 H5         -2.2920   -0.9970    1.3170 h1        1 DKX      0.082700
     27 H6         -3.9040   -2.3190   -0.1730 h1        1 DKX      0.066200
     28 H6A        -2.6040   -2.3410   -1.4820 h1        1 DKX      0.066200
     29 HO6        -1.3060   -3.4010    0.1300 ho        1 DKX      0.412000
     30 H7          0.8860   -0.2030   -2.0330 h4        1 DKX      0.168000
     31 H8          3.3360   -0.6020   -2.6030 ha        1 DKX      0.181000
     32 HN2         4.1740   -0.3910    1.5670 hn        1 DKX      0.355500
@<TRIPOS>BOND
     1    1    2 1   
     2    1    3 1   
     3    1   11 1   
     4    1   20 1   
     5    2   14 1   
     6    2   18 1   
     7    3    5 1   
     8    3    6 1   
     9    3   21 1   
    10    4   16 1   
    11    4   18 1   
    12    4   32 1   
    13    5   22 1   
    14    6    7 1   
    15    6    8 1   
    16    6   23 1   
    17    8    9 1   
    18    8   10 1   
    19    8   24 1   
    20    9   25 1   
    21   10   11 1   
    22   10   12 1   
    23   10   26 1   
    24   12   13 1   
    25   12   27 1   
    26   12   28 1   
    27   13   29 1   
    28   14   15 2   
    29   14   30 1   
    30   15   16 1   
    31   15   31 1   
    32   16   17 2   
    33   18   19 2   
@<TRIPOS>SUBSTRUCTURE
     1 DKX         1 TEMP              0 ****  ****    0 ROOT
