@<TRIPOS>MOLECULE
DKX
   32    33     1     0     0
SMALL
bcc


@<TRIPOS>ATOM
      1 C1          0.1270    0.0540   -0.0050 c3        1 DKX      0.314500
      2 N1         -0.4460    0.1120   -1.3330 n         1 DKX     -0.368000
      3 C2          1.6840    0.0870    0.0140 c3        1 DKX      0.086100
      4 N2         -1.8580   -0.8640   -3.0440 n         1 DKX     -0.583500
      5 O2          2.1330   -1.0660   -0.6660 oh        1 DKX     -0.574800
      6 C3          2.1550    0.0580    1.4880 c3        1 DKX      0.087600
      7 F3          3.5380    0.1430    1.5480 f         1 DKX     -0.238300
      8 C4          1.5080    1.2250    2.2680 c3        1 DKX      0.092100
      9 O4          1.7680    1.0960    3.6530 oh        1 DKX     -0.583800
     10 C5         -0.0170    1.1800    2.0920 c3        1 DKX      0.108100
     11 O5         -0.3400    1.2230    0.7010 os        1 DKX     -0.444600
     12 C6         -0.6770    2.4180    2.7090 c3        1 DKX      0.141400
     13 O6         -2.0800    2.2940    2.7210 oh        1 DKX     -0.587800
     14 C7         -0.2680    1.2270   -2.1410 cc        1 DKX      0.062600
     15 C8         -0.8190    1.3190   -3.3770 cd        1 DKX     -0.316200
     16 C9         -1.6540    0.2330   -3.9040 c         1 DKX      0.716700
     17 O9         -2.1840    0.2200   -5.0260 o         1 DKX     -0.603500
     18 C10        -1.3000   -0.9470   -1.7620 c         1 DKX      0.820500
     19 O10        -1.5400   -1.9230   -1.0200 o         1 DKX     -0.633500
     20 H1         -0.2360   -0.8870    0.5110 h2        1 DKX      0.120700
     21 H2          2.0710    1.0160   -0.4870 h1        1 DKX      0.059700
     22 HO2         3.0980   -1.0700   -0.5970 ho        1 DKX      0.421000
     23 H3          1.8450   -0.9210    1.9570 h1        1 DKX      0.090700
     24 H4          1.9170    2.2020    1.8870 h1        1 DKX      0.060700
     25 HO4         2.7300    1.0890    3.7540 ho        1 DKX      0.420000
     26 H5         -0.4360    0.2450    2.5570 h1        1 DKX      0.082700
     27 H6         -0.3650    3.3380    2.1490 h1        1 DKX      0.066200
     28 H6A        -0.3720    2.4910    3.7880 h1        1 DKX      0.066200
     29 HO6        -2.3670    2.2090    1.8020 ho        1 DKX      0.412000
     30 H7          0.3530    2.0320   -1.7010 h4        1 DKX      0.168000
     31 H8         -0.6740    2.1900   -4.0280 ha        1 DKX      0.181000
     32 HN2        -2.4270   -1.6290   -3.3400 hn        1 DKX      0.355500
@<TRIPOS>BOND
     1    1    2 1   
     2    1    3 1   
     3    1   11 1   
     4    1   20 1   
     5    2   14 1   
     6    2   18 1   
     7    3    5 1   
     8    3    6 1   
     9    3   21 1   
    10    4   16 1   
    11    4   18 1   
    12    4   32 1   
    13    5   22 1   
    14    6    7 1   
    15    6    8 1   
    16    6   23 1   
    17    8    9 1   
    18    8   10 1   
    19    8   24 1   
    20    9   25 1   
    21   10   11 1   
    22   10   12 1   
    23   10   26 1   
    24   12   13 1   
    25   12   27 1   
    26   12   28 1   
    27   13   29 1   
    28   14   15 2   
    29   14   30 1   
    30   15   16 1   
    31   15   31 1   
    32   16   17 2   
    33   18   19 2   
@<TRIPOS>SUBSTRUCTURE
     1 DKX         1 TEMP              0 ****  ****    0 ROOT
