@<TRIPOS>MOLECULE
DKX
   32    33     1     0     0
SMALL
bcc


@<TRIPOS>ATOM
      1 C1          0.1230    0.0560   -0.0060 c3        1 DKX      0.314500
      2 N1         -0.4450    0.1150   -1.3360 n         1 DKX     -0.368000
      3 C2          1.6800    0.0770    0.0170 c3        1 DKX      0.086100
      4 N2         -1.8590   -0.8540   -3.0500 ns        1 DKX     -0.583500
      5 O2          2.1230   -1.0800   -0.6590 oh        1 DKX     -0.574800
      6 C3          2.1470    0.0490    1.4920 c3        1 DKX      0.087600
      7 F3          3.5300    0.1230    1.5560 f         1 DKX     -0.238300
      8 C4          1.5050    1.2220    2.2680 c3        1 DKX      0.092100
      9 O4          1.7600    1.0940    3.6540 oh        1 DKX     -0.583800
     10 C5         -0.0190    1.1870    2.0880 c3        1 DKX      0.108100
     11 O5         -0.3370    1.2300    0.6960 os        1 DKX     -0.444600
     12 C6         -0.6720    2.4310    2.7000 c3        1 DKX      0.141400
     13 O6         -2.0760    2.3170    2.7070 oh        1 DKX     -0.587800
     14 C7         -0.2570    1.2270   -2.1460 cc        1 DKX      0.062600
     15 C8         -0.8040    1.3210   -3.3840 cd        1 DKX     -0.316200
     16 C9         -1.6450    0.2390   -3.9120 c         1 DKX      0.716700
     17 O9         -2.1710    0.2280   -5.0350 o         1 DKX     -0.603500
     18 C10        -1.3060   -0.9390   -1.7660 c         1 DKX      0.820500
     19 O10        -1.5540   -1.9110   -1.0230 o         1 DKX     -0.633500
     20 H1         -0.2480   -0.8810    0.5100 h2        1 DKX      0.120700
     21 H2          2.0760    1.0030   -0.4850 h1        1 DKX      0.059700
     22 HO2         3.0880   -1.0910   -0.5870 ho        1 DKX      0.421000
     23 H3          1.8280   -0.9270    1.9630 h1        1 DKX      0.090700
     24 H4          1.9220    2.1950    1.8860 h1        1 DKX      0.060700
     25 HO4         2.7210    1.0790    3.7590 ho        1 DKX      0.420000
     26 H5         -0.4460    0.2560    2.5530 h1        1 DKX      0.082700
     27 H6         -0.3510    3.3480    2.1390 h1        1 DKX      0.066200
     28 H6A        -0.3700    2.5040    3.7800 h1        1 DKX      0.066200
     29 HO6        -2.3610    2.2330    1.7880 ho        1 DKX      0.412000
     30 H7          0.3680    2.0280   -1.7060 h4        1 DKX      0.168000
     31 H8         -0.6500    2.1890   -4.0360 ha        1 DKX      0.181000
     32 HN2        -2.4320   -1.6160   -3.3450 hn        1 DKX      0.355500
@<TRIPOS>BOND
     1    1    2 1   
     2    1    3 1   
     3    1   11 1   
     4    1   20 1   
     5    2   14 1   
     6    2   18 1   
     7    3    5 1   
     8    3    6 1   
     9    3   21 1   
    10    4   16 1   
    11    4   18 1   
    12    4   32 1   
    13    5   22 1   
    14    6    7 1   
    15    6    8 1   
    16    6   23 1   
    17    8    9 1   
    18    8   10 1   
    19    8   24 1   
    20    9   25 1   
    21   10   11 1   
    22   10   12 1   
    23   10   26 1   
    24   12   13 1   
    25   12   27 1   
    26   12   28 1   
    27   13   29 1   
    28   14   15 2   
    29   14   30 1   
    30   15   16 1   
    31   15   31 1   
    32   16   17 2   
    33   18   19 2   
@<TRIPOS>SUBSTRUCTURE
     1 DKX         1 TEMP              0 ****  ****    0 ROOT
