@<TRIPOS>MOLECULE
DKX
   32    32     1     0     0
SMALL
bcc


@<TRIPOS>ATOM
      1 C1         -0.1070   -0.6850   -0.1280 c3        1 DKX      0.185000
      2 N1         -0.5900   -0.4750   -1.4930 n         1 DKX     -0.258000
      3 C2          1.3160   -0.6420   -0.1380 c3        1 DKX     -0.031000
      4 N2         -1.3500    1.1180   -3.3320 n         1 DKX     -0.366000
      5 O2          1.8240   -1.8500   -0.9300 oh        1 DKX     -0.318000
      6 C3          1.9090   -0.6670    1.1470 c3        1 DKX     -0.017000
      7 F3          3.3080   -0.4440    1.0050 f         1 DKX     -0.166000
      8 C4          1.3590    0.3610    2.0720 c3        1 DKX     -0.020000
      9 O4          1.9410    0.1820    3.3350 oh        1 DKX     -0.315000
     10 C5         -0.2320    0.3140    2.2340 c3        1 DKX      0.000000
     11 O5         -0.7290    0.3320    0.7520 os        1 DKX     -0.288000
     12 C6         -0.6740    1.3900    2.8940 c3        1 DKX     -0.009000
     13 O6         -2.1000    1.3450    2.9780 oh        1 DKX     -0.319000
     14 C7         -1.0130   -1.5700   -2.2580 c2        1 DKX      0.054000
     15 C8         -1.6610   -1.3500   -3.5600 c1        1 DKX     -0.291000
     16 C9         -1.7790    0.0190   -4.1020 c1        1 DKX      0.353000
     17 O9         -2.3180    0.2030   -5.1860 o         1 DKX     -0.327000
     18 C10        -0.7110    0.8960   -2.0330 c2        1 DKX      0.411000
     19 O10        -0.3290    1.8280   -1.3870 o         1 DKX     -0.361000
     20 H1         -0.3990   -1.6000    0.1800 h2        1 DKX      0.111000
     21 H2          1.6070    0.1930   -0.6070 h1        1 DKX      0.147000
     22 HO2         2.6520   -1.7100   -1.1780 ho        1 DKX      0.223000
     23 H3          1.7630   -1.5980    1.5610 h1        1 DKX      0.119000
     24 H4          1.6080    1.2430    1.7380 h1        1 DKX      0.112000
     25 HO4         2.5610    0.8360    3.4800 ho        1 DKX      0.219000
     26 H5         -0.5030   -0.4860    2.6700 h1        1 DKX      0.109000
     27 H6         -0.4000    2.2020    2.4130 h1        1 DKX      0.109000
     28 H6A        -0.2790    1.4010    3.8280 h1        1 DKX      0.109000
     29 HO6        -2.3730    1.8370    3.6670 ho        1 DKX      0.210000
     30 H7         -0.9320   -2.5000   -1.8880 h4        1 DKX      0.166000
     31 H8         -1.9450   -2.0840   -4.0720 ha        1 DKX      0.182000
     32 HN2        -1.4230    1.9620   -3.6630 hn        1 DKX      0.267000
@<TRIPOS>BOND
     1    1    2 1   
     2    1    3 1   
     3    1   11 1   
     4    1   20 1   
     5    2   14 1   
     6    2   18 1   
     7    3    5 1   
     8    3    6 1   
     9    3   21 1   
    10    4   16 1   
    11    4   18 1   
    12    4   32 1   
    13    5   22 1   
    14    6    7 1   
    15    6    8 1   
    16    6   23 1   
    17    8    9 1   
    18    8   10 1   
    19    8   24 1   
    20    9   25 1   
    21   10   11 1   
    22   10   12 1   
    23   10   26 1   
    24   12   13 1   
    25   12   27 1   
    26   12   28 1   
    27   13   29 1   
    28   14   15 1   
    29   14   30 1   
    30   15   31 1   
    31   16   17 1   
    32   18   19 1   
@<TRIPOS>SUBSTRUCTURE
     1 DKX         1 TEMP              0 ****  ****    0 ROOT
