@<TRIPOS>MOLECULE
DKX
   32    33     1     0     0
SMALL
bcc


@<TRIPOS>ATOM
      1 C1          0.1320    0.0560   -0.0070 c3        1 DKX      0.314500
      2 N1         -0.4400    0.1070   -1.3360 n         1 DKX     -0.368000
      3 C2          1.6890    0.1020    0.0140 c3        1 DKX      0.086100
      4 N2         -1.8400   -0.8830   -3.0490 n         1 DKX     -0.583500
      5 O2          2.1490   -1.0470   -0.6650 oh        1 DKX     -0.574800
      6 C3          2.1580    0.0790    1.4880 c3        1 DKX      0.087600
      7 F3          3.5400    0.1760    1.5500 f         1 DKX     -0.238300
      8 C4          1.4990    1.2410    2.2670 c3        1 DKX      0.092100
      9 O4          1.7580    1.1150    3.6520 oh        1 DKX     -0.583800
     10 C5         -0.0250    1.1820    2.0890 c3        1 DKX      0.108100
     11 O5         -0.3460    1.2210    0.6970 os        1 DKX     -0.444600
     12 C6         -0.6970    2.4150    2.7040 c3        1 DKX      0.141400
     13 O6         -2.0980    2.2790    2.7130 oh        1 DKX     -0.587800
     14 C7         -0.2700    1.2230   -2.1450 cc        1 DKX      0.062600
     15 C8         -0.8210    1.3090   -3.3820 cd        1 DKX     -0.316200
     16 C9         -1.6450    0.2150   -3.9090 c         1 DKX      0.716700
     17 O9         -2.1730    0.1960   -5.0320 o         1 DKX     -0.603500
     18 C10        -1.2830   -0.9600   -1.7650 c         1 DKX      0.820500
     19 O10        -1.5150   -1.9370   -1.0230 o         1 DKX     -0.633500
     20 H1         -0.2230   -0.8880    0.5090 h2        1 DKX      0.120700
     21 H2          2.0680    1.0350   -0.4870 h1        1 DKX      0.059700
     22 HO2         3.1140   -1.0420   -0.5950 ho        1 DKX      0.421000
     23 H3          1.8560   -0.9020    1.9580 h1        1 DKX      0.090700
     24 H4          1.9000    2.2210    1.8860 h1        1 DKX      0.060700
     25 HO4         2.7200    1.1160    3.7550 ho        1 DKX      0.420000
     26 H5         -0.4360    0.2440    2.5540 h1        1 DKX      0.082700
     27 H6         -0.3940    2.4910    3.7830 h1        1 DKX      0.066200
     28 H6A        -0.3910    3.3370    2.1430 h1        1 DKX      0.066200
     29 HO6        -2.3830    2.1910    1.7940 ho        1 DKX      0.412000
     30 H7          0.3420    2.0340   -1.7050 h4        1 DKX      0.168000
     31 H8         -0.6820    2.1810   -4.0330 ha        1 DKX      0.181000
     32 HN2        -2.4010   -1.6530   -3.3440 hn        1 DKX      0.355500
@<TRIPOS>BOND
     1    1    2 1   
     2    1    3 1   
     3    1   11 1   
     4    1   20 1   
     5    2   14 1   
     6    2   18 1   
     7    3    5 1   
     8    3    6 1   
     9    3   21 1   
    10    4   16 1   
    11    4   18 1   
    12    4   32 1   
    13    5   22 1   
    14    6    7 1   
    15    6    8 1   
    16    6   23 1   
    17    8    9 1   
    18    8   10 1   
    19    8   24 1   
    20    9   25 1   
    21   10   11 1   
    22   10   12 1   
    23   10   26 1   
    24   12   13 1   
    25   12   27 1   
    26   12   28 1   
    27   13   29 1   
    28   14   15 2   
    29   14   30 1   
    30   15   16 1   
    31   15   31 1   
    32   16   17 2   
    33   18   19 2   
@<TRIPOS>SUBSTRUCTURE
     1 DKX         1 TEMP              0 ****  ****    0 ROOT
