@<TRIPOS>MOLECULE
DKY
   46    46     1     0     0
SMALL
bcc


@<TRIPOS>ATOM
      1 C1          1.8110   -0.1990   -0.0830 c2        1 DKY     -0.027900
      2 N1         -1.6150    0.5370   -1.3590 n         1 DKY     -0.413100
      3 C2          2.7910    0.6440    0.3040 c2        1 DKY     -0.032100
      4 N2         -2.9360    0.9560   -3.3930 nc        1 DKY     -0.638100
      5 O2          3.9920    0.5990   -0.3660 oh        1 DKY     -0.482100
      6 C3          2.6530    1.5780    1.4800 c3        1 DKY      0.152800
      7 F3          3.2280    2.8130    1.2250 f         1 DKY     -0.226300
      8 C4          1.1470    1.7290    1.8060 c3        1 DKY      0.088100
      9 O4          0.9420    2.3030    3.0800 oh        1 DKY     -0.589800
     10 C5          0.5150    0.3300    1.8340 c3        1 DKY      0.098100
     11 O5          0.5670   -0.2540    0.5200 os        1 DKY     -0.364900
     12 C6         -0.9570    0.3640    2.2470 c3        1 DKY      0.132400
     13 O6         -1.6970    1.2980    1.4880 oh        1 DKY     -0.620800
     14 C7         -1.5570   -0.7810   -1.6610 cc        1 DKY      0.128600
     15 C8         -2.1530   -1.2910   -2.8110 cd        1 DKY     -0.447600
     16 C9         -2.8430   -0.3420   -3.6360 cd        1 DKY      0.624500
     17 C10        -2.2990    1.4570   -2.2220 c         1 DKY      0.818900
     18 O10        -2.3070    2.6600   -1.9300 o         1 DKY     -0.532500
     19 C11        -2.6040   -0.6910   -6.0970 c         1 DKY      0.641300
     20 O11        -2.1530   -1.7440   -6.5220 o         1 DKY     -0.420100
     21 C12        -2.4770    0.6230   -6.5310 cg        1 DKY     -0.331200
     22 C13        -0.4310    1.5370   -9.3730 c2        1 DKY     -0.134000
     23 C14        -1.0150    2.7290   -9.5330 ce        1 DKY     -0.195000
     24 C15        -1.6430    3.5100   -8.4950 ce        1 DKY      0.032000
     25 C16        -2.2130    3.0750   -7.3490 cf        1 DKY     -0.153700
     26 C17        -2.3310    1.7520   -6.9350 ch        1 DKY      0.169700
     27 H1         -1.2170    0.8900   -0.4990 hn        1 DKY      0.400500
     28 H2          1.8790   -0.9230   -0.9060 h4        1 DKY      0.183000
     29 HO2         4.4410    1.4460   -0.2120 ho        1 DKY      0.438000
     30 H3          3.1830    1.1270    2.3730 h1        1 DKY      0.096700
     31 HN3        -3.7160   -1.8520   -4.7210 hn        1 DKY      0.473800
     32 H4          0.6560    2.3640    1.0150 h1        1 DKY      0.066700
     33 HO4         1.4500    3.1270    3.1030 ho        1 DKY      0.432000
     34 H5         -1.4380   -0.6290    2.0360 h1        1 DKY      0.077700
     35 H6          1.0850   -0.3350    2.5420 h1        1 DKY      0.084700
     36 H6A        -1.0080    0.6020    3.3430 h1        1 DKY      0.077700
     37 HO6        -1.5060    2.1780    1.8420 ho        1 DKY      0.427000
     38 H7         -1.0020   -1.4350   -0.9520 h4        1 DKY      0.205000
     39 H8         -2.0830   -2.3570   -3.0530 ha        1 DKY      0.183000
     40 H13        -0.3760    1.0200   -8.4040 ha        1 DKY      0.128000
     41 H14         0.0500    1.0110  -10.2100 ha        1 DKY      0.128000
     42 H15        -1.0140    3.2150  -10.5280 ha        1 DKY      0.156000
     43 H16        -1.6610    4.6030   -8.6900 ha        1 DKY      0.158000
     44 H17        -2.6550    3.8100   -6.6430 ha        1 DKY      0.182000
     45 N3         -3.5110   -0.8540   -4.8610 n4        1 DKY     -0.647800
     46 H32        -4.3870   -0.3410   -5.0270 hn        1 DKY      0.473800
@<TRIPOS>BOND
     1    1    3 2   
     2    1   11 1   
     3    1   28 1   
     4    2   14 1   
     5    2   17 1   
     6    2   27 1   
     7    3    5 1   
     8    3    6 1   
     9    4   16 2   
    10    4   17 1   
    11    5   29 1   
    12    6    7 1   
    13    6    8 1   
    14    6   30 1   
    15    8    9 1   
    16    8   10 1   
    17    8   32 1   
    18    9   33 1   
    19   10   11 1   
    20   10   12 1   
    21   10   35 1   
    22   12   13 1   
    23   12   34 1   
    24   12   36 1   
    25   13   37 1   
    26   14   15 2   
    27   14   38 1   
    28   15   16 1   
    29   15   39 1   
    30   16   45 1   
    31   17   18 2   
    32   19   20 2   
    33   19   21 1   
    34   19   45 1   
    35   21   26 3   
    36   22   23 2   
    37   22   40 1   
    38   22   41 1   
    39   23   24 1   
    40   23   42 1   
    41   24   25 2   
    42   24   43 1   
    43   25   26 1   
    44   25   44 1   
    45   31   45 1   
    46   45   46 1   
@<TRIPOS>SUBSTRUCTURE
     1 DKY         1 TEMP              0 ****  ****    0 ROOT
