@<TRIPOS>MOLECULE
DKY
   45    47     1     0     0
SMALL
bcc


@<TRIPOS>ATOM
      1 C1         -2.4940    0.3060    0.7200 c3        1 DKY      0.325500
      2 N1         -1.0450    0.2890    0.6240 n         1 DKY     -0.374000
      3 C2         -3.1550    1.5420    0.0470 c3        1 DKY      0.080100
      4 N2          1.0350    0.1930   -0.7180 nc        1 DKY     -0.651100
      5 O2         -2.7560    2.6680    0.8060 oh        1 DKY     -0.593800
      6 C3         -4.6930    1.3970    0.1180 c3        1 DKY      0.093600
      7 F3         -5.3040    2.4500   -0.5450 f         1 DKY     -0.239300
      8 C4         -5.1140    0.0470   -0.5030 c3        1 DKY      0.090100
      9 O4         -6.4980   -0.1750   -0.3070 oh        1 DKY     -0.588800
     10 C5         -4.3690   -1.0880    0.2130 c3        1 DKY      0.110100
     11 O5         -2.9590   -0.9020    0.0930 os        1 DKY     -0.422600
     12 C6         -4.6600   -2.4380   -0.4530 c3        1 DKY      0.141400
     13 O6         -4.0610   -3.4930    0.2660 oh        1 DKY     -0.594800
     14 C7         -0.2960    0.1170    1.7640 cc        1 DKY      0.075600
     15 C8          1.0680    0.0090    1.7240 cd        1 DKY     -0.422600
     16 C9          1.7240    0.0380    0.4130 cd        1 DKY      0.610200
     17 C10        -0.3670    0.3200   -0.6580 c         1 DKY      0.842900
     18 O10        -1.0560    0.4810   -1.6810 o         1 DKY     -0.595500
     19 C11         3.9680   -0.2800   -0.6840 c         1 DKY      0.680700
     20 O11         3.5610   -0.5410   -1.8210 o         1 DKY     -0.504100
     21 C12         5.4250   -0.2010   -0.3660 ca        1 DKY     -0.154600
     22 C13         6.2770   -1.1570   -0.9310 ca        1 DKY     -0.091000
     23 C14         7.6460   -1.1030   -0.6750 ca        1 DKY     -0.135500
     24 C15         8.1670   -0.0930    0.1340 ca        1 DKY     -0.105000
     25 C16         7.3190    0.8670    0.6860 ca        1 DKY     -0.135500
     26 C17         5.9470    0.8160    0.4400 ca        1 DKY     -0.091000
     27 H1         -2.7940    0.2950    1.8130 h2        1 DKY      0.062700
     28 H2         -2.8290    1.6350   -1.0260 h1        1 DKY      0.111700
     29 HO2        -3.0350    3.4470    0.3060 ho        1 DKY      0.423000
     30 H3         -5.0240    1.4310    1.1970 h1        1 DKY      0.076700
     31 HN3         3.5450   -0.0360    1.3160 hn        1 DKY      0.327500
     32 H4         -4.8680    0.0440   -1.6010 h1        1 DKY      0.074700
     33 HO4        -6.9570    0.5550   -0.7450 ho        1 DKY      0.419000
     34 H5         -4.6600   -1.1190    1.2990 h1        1 DKY      0.066700
     35 H6         -5.7660   -2.6310   -0.4110 h1        1 DKY      0.069700
     36 H6A        -4.3010   -2.4260   -1.5150 h1        1 DKY      0.069700
     37 HO6        -3.1050   -3.3680    0.2070 ho        1 DKY      0.412000
     38 H7         -0.8410    0.0820    2.7280 h4        1 DKY      0.159000
     39 H8          1.6460   -0.1100    2.6470 ha        1 DKY      0.156000
     40 H13         5.8570   -1.9370   -1.5860 ha        1 DKY      0.146500
     41 H14         8.3150   -1.8550   -1.1190 ha        1 DKY      0.140500
     42 H15         9.2480   -0.0510    0.3330 ha        1 DKY      0.138000
     43 H16         7.7320    1.6710    1.3150 ha        1 DKY      0.140500
     44 H17         5.2900    1.5910    0.8630 ha        1 DKY      0.146500
     45 N3          3.1170   -0.0850    0.4170 n         1 DKY     -0.489400
@<TRIPOS>BOND
     1    1    2 1   
     2    1    3 1   
     3    1   11 1   
     4    1   27 1   
     5    2   14 1   
     6    2   17 1   
     7    3    5 1   
     8    3    6 1   
     9    3   28 1   
    10    4   16 2   
    11    4   17 1   
    12    5   29 1   
    13    6    7 1   
    14    6    8 1   
    15    6   30 1   
    16    8    9 1   
    17    8   10 1   
    18    8   32 1   
    19    9   33 1   
    20   10   11 1   
    21   10   12 1   
    22   10   34 1   
    23   12   13 1   
    24   12   35 1   
    25   12   36 1   
    26   13   37 1   
    27   14   15 2   
    28   14   38 1   
    29   15   16 1   
    30   15   39 1   
    31   16   45 1   
    32   17   18 2   
    33   19   20 2   
    34   19   21 1   
    35   19   45 1   
    36   21   22 ar  
    37   21   26 ar  
    38   22   23 ar  
    39   22   40 1   
    40   23   24 ar  
    41   23   41 1   
    42   24   25 ar  
    43   24   42 1   
    44   25   26 ar  
    45   25   43 1   
    46   26   44 1   
    47   31   45 1   
@<TRIPOS>SUBSTRUCTURE
     1 DKY         1 TEMP              0 ****  ****    0 ROOT
