@<TRIPOS>MOLECULE
DKY
   45    43     1     0     0
SMALL
bcc


@<TRIPOS>ATOM
      1 C1          0.9870   -1.0680    2.3570 c3        1 DKY      0.176000
      2 N1          0.4200   -0.9630    1.0160 n3        1 DKY     -0.267000
      3 C2          2.3960   -1.2590    2.2410 c3        1 DKY     -0.033000
      4 N2         -0.0810    0.4390   -1.0370 n1        1 DKY     -0.223000
      5 O2          2.6440   -2.6320    1.5950 oh        1 DKY     -0.322000
      6 C3          3.0930   -1.2140    3.4660 c3        1 DKY     -0.005000
      7 F3          4.5000   -1.2430    3.1910 f         1 DKY     -0.153000
      8 N3         -1.6790   -0.3700   -2.7310 n         1 DKY     -0.330000
      9 C4          2.7950   -0.0030    4.2750 c3        1 DKY     -0.023000
     10 O4          3.4640   -0.1140    5.5110 oh        1 DKY     -0.296000
     11 C5          1.2430    0.2270    4.5590 c3        1 DKY     -0.038000
     12 O5          0.6130    0.1330    3.1170 os        1 DKY     -0.274000
     13 C6          1.0310    1.4220    5.0920 c3        1 DKY     -0.011000
     14 O6         -0.3500    1.5960    5.3200 oh        1 DKY     -0.323000
     15 C7         -0.4210   -1.9940    0.5200 c2        1 DKY      0.072000
     16 C8         -1.0950   -1.8310   -0.7760 c1        1 DKY     -0.336000
     17 C9         -0.9230   -0.5870   -1.5390 c1        1 DKY      0.229000
     18 C10         0.6460    0.2430    0.2190 c1        1 DKY      0.361000
     19 O10         1.3660    1.1240    0.6450 o         1 DKY     -0.318000
     20 C11        -1.4010    0.7550   -3.5540 c2        1 DKY      0.354000
     21 O11        -0.5200    1.5320   -3.2430 o         1 DKY     -0.265000
     22 C12        -2.2290    1.0050   -4.8010 c2        1 DKY     -0.134000
     23 C13        -2.2810    2.2750   -5.3540 c2        1 DKY     -0.077000
     24 C14        -2.9810    2.4900   -6.5310 c1        1 DKY     -0.135000
     25 C15        -3.6280    1.4360   -7.1550 c1        1 DKY     -0.121000
     26 C16        -3.5770    0.1670   -6.6030 c1        1 DKY     -0.121000
     27 C17        -2.8770   -0.0490   -5.4250 c1        1 DKY     -0.104000
     28 H1          0.6020   -1.8490    2.8000 h2        1 DKY      0.099000
     29 H2          2.7570   -0.5660    1.6510 h1        1 DKY      0.153000
     30 HO2         3.3410   -2.5800    1.0480 ho        1 DKY      0.223000
     31 H3          2.8590   -2.0070    3.9900 h1        1 DKY      0.098000
     32 HN3        -2.3310   -0.9610   -2.9710 hn        1 DKY      0.241000
     33 H4          3.1430    0.7790    3.8020 h1        1 DKY      0.157000
     34 HO4         3.2380   -0.8820    5.9020 ho        1 DKY      0.200000
     35 H5          0.8900   -0.4780    5.1360 h1        1 DKY      0.089000
     36 H6          1.5150    1.4910    5.9430 h1        1 DKY      0.111000
     37 H6A         1.3500    2.1160    4.4770 h1        1 DKY      0.111000
     38 HO6        -0.4770    2.3080    5.8380 ho        1 DKY      0.212000
     39 H7         -0.5330   -2.8200    1.0290 h4        1 DKY      0.158000
     40 H8         -1.6740   -2.5390   -1.1190 ha        1 DKY      0.156000
     41 H13        -1.8250    3.0180   -4.9140 ha        1 DKY      0.156000
     42 H14        -3.0170    3.3850   -6.9200 ha        1 DKY      0.142000
     43 H15        -4.1210    1.5880   -7.9850 ha        1 DKY      0.138500
     44 H16        -4.0330   -0.5760   -7.0430 ha        1 DKY      0.138500
     45 H17        -2.8400   -0.9430   -5.0370 ha        1 DKY      0.137000
@<TRIPOS>BOND
     1    1    2 1   
     2    1    3 1   
     3    1   12 1   
     4    1   28 1   
     5    2   15 1   
     6    2   18 1   
     7    3    5 1   
     8    3    6 1   
     9    3   29 1   
    10    4   17 1   
    11    5   30 1   
    12    6    7 1   
    13    6    9 1   
    14    6   31 1   
    15    8   17 1   
    16    8   20 1   
    17    8   32 1   
    18    9   10 1   
    19    9   11 1   
    20    9   33 1   
    21   10   34 1   
    22   11   12 1   
    23   11   13 1   
    24   11   35 1   
    25   13   14 1   
    26   13   36 1   
    27   13   37 1   
    28   14   38 1   
    29   15   16 1   
    30   15   39 1   
    31   16   40 1   
    32   18   19 1   
    33   20   21 1   
    34   20   22 1   
    35   22   23 1   
    36   22   27 1   
    37   23   24 1   
    38   23   41 1   
    39   24   42 1   
    40   25   26 1   
    41   25   43 1   
    42   26   44 1   
    43   27   45 1   
@<TRIPOS>SUBSTRUCTURE
     1 DKY         1 TEMP              0 ****  ****    0 ROOT
