@<TRIPOS>MOLECULE
DKY
   46    46     1     0     0
SMALL
bcc


@<TRIPOS>ATOM
      1 C1          0.9110   -1.3500    1.2650 c2        1 DKY     -0.034900
      2 N1         -1.5130    0.4680   -0.7190 ns        1 DKY     -0.401500
      3 C2          2.2320   -1.0850    1.1950 c2        1 DKY     -0.033100
      4 N2         -1.1640    1.4250   -2.9320 ns        1 DKY     -0.434100
      5 O2          3.0630   -2.0620    0.6970 oh        1 DKY     -0.481100
      6 C3          2.8370    0.2040    1.6900 c3        1 DKY      0.150800
      7 F3          3.8500    0.6490    0.8550 f         1 DKY     -0.227300
      8 C4          1.7140    1.2650    1.8050 c3        1 DKY      0.085100
      9 O4          2.1270    2.3640    2.5900 oh        1 DKY     -0.585800
     10 C5          0.5110    0.6300    2.5190 c3        1 DKY      0.097100
     11 O5         -0.0250   -0.4390    1.7190 os        1 DKY     -0.359900
     12 C6         -0.6280    1.6260    2.7360 c3        1 DKY      0.131400
     13 O6         -1.0930    2.1760    1.5200 oh        1 DKY     -0.630800
     14 C7         -2.4300   -0.3820   -1.2430 cc        1 DKY      0.366800
     15 C8         -2.7420   -0.3780   -2.5910 cc        1 DKY     -0.442600
     16 C9         -2.0900    0.5620   -3.4750 cd        1 DKY      0.349200
     17 C10        -0.8500    1.4110   -1.5410 c         1 DKY      0.800500
     18 O10        -0.0110    2.2050   -1.0910 o         1 DKY     -0.550500
     19 C11        -1.8860    1.4070   -5.8380 c         1 DKY      0.750300
     20 O11        -1.0310    2.2580   -5.5570 o         1 DKY     -0.530100
     21 C12        -2.4240    1.1670   -7.1210 cg        1 DKY     -0.295200
     22 C13        -1.2290    3.0140   -9.9690 c2        1 DKY     -0.142000
     23 C14        -2.2780    2.7170  -10.7420 ce        1 DKY     -0.189000
     24 C15        -3.1220    1.5530  -10.6160 ce        1 DKY      0.009000
     25 C16        -3.3620    0.8070   -9.5170 cf        1 DKY     -0.136700
     26 C17        -2.8390    1.0230   -8.2420 ch        1 DKY      0.095700
     27 H1         -1.2910    0.5040    0.2760 hn        1 DKY      0.428500
     28 H2          0.4300   -2.2940    0.9740 h4        1 DKY      0.185000
     29 HO2         3.9310   -1.6560    0.5400 ho        1 DKY      0.438000
     30 H3          3.2860    0.0290    2.7150 h1        1 DKY      0.097700
     31 HN3        -0.6740    2.1110   -3.4920 hn        1 DKY      0.409500
     32 H4          1.4210    1.6130    0.7730 h1        1 DKY      0.071700
     33 HO4         2.9340    2.7120    2.1830 ho        1 DKY      0.430000
     34 H5         -1.5200    1.1010    3.1740 h1        1 DKY      0.082700
     35 H6          0.8340    0.2080    3.5110 h1        1 DKY      0.088700
     36 H6A        -0.2640    2.4310    3.4300 h1        1 DKY      0.082700
     37 HO6        -0.4220    2.7950    1.2010 ho        1 DKY      0.427000
     38 H7         -2.9190   -1.0890   -0.5360 h4        1 DKY      0.080800
     39 H8         -3.4850   -1.0860   -2.9860 ha        1 DKY      0.199000
     40 H13        -0.9000    2.3830   -9.1310 ha        1 DKY      0.127000
     41 H14        -0.6190    3.9130  -10.1430 ha        1 DKY      0.127000
     42 H15        -2.5460    3.3810  -11.5860 ha        1 DKY      0.149000
     43 H16        -3.6420    1.2620  -11.5530 ha        1 DKY      0.151000
     44 H17        -4.0450   -0.0640   -9.5880 ha        1 DKY      0.165000
     45 N3         -2.4150    0.5590   -4.8100 ns        1 DKY     -0.470100
     46 H32        -3.1050   -0.1140   -5.0920 hn        1 DKY      0.367500
@<TRIPOS>BOND
     1    1    3 2   
     2    1   11 1   
     3    1   28 1   
     4    2   14 2   
     5    2   17 1   
     6    2   27 1   
     7    3    5 1   
     8    3    6 1   
     9    4   16 1   
    10    4   17 1   
    11    4   31 1   
    12    5   29 1   
    13    6    7 1   
    14    6    8 1   
    15    6   30 1   
    16    8    9 1   
    17    8   10 1   
    18    8   32 1   
    19    9   33 1   
    20   10   11 1   
    21   10   12 1   
    22   10   35 1   
    23   12   13 1   
    24   12   34 1   
    25   12   36 1   
    26   13   37 1   
    27   14   15 1   
    28   14   38 1   
    29   15   16 2   
    30   15   39 1   
    31   16   45 1   
    32   17   18 2   
    33   19   20 2   
    34   19   21 1   
    35   19   45 1   
    36   21   26 3   
    37   22   23 2   
    38   22   40 1   
    39   22   41 1   
    40   23   24 1   
    41   23   42 1   
    42   24   25 2   
    43   24   43 1   
    44   25   26 1   
    45   25   44 1   
    46   45   46 1   
@<TRIPOS>SUBSTRUCTURE
     1 DKY         1 TEMP              0 ****  ****    0 ROOT
