@<TRIPOS>MOLECULE
DKY
   46    45     1     0     0
SMALL
bcc


@<TRIPOS>ATOM
      1 C1          0.5470   -1.1610    1.1080 c2        1 DKY     -0.036900
      2 N1         -0.0910    1.0920   -2.0880 nh        1 DKY     -0.051000
      3 C2          0.8070   -1.5180    2.3820 c2        1 DKY     -0.017100
      4 N2         -0.6920    1.9750   -2.8990 n2        1 DKY     -0.651800
      5 O2          0.8120   -2.8570    2.6930 oh        1 DKY     -0.479100
      6 C3          1.0150   -0.5150    3.4870 c3        1 DKY      0.150800
      7 F3          2.0150   -0.9150    4.3600 f         1 DKY     -0.221300
      8 C4          1.3590    0.8590    2.8580 c3        1 DKY      0.098100
      9 O4          1.1780    1.8940    3.8040 oh        1 DKY     -0.590800
     10 C5          0.3850    1.1430    1.7070 c3        1 DKY      0.103100
     11 O5          0.4990    0.1510    0.6720 os        1 DKY     -0.379900
     12 C6          0.7030    2.4890    1.0490 c3        1 DKY      0.124400
     13 O6         -0.3330    2.8760    0.1650 oh        1 DKY     -0.643800
     14 C7          0.6240    0.0270   -2.4920 ce        1 DKY      0.450500
     15 C8          1.0160   -0.4060   -3.7560 ce        1 DKY     -0.476600
     16 C9          0.5490   -0.1350   -5.0380 c2        1 DKY      0.196600
     17 C10        -0.5000    3.2480   -2.8530 c1        1 DKY      0.808900
     18 O10        -0.5750    4.4200   -2.9990 o         1 DKY     -0.301500
     19 C11        -0.9430    0.6120   -6.8090 c         1 DKY      0.724300
     20 O11        -0.1210    0.2780   -7.6680 o         1 DKY     -0.497100
     21 C12        -2.2220    1.1660   -7.0440 cg        1 DKY     -0.281200
     22 C13        -3.3180    1.7940  -10.4050 c2        1 DKY     -0.143000
     23 C14        -4.6120    1.9070  -10.0870 ce        1 DKY     -0.187000
     24 C15        -5.1410    2.2800   -8.7970 ce        1 DKY      0.001000
     25 C16        -4.5600    2.1600   -7.5850 cf        1 DKY     -0.129700
     26 C17        -3.2980    1.6250   -7.3240 ch        1 DKY      0.073700
     27 H1         -0.2870    1.1920   -1.0880 hn        1 DKY      0.359700
     28 H2          0.3540   -1.8550    0.2790 h4        1 DKY      0.179000
     29 HO2         1.3310   -2.9640    3.5080 ho        1 DKY      0.443000
     30 H3          0.0560   -0.4190    4.0800 h1        1 DKY      0.097700
     31 HN3         1.1900   -0.4970   -5.8870 h4        1 DKY      0.203000
     32 H4          2.4210    0.8490    2.4850 h1        1 DKY      0.074700
     33 HO4         1.7740    1.7070    4.5430 ho        1 DKY      0.435000
     34 H5          0.8590    3.2570    1.8540 h1        1 DKY      0.084200
     35 H6         -0.6730    1.1290    2.0890 h1        1 DKY      0.077700
     36 H6A         1.6190    2.4100    0.4050 h1        1 DKY      0.084200
     37 HO6        -1.0860    3.1580    0.7000 ho        1 DKY      0.429000
     38 H7          0.9970   -0.5670   -1.6130 h4        1 DKY      0.066800
     39 H8          1.8640   -1.1250   -3.7330 ha        1 DKY      0.189000
     40 H13        -2.5040    1.9740   -9.6900 ha        1 DKY      0.127000
     41 H14        -2.9950    1.5220  -11.4200 ha        1 DKY      0.127000
     42 H15        -5.3850    1.7320  -10.8600 ha        1 DKY      0.146000
     43 H16        -6.1660    2.7050   -8.8320 ha        1 DKY      0.148000
     44 H17        -5.1100    2.4960   -6.6830 ha        1 DKY      0.160000
     45 N3         -0.6030    0.4380   -5.4160 n         1 DKY     -0.431100
     46 H32        -1.2860    0.7420   -4.7510 hn        1 DKY      0.356500
@<TRIPOS>BOND
     1    1    3 2   
     2    1   11 1   
     3    1   28 1   
     4    2    4 1   
     5    2   14 2   
     6    2   27 1   
     7    3    5 1   
     8    3    6 1   
     9    4   17 2   
    10    5   29 1   
    11    6    7 1   
    12    6    8 1   
    13    6   30 1   
    14    8    9 1   
    15    8   10 1   
    16    8   32 1   
    17    9   33 1   
    18   10   11 1   
    19   10   12 1   
    20   10   35 1   
    21   12   13 1   
    22   12   34 1   
    23   12   36 1   
    24   13   37 1   
    25   14   15 1   
    26   14   38 1   
    27   15   16 2   
    28   15   39 1   
    29   16   31 1   
    30   16   45 1   
    31   17   18 2   
    32   19   20 2   
    33   19   21 1   
    34   19   45 1   
    35   21   26 3   
    36   22   23 2   
    37   22   40 1   
    38   22   41 1   
    39   23   24 1   
    40   23   42 1   
    41   24   25 2   
    42   24   43 1   
    43   25   26 1   
    44   25   44 1   
    45   45   46 1   
@<TRIPOS>SUBSTRUCTURE
     1 DKY         1 TEMP              0 ****  ****    0 ROOT
