@<TRIPOS>MOLECULE
DKZ
   33    34     1     0     0
SMALL
bcc


@<TRIPOS>ATOM
      1 C1         -0.1200    0.2580    0.6060 c3        1 DKZ      0.326500
      2 N1          1.3020    0.1030    0.3640 n         1 DKZ     -0.376000
      3 C2         -0.7390    1.5230   -0.0510 c3        1 DKZ      0.080100
      4 N2          3.2070   -0.2210   -1.1780 nc        1 DKZ     -0.724100
      5 O2         -0.1680    2.6350    0.6140 oh        1 DKZ     -0.592800
      6 C3         -2.2680    1.5240    0.1800 c3        1 DKZ      0.093600
      7 F3         -2.8500    2.6030   -0.4670 f         1 DKZ     -0.239300
      8 C4         -2.8680    0.1960   -0.3310 c3        1 DKZ      0.090100
      9 O4         -4.2390    0.1090    0.0120 oh        1 DKZ     -0.589800
     10 C5         -2.1550   -0.9750    0.3580 c3        1 DKZ      0.110100
     11 O5         -0.7550   -0.9250    0.0880 os        1 DKZ     -0.424600
     12 C6         -2.6330   -2.3170   -0.2080 c3        1 DKZ      0.141400
     13 O6         -2.0530   -3.3950    0.4910 oh        1 DKZ     -0.594800
     14 C7          2.1450   -0.1150    1.4290 cc        1 DKZ      0.076600
     15 C8          3.4830   -0.3490    1.2590 cd        1 DKZ     -0.422600
     16 C9          4.0040   -0.3920   -0.1090 cd        1 DKZ      0.758500
     17 C10         1.8440    0.0360   -0.9820 c         1 DKZ      0.849900
     18 O10         1.0630    0.2250   -1.9340 o         1 DKZ     -0.615500
     19 H1         -0.3040    0.3140    1.7230 h2        1 DKZ      0.061700
     20 H2         -0.5200    1.5480   -1.1550 h1        1 DKZ      0.112700
     21 HO2        -0.4140    3.4160    0.1010 ho        1 DKZ      0.422000
     22 H3         -2.4790    1.6280    1.2840 h1        1 DKZ      0.076700
     23 HN3         5.8910   -0.8820    0.4880 hn        1 DKZ      0.439800
     24 HN3A        5.7250   -0.7080   -1.1990 hn        1 DKZ      0.439800
     25 H4         -2.7390    0.1290   -1.4470 h1        1 DKZ      0.073700
     26 HO4        -4.6730    0.8660   -0.4050 ho        1 DKZ      0.419000
     27 H5         -2.3320   -0.9370    1.4690 h1        1 DKZ      0.066700
     28 H6         -3.7400   -2.4070   -0.0410 h1        1 DKZ      0.068200
     29 H6A        -2.3940   -2.3770   -1.3020 h1        1 DKZ      0.068200
     30 HO6        -1.1000   -3.3520    0.3350 ho        1 DKZ      0.412000
     31 H7          1.6990   -0.0790    2.4420 h4        1 DKZ      0.157000
     32 H8          4.1440   -0.4930    2.1190 ha        1 DKZ      0.156000
     33 N3          5.3550   -0.5850   -0.2880 nh        1 DKZ     -0.920800
@<TRIPOS>BOND
     1    1    2 1   
     2    1    3 1   
     3    1   11 1   
     4    1   19 1   
     5    2   14 1   
     6    2   17 1   
     7    3    5 1   
     8    3    6 1   
     9    3   20 1   
    10    4   16 2   
    11    4   17 1   
    12    5   21 1   
    13    6    7 1   
    14    6    8 1   
    15    6   22 1   
    16    8    9 1   
    17    8   10 1   
    18    8   25 1   
    19    9   26 1   
    20   10   11 1   
    21   10   12 1   
    22   10   27 1   
    23   12   13 1   
    24   12   28 1   
    25   12   29 1   
    26   13   30 1   
    27   14   15 2   
    28   14   31 1   
    29   15   16 1   
    30   15   32 1   
    31   16   33 1   
    32   17   18 2   
    33   23   33 1   
    34   24   33 1   
@<TRIPOS>SUBSTRUCTURE
     1 DKZ         1 TEMP              0 ****  ****    0 ROOT
