@<TRIPOS>MOLECULE
DKZ
   34    33     1     0     0
SMALL
bcc


@<TRIPOS>ATOM
      1 C1          0.7510   -1.5040    0.3800 c2        1 DKZ     -0.157000
      2 N1         -0.7370   -0.2680   -1.9860 ny        1 DKZ     -0.142000
      3 C2          1.8250   -0.8060    0.8090 c2        1 DKZ     -0.032000
      4 N2         -1.1940    1.6330   -3.6290 n2        1 DKZ     -0.277000
      5 O2          3.0610   -1.1880    0.3490 oh        1 DKZ     -0.240000
      6 C3          1.7310    0.3460    1.7810 c3        1 DKZ      0.023000
      7 F3          2.5950    1.3680    1.4230 f         1 DKZ     -0.153000
      8 C4          0.2630    0.8510    1.8590 c3        1 DKZ      0.003000
      9 O4          0.0560    1.5450    3.0590 oh        1 DKZ     -0.365000
     10 C5         -0.6810   -0.3550    1.8830 c3        1 DKZ     -0.031000
     11 O5         -0.5490   -1.1380    0.6890 os        1 DKZ     -0.271000
     12 C6          0.9680    4.1670    3.2390 c1        1 DKZ     -0.097000
     13 O6          0.7860    4.6590    4.4330 oh        1 DKZ     -0.182000
     14 C7         -1.0860   -1.1710   -3.0570 c2        1 DKZ     -0.082000
     15 C8         -1.4360   -0.7440   -4.2830 c2        1 DKZ     -0.157000
     16 C9         -1.4790    0.7160   -4.5800 c2        1 DKZ      0.253000
     17 C10        -0.8480    1.2670   -2.3580 c2        1 DKZ      0.342000
     18 O10        -0.5880    1.9750   -1.3930 o         1 DKZ     -0.193000
     19 H1          0.2290   -0.4580   -1.6700 hn        1 DKZ      0.283000
     20 H2          0.7820   -2.4310   -0.2070 h4        1 DKZ      0.177000
     21 HO2         3.7230   -0.6000    0.7480 ho        1 DKZ      0.246000
     22 H3          2.0360   -0.0270    2.8070 h1        1 DKZ      0.141000
     23 HN3        -1.6960   -1.4670   -5.0760 ha        1 DKZ      0.199000
     24 HN3A       -2.0270    0.4410   -6.5250 hn        1 DKZ      0.275500
     25 H4          0.0540    1.5020    0.9640 h1        1 DKZ      0.097000
     26 HO4         0.4600    2.4510    2.9680 ho        1 DKZ      0.275000
     27 H5         -1.7520   -0.0250    1.8810 h1        1 DKZ      0.124500
     28 H6         -0.4770   -1.0020    2.7750 h1        1 DKZ      0.124500
     29 H6A         1.4320    4.9390    2.5820 ha        1 DKZ      0.073000
     30 HO6         0.3790    3.9780    5.0050 ho        1 DKZ      0.258000
     31 H7         -1.3420   -0.4470   -1.1630 hn        1 DKZ      0.283000
     32 H8         -1.0420   -2.2480   -2.7870 hx        1 DKZ      0.207000
     33 N3         -1.8130    1.1160   -5.8260 nv        1 DKZ     -0.283000
     34 H33        -1.8530    2.0850   -6.0660 hn        1 DKZ      0.275500
@<TRIPOS>BOND
     1    1    3 1   
     2    1   11 1   
     3    1   20 1   
     4    2   14 1   
     5    2   17 1   
     6    2   19 1   
     7    2   31 1   
     8    3    5 1   
     9    3    6 1   
    10    4   16 1   
    11    4   17 1   
    12    5   21 1   
    13    6    7 1   
    14    6    8 1   
    15    6   22 1   
    16    8    9 1   
    17    8   10 1   
    18    8   25 1   
    19    9   26 1   
    20   10   11 1   
    21   10   27 1   
    22   10   28 1   
    23   12   13 1   
    24   12   29 1   
    25   13   30 1   
    26   14   15 1   
    27   14   32 1   
    28   15   16 1   
    29   15   23 1   
    30   16   33 1   
    31   17   18 1   
    32   24   33 1   
    33   33   34 1   
@<TRIPOS>SUBSTRUCTURE
     1 DKZ         1 TEMP              0 ****  ****    0 ROOT
