@<TRIPOS>MOLECULE
DKZ
   34    34     1     0     0
SMALL
bcc


@<TRIPOS>ATOM
      1 C1          1.4750   -0.9680    0.2420 c2        1 DKZ     -0.025900
      2 N1         -1.7100    1.0100   -1.4800 n4        1 DKZ     -0.631600
      3 C2          2.5460   -1.0910    1.0510 c2        1 DKZ     -0.022100
      4 N2         -1.1650    1.7570   -3.8600 nc        1 DKZ     -0.704100
      5 O2          3.4240   -2.1230    0.8160 oh        1 DKZ     -0.480100
      6 C3          2.7800   -0.1960    2.2410 c3        1 DKZ      0.152800
      7 F3          4.1220    0.1100    2.3950 f         1 DKZ     -0.221300
      8 C4          1.9440    1.0970    2.0620 c3        1 DKZ      0.098100
      9 O4          1.8300    1.7850    3.2920 oh        1 DKZ     -0.590800
     10 C5          0.5170    0.7200    1.6410 c3        1 DKZ      0.108100
     11 O5          0.5040    0.0060    0.3940 os        1 DKZ     -0.387900
     12 C6         -0.3270    1.9780    1.4180 c3        1 DKZ      0.116400
     13 O6         -1.6890    1.6380    1.2310 oh        1 DKZ     -0.660800
     14 C7         -2.5500   -0.0020   -2.0750 cc        1 DKZ      0.003000
     15 C8         -2.6920   -0.1400   -3.4050 cd        1 DKZ     -0.248600
     16 C9         -1.9660    0.7770   -4.3290 cd        1 DKZ      0.777500
     17 C10        -0.9830    1.9510   -2.5160 c         1 DKZ      0.720500
     18 O10        -0.2980    2.7950   -1.9490 o         1 DKZ     -0.436100
     19 H1         -0.9870    0.5650   -0.8850 hn        1 DKZ      0.495800
     20 H2          1.2490   -1.6070   -0.6220 h4        1 DKZ      0.182000
     21 HO2         4.2800   -1.8670    1.1980 ho        1 DKZ      0.442000
     22 H3          2.4370   -0.7320    3.1780 h1        1 DKZ      0.097700
     23 HN3        -3.3420   -0.9280   -3.8220 ha        1 DKZ      0.198000
     24 HN3A       -1.6560    1.2070   -6.3160 hn        1 DKZ      0.479300
     25 H4          2.4250    1.7540    1.2860 h1        1 DKZ      0.077700
     26 HO4         2.7290    2.0100    3.5720 ho        1 DKZ      0.435000
     27 H5         -0.1930    2.6640    2.2960 h1        1 DKZ      0.090200
     28 H6          0.0480    0.0590    2.4230 h1        1 DKZ      0.078700
     29 H6A        -0.0240    2.4990    0.4680 h1        1 DKZ      0.090200
     30 HO6        -2.0650    1.4270    2.0940 ho        1 DKZ      0.435000
     31 H7         -2.2710    1.6030   -0.8440 hn        1 DKZ      0.495800
     32 H8         -3.0680   -0.6610   -1.3450 hx        1 DKZ      0.205000
     33 N3         -2.1240    0.6130   -5.6620 nh        1 DKZ     -0.847800
     34 H33        -2.7160   -0.1070   -6.0080 hn        1 DKZ      0.479300
@<TRIPOS>BOND
     1    1    3 2   
     2    1   11 1   
     3    1   20 1   
     4    2   14 1   
     5    2   17 1   
     6    2   19 1   
     7    2   31 1   
     8    3    5 1   
     9    3    6 1   
    10    4   16 2   
    11    4   17 1   
    12    5   21 1   
    13    6    7 1   
    14    6    8 1   
    15    6   22 1   
    16    8    9 1   
    17    8   10 1   
    18    8   25 1   
    19    9   26 1   
    20   10   11 1   
    21   10   12 1   
    22   10   28 1   
    23   12   13 1   
    24   12   27 1   
    25   12   29 1   
    26   13   30 1   
    27   14   15 2   
    28   14   32 1   
    29   15   16 1   
    30   15   23 1   
    31   16   33 1   
    32   17   18 2   
    33   24   33 1   
    34   33   34 1   
@<TRIPOS>SUBSTRUCTURE
     1 DKZ         1 TEMP              0 ****  ****    0 ROOT
