@<TRIPOS>MOLECULE
DKZ
   33    32     1     0     0
SMALL
bcc


@<TRIPOS>ATOM
      1 C1          0.0520   -0.8340   -1.3260 c3        1 DKZ      0.124000
      2 N1         -0.4520    0.4600   -0.8420 n3        1 DKZ     -0.304000
      3 C2          1.4640   -0.8090   -1.2840 c3        1 DKZ     -0.016000
      4 N2         -0.0800    2.9660   -0.6360 n1        1 DKZ     -0.298000
      5 O2          1.9930   -2.0620   -2.0240 oh        1 DKZ     -0.333000
      6 C3          2.0110   -0.8040    0.0250 c3        1 DKZ      0.015000
      7 F3          1.7200    0.4370    0.6290 f         1 DKZ     -0.169000
      8 N3         -1.9550    4.4390   -0.1100 n3        1 DKZ     -0.360000
      9 C4          1.4740   -1.9010    0.9020 c3        1 DKZ     -0.018000
     10 O4          1.9100   -3.1380    0.3850 oh        1 DKZ     -0.298000
     11 C5         -0.0970   -1.9310    1.0110 c3        1 DKZ     -0.047000
     12 O5         -0.5500   -1.9120   -0.5130 os        1 DKZ     -0.268000
     13 C6         -0.5500   -0.8680    1.6530 c3        1 DKZ     -0.044000
     14 O6         -1.6970   -1.2330    2.4230 oh        1 DKZ     -0.315000
     15 C7         -1.8340    0.6380   -0.6270 c2        1 DKZ      0.072000
     16 C8         -2.3750    1.9890   -0.4270 c1        1 DKZ     -0.345000
     17 C9         -1.4610    3.1550   -0.4200 c1        1 DKZ      0.239000
     18 C10         0.4600    1.6220   -0.7820 c1        1 DKZ      0.362000
     19 O10         1.6450    1.4670   -0.9670 o         1 DKZ     -0.385000
     20 H1         -0.2320   -0.9520   -2.2620 h2        1 DKZ      0.146000
     21 H2          1.7740   -0.0170   -1.7520 h1        1 DKZ      0.127000
     22 HO2         2.3630   -1.8140   -2.8100 ho        1 DKZ      0.248000
     23 H3          2.9930   -0.9020   -0.0410 h1        1 DKZ      0.147000
     24 HN3        -2.8370    4.5690   -0.0150 hn        1 DKZ      0.239500
     25 HN3A       -1.3820    5.1490   -0.0650 hn        1 DKZ      0.239500
     26 H4          1.8470   -1.7890    1.8050 h1        1 DKZ      0.146000
     27 HO4         2.2670   -3.6360    1.0500 ho        1 DKZ      0.218000
     28 H5         -0.3920   -2.7400    1.4410 h1        1 DKZ      0.149000
     29 H6          0.1620   -0.5140    2.2630 h1        1 DKZ      0.095000
     30 H6A        -0.7940   -0.1850    1.0130 h1        1 DKZ      0.095000
     31 HO6        -1.6660   -0.8280    3.2090 ho        1 DKZ      0.212000
     32 H7         -2.4360   -0.1380   -0.6320 h4        1 DKZ      0.171000
     33 H8         -3.3440    2.1170   -0.2760 ha        1 DKZ      0.157000
@<TRIPOS>BOND
     1    1    2 1   
     2    1    3 1   
     3    1   12 1   
     4    1   20 1   
     5    2   15 1   
     6    2   18 1   
     7    3    5 1   
     8    3    6 1   
     9    3   21 1   
    10    4   17 1   
    11    5   22 1   
    12    6    7 1   
    13    6    9 1   
    14    6   23 1   
    15    8   17 1   
    16    8   24 1   
    17    8   25 1   
    18    9   10 1   
    19    9   11 1   
    20    9   26 1   
    21   10   27 1   
    22   11   12 1   
    23   11   13 1   
    24   11   28 1   
    25   13   14 1   
    26   13   29 1   
    27   13   30 1   
    28   14   31 1   
    29   15   16 1   
    30   15   32 1   
    31   16   33 1   
    32   18   19 1   
@<TRIPOS>SUBSTRUCTURE
     1 DKZ         1 TEMP              0 ****  ****    0 ROOT
