@<TRIPOS>MOLECULE
DL4
   71    74     1     0     0
SMALL
bcc


@<TRIPOS>ATOM
      1 O3          0.3220   -0.0630   -0.7460 o         1 DL4     -0.847800
      2 C27         1.5460   -0.3220   -0.5620 c         1 DL4      0.913600
      3 O2          2.2720   -0.9160   -1.4090 o         1 DL4     -0.847800
      4 C25         2.1650    0.0880    0.8010 c3        1 DL4     -0.187700
      5 C26         1.7500    1.4960    1.1540 c3        1 DL4     -0.065100
      6 C24         3.6720   -0.0720    0.7940 c3        1 DL4     -0.065400
      7 C23         4.2510   -0.1660    2.1920 c3        1 DL4     -0.078400
      8 C22         5.7580   -0.3150    2.1500 c3        1 DL4     -0.079400
      9 C20         6.3660   -0.4340    3.5470 c3        1 DL4     -0.058700
     10 C21         6.1990   -1.8560    4.0480 c3        1 DL4     -0.089100
     11 C17         7.8310   -0.0130    3.5260 c3        1 DL4     -0.050700
     12 C16         8.0070    1.4440    3.0470 c3        1 DL4     -0.079400
     13 C15         9.1840    2.0490    3.8160 c3        1 DL4     -0.073400
     14 C14         9.8030    0.8670    4.5460 c3        1 DL4     -0.067700
     15 C8         10.6730    1.1210    5.7590 c3        1 DL4     -0.049700
     16 C7         11.8160    2.0620    5.4200 c3        1 DL4     -0.073400
     17 C6         12.7070    2.2710    6.6250 c3        1 DL4     -0.055200
     18 C13         8.5950   -0.0490    4.8740 c3        1 DL4     -0.045000
     19 C18         7.7190    0.5130    5.9800 c3        1 DL4     -0.082100
     20 C12         9.1730   -1.3950    5.2800 c3        1 DL4     -0.066400
     21 C11        10.1240   -1.2500    6.4580 c3        1 DL4     -0.074400
     22 C9         11.2330   -0.2290    6.2310 c3        1 DL4     -0.046700
     23 C10        12.1470   -0.0790    7.4680 c3        1 DL4     -0.017800
     24 C1         12.8230   -1.4350    7.7210 c3        1 DL4     -0.070400
     25 C19        11.3610    0.3270    8.7120 c3        1 DL4     -0.085100
     26 C5         13.1870    0.9830    7.2040 c2        1 DL4     -0.016400
     27 C4         14.4860    0.8310    7.5190 ce        1 DL4     -0.276200
     28 C3         15.0260   -0.3640    8.1760 c         1 DL4      0.572300
     29 O1         16.2400   -0.5330    8.3530 o         1 DL4     -0.547100
     30 C2         14.0060   -1.3550    8.6580 c3        1 DL4     -0.182400
     31 H25         1.7270   -0.6180    1.5600 hc        1 DL4      0.027700
     32 H26         2.2390    2.2330    0.4730 hc        1 DL4      0.015033
     33 H26A        2.0320    1.7490    2.2060 hc        1 DL4      0.015033
     34 H26B        0.6420    1.5940    1.0390 hc        1 DL4      0.015033
     35 H24         3.9280   -0.9990    0.2120 hc        1 DL4      0.047700
     36 H24A        4.1380    0.7910    0.2520 hc        1 DL4      0.047700
     37 H23         3.9820    0.7530    2.7760 hc        1 DL4      0.026200
     38 H23A        3.7950   -1.0400    2.7260 hc        1 DL4      0.026200
     39 H22         6.1880    0.5720    1.6150 hc        1 DL4      0.039200
     40 H22A        6.0300   -1.2220    1.5480 hc        1 DL4      0.039200
     41 H20         5.8030    0.2590    4.2350 hc        1 DL4      0.047700
     42 H21         5.1800   -2.2380    3.7930 hc        1 DL4      0.030700
     43 H21A        6.3190   -1.9080    5.1570 hc        1 DL4      0.030700
     44 H21B        6.9550   -2.5300    3.5770 hc        1 DL4      0.030700
     45 H17         8.3700   -0.6950    2.8120 hc        1 DL4      0.045700
     46 H16         8.2060    1.4630    1.9470 hc        1 DL4      0.049700
     47 H16A        7.0760    2.0330    3.2360 hc        1 DL4      0.049700
     48 H15         9.9190    2.5310    3.1270 hc        1 DL4      0.036700
     49 H15A        8.8330    2.8260    4.5390 hc        1 DL4      0.036700
     50 H14        10.4430    0.3170    3.7920 hc        1 DL4      0.046700
     51 H8         10.0570    1.5870    6.5760 hc        1 DL4      0.055700
     52 H7         12.4150    1.6430    4.5710 hc        1 DL4      0.048200
     53 H7A        11.4000    3.0480    5.0850 hc        1 DL4      0.048200
     54 H6         13.5750    2.9210    6.3380 hc        1 DL4      0.052700
     55 H6A        12.1320    2.8140    7.4260 hc        1 DL4      0.052700
     56 H18         7.2920    1.4980    5.6700 hc        1 DL4      0.034367
     57 H18A        6.8770   -0.1880    6.1960 hc        1 DL4      0.034367
     58 H18B        8.2930    0.6610    6.9260 hc        1 DL4      0.034367
     59 H12         8.3510   -2.1020    5.5640 hc        1 DL4      0.045200
     60 H12A        9.7160   -1.8460    4.4090 hc        1 DL4      0.045200
     61 H11         9.5330   -0.9680    7.3690 hc        1 DL4      0.038700
     62 H11A       10.5880   -2.2520    6.6570 hc        1 DL4      0.038700
     63 H9         11.8840   -0.6210    5.3950 hc        1 DL4      0.050700
     64 H1         12.0690   -2.1430    8.1550 hc        1 DL4      0.051200
     65 H1A        13.1630   -1.8630    6.7410 hc        1 DL4      0.051200
     66 H19        10.7310    1.2250    8.5060 hc        1 DL4      0.039700
     67 H19A       12.0610    0.5690    9.5470 hc        1 DL4      0.039700
     68 H19B       10.6960   -0.5070    9.0430 hc        1 DL4      0.039700
     69 H4         15.2250    1.6200    7.3000 ha        1 DL4      0.145000
     70 H2         13.6710   -1.0310    9.6810 hc        1 DL4      0.068700
     71 H2A        14.4780   -2.3670    8.7620 hc        1 DL4      0.068700
@<TRIPOS>BOND
     1    1    2 1   
     2    2    3 1   
     3    2    4 1   
     4    4    5 1   
     5    4    6 1   
     6    4   31 1   
     7    5   32 1   
     8    5   33 1   
     9    5   34 1   
    10    6    7 1   
    11    6   35 1   
    12    6   36 1   
    13    7    8 1   
    14    7   37 1   
    15    7   38 1   
    16    8    9 1   
    17    8   39 1   
    18    8   40 1   
    19    9   10 1   
    20    9   11 1   
    21    9   41 1   
    22   10   42 1   
    23   10   43 1   
    24   10   44 1   
    25   11   12 1   
    26   11   18 1   
    27   11   45 1   
    28   12   13 1   
    29   12   46 1   
    30   12   47 1   
    31   13   14 1   
    32   13   48 1   
    33   13   49 1   
    34   14   15 1   
    35   14   18 1   
    36   14   50 1   
    37   15   16 1   
    38   15   22 1   
    39   15   51 1   
    40   16   17 1   
    41   16   52 1   
    42   16   53 1   
    43   17   26 1   
    44   17   54 1   
    45   17   55 1   
    46   18   19 1   
    47   18   20 1   
    48   19   56 1   
    49   19   57 1   
    50   19   58 1   
    51   20   21 1   
    52   20   59 1   
    53   20   60 1   
    54   21   22 1   
    55   21   61 1   
    56   21   62 1   
    57   22   23 1   
    58   22   63 1   
    59   23   24 1   
    60   23   25 1   
    61   23   26 1   
    62   24   30 1   
    63   24   64 1   
    64   24   65 1   
    65   25   66 1   
    66   25   67 1   
    67   25   68 1   
    68   26   27 2   
    69   27   28 1   
    70   27   69 1   
    71   28   29 2   
    72   28   30 1   
    73   30   70 1   
    74   30   71 1   
@<TRIPOS>SUBSTRUCTURE
     1 DL4         1 TEMP              0 ****  ****    0 ROOT
