@<TRIPOS>MOLECULE
DL4
   71    74     1     0     0
SMALL
bcc


@<TRIPOS>ATOM
      1 O3         -9.7710    0.1320    0.1170 o         1 DL4     -0.847800
      2 C27        -8.6430    0.0410    0.6810 c         1 DL4      0.913600
      3 O2         -8.4930   -0.1320    1.9240 o         1 DL4     -0.847800
      4 C25        -7.3840    0.1910   -0.2140 c3        1 DL4     -0.187700
      5 C26        -7.5400   -0.6360   -1.4670 c3        1 DL4     -0.065100
      6 C24        -6.1210   -0.1660    0.5450 c3        1 DL4     -0.065400
      7 C23        -4.8780    0.4210   -0.0920 c3        1 DL4     -0.078400
      8 C22        -3.6340    0.0370    0.6820 c3        1 DL4     -0.079400
      9 C20        -2.3660    0.6360    0.0730 c3        1 DL4     -0.058700
     10 C21        -2.2370    2.0840    0.5070 c3        1 DL4     -0.089100
     11 C17        -1.1450   -0.1830    0.4760 c3        1 DL4     -0.050700
     12 C16        -1.2550   -1.6510    0.0120 c3        1 DL4     -0.079400
     13 C15         0.1510   -2.1310   -0.3540 c3        1 DL4     -0.073400
     14 C14         1.0660   -1.0140    0.1260 c3        1 DL4     -0.067700
     15 C8          2.4540   -0.8910   -0.4670 c3        1 DL4     -0.049700
     16 C7          3.2330   -2.1840   -0.2980 c3        1 DL4     -0.073400
     17 C6          4.6340   -2.0350   -0.8480 c3        1 DL4     -0.055200
     18 C13         0.2270    0.2740   -0.0790 c3        1 DL4     -0.045000
     19 C18         0.0900    0.6560   -1.5430 c3        1 DL4     -0.082100
     20 C12         0.9310    1.3750    0.6980 c3        1 DL4     -0.066400
     21 C11         2.3690    1.5420    0.2300 c3        1 DL4     -0.074400
     22 C9          3.1790    0.2510    0.2610 c3        1 DL4     -0.046700
     23 C10         4.6180    0.4560   -0.2660 c3        1 DL4     -0.017800
     24 C1          5.3220    1.4560    0.6640 c3        1 DL4     -0.070400
     25 C19         4.6310    1.0040   -1.6900 c3        1 DL4     -0.085100
     26 C5          5.3510   -0.8650   -0.2650 c2        1 DL4     -0.016400
     27 C4          6.6130   -1.0010    0.1800 ce        1 DL4     -0.276200
     28 C3          7.4210    0.1150    0.6810 c         1 DL4      0.572300
     29 O1          8.5370   -0.0500    1.1910 o         1 DL4     -0.547100
     30 C2          6.8230    1.4800    0.4990 c3        1 DL4     -0.182400
     31 H25        -7.3410    1.2780   -0.5020 hc        1 DL4      0.027700
     32 H26        -8.5340   -0.4180   -1.9320 hc        1 DL4      0.015033
     33 H26A       -6.7330   -0.4080   -2.2060 hc        1 DL4      0.015033
     34 H26B       -7.4980   -1.7260   -1.2270 hc        1 DL4      0.015033
     35 H24        -6.2230    0.2100    1.5990 hc        1 DL4      0.047700
     36 H24A       -6.0220   -1.2810    0.6050 hc        1 DL4      0.047700
     37 H23        -4.7870    0.0580   -1.1500 hc        1 DL4      0.026200
     38 H23A       -4.9730    1.5380   -0.1350 hc        1 DL4      0.026200
     39 H22        -3.7320    0.3800    1.7460 hc        1 DL4      0.039200
     40 H22A       -3.5610   -1.0820    0.7050 hc        1 DL4      0.039200
     41 H20        -2.4660    0.6040   -1.0490 hc        1 DL4      0.047700
     42 H21        -1.8580    2.1480    1.5560 hc        1 DL4      0.030700
     43 H21A       -1.5360    2.6420   -0.1590 hc        1 DL4      0.030700
     44 H21B       -3.2320    2.5910    0.4620 hc        1 DL4      0.030700
     45 H17        -1.0800   -0.1640    1.6000 hc        1 DL4      0.045700
     46 H16        -1.6830   -2.2800    0.8310 hc        1 DL4      0.049700
     47 H16A       -1.9350   -1.7310   -0.8720 hc        1 DL4      0.049700
     48 H15         0.3970   -3.0990    0.1450 hc        1 DL4      0.036700
     49 H15A        0.2490   -2.2820   -1.4580 hc        1 DL4      0.036700
     50 H14         1.1950   -1.1540    1.2400 hc        1 DL4      0.046700
     51 H8          2.3800   -0.6600   -1.5640 hc        1 DL4      0.055700
     52 H7          3.2760   -2.4640    0.7860 hc        1 DL4      0.048200
     53 H7A         2.7030   -3.0120   -0.8390 hc        1 DL4      0.048200
     54 H6          5.2100   -2.9810   -0.6620 hc        1 DL4      0.052700
     55 H6A         4.5850   -1.8880   -1.9630 hc        1 DL4      0.052700
     56 H18        -0.4360   -0.1530   -2.1060 hc        1 DL4      0.034367
     57 H18A       -0.5020    1.5990   -1.6400 hc        1 DL4      0.034367
     58 H18B        1.0850    0.8270   -2.0200 hc        1 DL4      0.034367
     59 H12         0.3930    2.3490    0.5670 hc        1 DL4      0.045200
     60 H12A        0.9150    1.1270    1.7920 hc        1 DL4      0.045200
     61 H11         2.3650    1.9600   -0.8100 hc        1 DL4      0.038700
     62 H11A        2.8650    2.2990    0.8940 hc        1 DL4      0.038700
     63 H9          3.2730   -0.0610    1.3420 hc        1 DL4      0.050700
     64 H1          4.9220    2.4850    0.4630 hc        1 DL4      0.051200
     65 H1A         5.0760    1.2000    1.7290 hc        1 DL4      0.051200
     66 H19         4.2500    2.0530   -1.7080 hc        1 DL4      0.039700
     67 H19A        5.6730    1.0020   -2.0930 hc        1 DL4      0.039700
     68 H19B        3.9910    0.3810   -2.3600 hc        1 DL4      0.039700
     69 H4          7.1160   -1.9830    0.1800 ha        1 DL4      0.145000
     70 H2          7.0960    1.8390   -0.5300 hc        1 DL4      0.068700
     71 H2A         7.2750    2.1950    1.2360 hc        1 DL4      0.068700
@<TRIPOS>BOND
     1    1    2 1   
     2    2    3 1   
     3    2    4 1   
     4    4    5 1   
     5    4    6 1   
     6    4   31 1   
     7    5   32 1   
     8    5   33 1   
     9    5   34 1   
    10    6    7 1   
    11    6   35 1   
    12    6   36 1   
    13    7    8 1   
    14    7   37 1   
    15    7   38 1   
    16    8    9 1   
    17    8   39 1   
    18    8   40 1   
    19    9   10 1   
    20    9   11 1   
    21    9   41 1   
    22   10   42 1   
    23   10   43 1   
    24   10   44 1   
    25   11   12 1   
    26   11   18 1   
    27   11   45 1   
    28   12   13 1   
    29   12   46 1   
    30   12   47 1   
    31   13   14 1   
    32   13   48 1   
    33   13   49 1   
    34   14   15 1   
    35   14   18 1   
    36   14   50 1   
    37   15   16 1   
    38   15   22 1   
    39   15   51 1   
    40   16   17 1   
    41   16   52 1   
    42   16   53 1   
    43   17   26 1   
    44   17   54 1   
    45   17   55 1   
    46   18   19 1   
    47   18   20 1   
    48   19   56 1   
    49   19   57 1   
    50   19   58 1   
    51   20   21 1   
    52   20   59 1   
    53   20   60 1   
    54   21   22 1   
    55   21   61 1   
    56   21   62 1   
    57   22   23 1   
    58   22   63 1   
    59   23   24 1   
    60   23   25 1   
    61   23   26 1   
    62   24   30 1   
    63   24   64 1   
    64   24   65 1   
    65   25   66 1   
    66   25   67 1   
    67   25   68 1   
    68   26   27 2   
    69   27   28 1   
    70   27   69 1   
    71   28   29 2   
    72   28   30 1   
    73   30   70 1   
    74   30   71 1   
@<TRIPOS>SUBSTRUCTURE
     1 DL4         1 TEMP              0 ****  ****    0 ROOT
