@<TRIPOS>MOLECULE
DL4
   71    73     1     0     0
SMALL
bcc


@<TRIPOS>ATOM
      1 O3         -7.2970    1.8470   -3.9630 o         1 DL4     -0.583500
      2 C27        -6.3720    2.6990   -4.1250 c2        1 DL4      0.332000
      3 O2         -6.1250    3.1430   -5.2670 o         1 DL4     -0.583500
      4 C25        -5.6040    3.2310   -2.9160 c3        1 DL4     -0.181000
      5 C26        -5.7590    4.7230   -2.8440 c3        1 DL4     -0.182000
      6 C24        -4.1390    2.8860   -3.0600 c3        1 DL4     -0.128000
      7 C23        -3.7500    1.8460   -2.0140 c3        1 DL4     -0.170000
      8 C22        -2.2390    1.5120   -2.1570 c3        1 DL4     -0.154000
      9 C20        -1.8330    0.4410   -1.0810 c3        1 DL4     -0.096000
     10 C21        -2.6820   -0.8310   -1.2720 c3        1 DL4     -0.212000
     11 C17        -0.4400    0.1120   -1.2290 c3        1 DL4     -0.090000
     12 C16         0.5150    1.5470   -1.5490 c3        1 DL4     -0.157000
     13 C15         1.8670    1.2830   -0.5540 c3        1 DL4     -0.152000
     14 C14         1.7890   -0.1110   -0.3330 c3        1 DL4     -0.107000
     15 C8          2.3970   -0.4620    0.4900 c3        1 DL4     -0.089000
     16 C7          3.4490   -0.2410    0.3330 c3        1 DL4     -0.152000
     17 C6          4.4000   -0.5650    1.5840 c3        1 DL4     -0.138000
     18 C13         0.0830   -0.3180   -0.0560 c3        1 DL4     -0.043000
     19 C18        -0.3680    0.6110    1.0680 c3        1 DL4     -0.200000
     20 C12        -0.2300   -1.5670    0.2530 c3        1 DL4     -0.145000
     21 C11         0.5190   -2.0030    1.2060 c3        1 DL4     -0.153000
     22 C9          2.0920   -1.7760    0.8770 c3        1 DL4     -0.086000
     23 C10         3.0380   -2.0270    2.1850 c3        1 DL4     -0.022000
     24 C1          2.7630   -3.5350    2.6860 c3        1 DL4     -0.149000
     25 C19         2.5400   -1.1030    3.2830 c3        1 DL4     -0.203000
     26 C5          4.2140   -1.7350    1.9800 c2        1 DL4     -0.007000
     27 C4          5.3780   -2.5580    2.8160 c1        1 DL4     -0.259000
     28 C3          4.8940   -3.7660    3.7090 c1        1 DL4      0.265000
     29 O1          5.6500   -4.2720    4.5000 o         1 DL4     -0.310000
     30 C2          3.4700   -3.9680    3.8370 c3        1 DL4     -0.210000
     31 H25        -5.9510    2.8330   -2.1140 hc        1 DL4      0.070000
     32 H26        -6.7110    4.9540   -2.8520 hc        1 DL4      0.054667
     33 H26A       -5.3460    5.0560   -2.0130 hc        1 DL4      0.054667
     34 H26B       -5.3210    5.1300   -3.6070 hc        1 DL4      0.054667
     35 H24        -3.9770    2.5240   -3.9560 hc        1 DL4      0.058000
     36 H24A       -3.6000    3.6940   -2.9320 hc        1 DL4      0.058000
     37 H23        -3.9240    2.2040   -1.1150 hc        1 DL4      0.098000
     38 H23A       -4.2770    1.0360   -2.1490 hc        1 DL4      0.098000
     39 H22        -2.0630    1.1480   -3.0730 hc        1 DL4      0.070000
     40 H22A       -1.7010    2.3440   -2.0200 hc        1 DL4      0.070000
     41 H20        -1.9890    0.8050   -0.1830 hc        1 DL4      0.088000
     42 H21        -3.2770   -0.9510   -0.4940 hc        1 DL4      0.076333
     43 H21A       -2.0950   -1.6020   -1.3530 hc        1 DL4      0.076333
     44 H21B       -3.2240   -0.7440   -2.0910 hc        1 DL4      0.076333
     45 H17        -0.3080   -0.5640   -1.9420 hc        1 DL4      0.084000
     46 H16         0.0280    2.3660   -1.2770 hc        1 DL4      0.085500
     47 H16A        0.7780    1.5900   -2.4960 hc        1 DL4      0.085500
     48 H15         2.6910    1.5160   -1.0170 hc        1 DL4      0.074000
     49 H15A        1.7840    1.7850    0.3030 hc        1 DL4      0.074000
     50 H14         2.0460   -0.5870   -1.1560 hc        1 DL4      0.084000
     51 H8          2.1360    0.0900    1.2530 hc        1 DL4      0.096000
     52 H7          3.7650   -0.7710   -0.4440 hc        1 DL4      0.086500
     53 H7A         3.5350    0.7100    0.1160 hc        1 DL4      0.086500
     54 H6          4.3630    0.0090    2.3840 hc        1 DL4      0.091500
     55 H6A         5.3230   -0.3940    1.2780 hc        1 DL4      0.091500
     56 H18         0.2920    0.5860    1.8000 hc        1 DL4      0.074667
     57 H18A       -0.4440    1.5360    0.7230 hc        1 DL4      0.074667
     58 H18B       -1.2430    0.3140    1.4050 hc        1 DL4      0.074667
     59 H12        -1.1580   -1.6020    0.5350 hc        1 DL4      0.086500
     60 H12A       -0.1110   -2.1330   -0.5350 hc        1 DL4      0.086500
     61 H11         0.3500   -2.9820    1.3320 hc        1 DL4      0.077500
     62 H11A        0.2900   -1.5250    2.0430 hc        1 DL4      0.077500
     63 H9          2.3610   -2.3890    0.1670 hc        1 DL4      0.089000
     64 H1          1.8200   -3.6200    2.8680 hc        1 DL4      0.091000
     65 H1A         2.9850   -4.1350    1.9590 hc        1 DL4      0.091000
     66 H19         2.4420   -0.2130    2.9340 hc        1 DL4      0.079333
     67 H19A        1.6780   -1.4210    3.6100 hc        1 DL4      0.079333
     68 H19B        3.1970   -1.0950    4.0330 hc        1 DL4      0.079333
     69 H4          6.2240   -2.1450    2.9880 ha        1 DL4      0.144000
     70 H2          3.3000   -4.8970    4.0820 hc        1 DL4      0.108000
     71 H2A         3.1120   -3.5060    4.6180 hc        1 DL4      0.108000
@<TRIPOS>BOND
     1    1    2 1   
     2    2    3 1   
     3    2    4 1   
     4    4    5 1   
     5    4    6 1   
     6    4   31 1   
     7    5   32 1   
     8    5   33 1   
     9    5   34 1   
    10    6    7 1   
    11    6   35 1   
    12    6   36 1   
    13    7    8 1   
    14    7   37 1   
    15    7   38 1   
    16    8    9 1   
    17    8   39 1   
    18    8   40 1   
    19    9   10 1   
    20    9   11 1   
    21    9   41 1   
    22   10   42 1   
    23   10   43 1   
    24   10   44 1   
    25   11   12 1   
    26   11   18 1   
    27   11   45 1   
    28   12   13 1   
    29   12   46 1   
    30   12   47 1   
    31   13   14 1   
    32   13   48 1   
    33   13   49 1   
    34   14   15 1   
    35   14   18 1   
    36   14   50 1   
    37   15   16 1   
    38   15   22 1   
    39   15   51 1   
    40   16   17 1   
    41   16   52 1   
    42   16   53 1   
    43   17   26 1   
    44   17   54 1   
    45   17   55 1   
    46   18   19 1   
    47   18   20 1   
    48   19   56 1   
    49   19   57 1   
    50   19   58 1   
    51   20   21 1   
    52   20   59 1   
    53   20   60 1   
    54   21   22 1   
    55   21   61 1   
    56   21   62 1   
    57   22   23 1   
    58   22   63 1   
    59   23   24 1   
    60   23   25 1   
    61   23   26 1   
    62   24   30 1   
    63   24   64 1   
    64   24   65 1   
    65   25   66 1   
    66   25   67 1   
    67   25   68 1   
    68   26   27 1   
    69   27   69 1   
    70   28   29 1   
    71   28   30 1   
    72   30   70 1   
    73   30   71 1   
@<TRIPOS>SUBSTRUCTURE
     1 DL4         1 TEMP              0 ****  ****    0 ROOT
