@<TRIPOS>MOLECULE
DL4
   71    74     1     0     0
SMALL
bcc


@<TRIPOS>ATOM
      1 O3          0.3190   -0.0460   -0.7400 o         1 DL4     -0.847800
      2 C27         1.5410   -0.3130   -0.5540 c         1 DL4      0.913600
      3 O2          2.2620   -0.9210   -1.3960 o         1 DL4     -0.847800
      4 C25         2.1640    0.1040    0.8050 c3        1 DL4     -0.187700
      5 C26         1.7590    1.5180    1.1470 c3        1 DL4     -0.065100
      6 C24         3.6700   -0.0670    0.7990 c3        1 DL4     -0.065400
      7 C23         4.2480   -0.1540    2.1970 c3        1 DL4     -0.078400
      8 C22         5.7550   -0.3130    2.1560 c3        1 DL4     -0.079400
      9 C20         6.3620   -0.4270    3.5540 c3        1 DL4     -0.058700
     10 C21         6.1880   -1.8450    4.0620 c3        1 DL4     -0.089100
     11 C17         7.8290   -0.0140    3.5310 c3        1 DL4     -0.050700
     12 C16         8.0130    1.4390    3.0430 c3        1 DL4     -0.079400
     13 C15         9.1940    2.0420    3.8090 c3        1 DL4     -0.073400
     14 C14         9.8070    0.8600    4.5450 c3        1 DL4     -0.067700
     15 C8         10.6770    1.1170    5.7570 c3        1 DL4     -0.049700
     16 C7         11.8260    2.0500    5.4130 c3        1 DL4     -0.073400
     17 C6         12.7170    2.2600    6.6170 c3        1 DL4     -0.055200
     18 C13         8.5940   -0.0460    4.8780 c3        1 DL4     -0.045000
     19 C18         7.7210    0.5270    5.9810 c3        1 DL4     -0.082100
     20 C12         9.1640   -1.3940    5.2920 c3        1 DL4     -0.066400
     21 C11        10.1160   -1.2470    6.4690 c3        1 DL4     -0.074400
     22 C9         11.2300   -0.2330    6.2360 c3        1 DL4     -0.046700
     23 C10        12.1450   -0.0810    7.4730 c3        1 DL4     -0.017800
     24 C1         12.8140   -1.4390    7.7330 c3        1 DL4     -0.070400
     25 C19        11.3610    0.3360    8.7140 c3        1 DL4     -0.085100
     26 C5         13.1910    0.9740    7.2030 c2        1 DL4     -0.016400
     27 C4         14.4890    0.8160    7.5180 ce        1 DL4     -0.276200
     28 C3         15.0230   -0.3780    8.1810 c         1 DL4      0.572300
     29 O1         16.2360   -0.5530    8.3600 o         1 DL4     -0.547100
     30 C2         13.9970   -1.3610    8.6700 c3        1 DL4     -0.182400
     31 H25         1.7220   -0.5930    1.5700 hc        1 DL4      0.027700
     32 H26         2.0430    1.7780    2.1960 hc        1 DL4      0.015033
     33 H26A        2.2530    2.2450    0.4580 hc        1 DL4      0.015033
     34 H26B        0.6520    1.6230    1.0310 hc        1 DL4      0.015033
     35 H24         4.1420    0.7890    0.2500 hc        1 DL4      0.047700
     36 H24A        3.9190   -1.0000    0.2250 hc        1 DL4      0.047700
     37 H23         3.9850    0.7710    2.7750 hc        1 DL4      0.026200
     38 H23A        3.7870   -1.0220    2.7380 hc        1 DL4      0.026200
     39 H22         6.1890    0.5690    1.6160 hc        1 DL4      0.039200
     40 H22A        6.0210   -1.2250    1.5600 hc        1 DL4      0.039200
     41 H20         5.8030    0.2730    4.2380 hc        1 DL4      0.047700
     42 H21         6.9390   -2.5260    3.5950 hc        1 DL4      0.030700
     43 H21A        5.1670   -2.2230    3.8100 hc        1 DL4      0.030700
     44 H21B        6.3070   -1.8910    5.1710 hc        1 DL4      0.030700
     45 H17         8.3640   -0.7030    2.8200 hc        1 DL4      0.045700
     46 H16         8.2130    1.4510    1.9430 hc        1 DL4      0.049700
     47 H16A        7.0850    2.0340    3.2290 hc        1 DL4      0.049700
     48 H15         9.9310    2.5170    3.1170 hc        1 DL4      0.036700
     49 H15A        8.8470    2.8250    4.5270 hc        1 DL4      0.036700
     50 H14        10.4430    0.3030    3.7940 hc        1 DL4      0.046700
     51 H8         10.0650    1.5910    6.5710 hc        1 DL4      0.055700
     52 H7         11.4150    3.0360    5.0720 hc        1 DL4      0.048200
     53 H7A        12.4230    1.6230    4.5650 hc        1 DL4      0.048200
     54 H6         12.1460    2.8120    7.4140 hc        1 DL4      0.052700
     55 H6A        13.5900    2.9050    6.3260 hc        1 DL4      0.052700
     56 H18         8.2950    0.6760    6.9260 hc        1 DL4      0.034367
     57 H18A        6.8740   -0.1690    6.2010 hc        1 DL4      0.034367
     58 H18B        7.2980    1.5120    5.6660 hc        1 DL4      0.034367
     59 H12         8.3380   -2.0940    5.5800 hc        1 DL4      0.045200
     60 H12A        9.7050   -1.8520    4.4230 hc        1 DL4      0.045200
     61 H11        10.5750   -2.2510    6.6740 hc        1 DL4      0.038700
     62 H11A        9.5270   -0.9570    7.3780 hc        1 DL4      0.038700
     63 H9         11.8790   -0.6330    5.4020 hc        1 DL4      0.050700
     64 H1         12.0560   -2.1420    8.1710 hc        1 DL4      0.051200
     65 H1A        13.1520   -1.8750    6.7550 hc        1 DL4      0.051200
     66 H19        10.6920   -0.4930    9.0500 hc        1 DL4      0.039700
     67 H19A       10.7360    1.2360    8.5030 hc        1 DL4      0.039700
     68 H19B       12.0630    0.5790    9.5480 hc        1 DL4      0.039700
     69 H4         15.2320    1.6000    7.2950 ha        1 DL4      0.145000
     70 H2         14.4640   -2.3750    8.7790 hc        1 DL4      0.068700
     71 H2A        13.6650   -1.0300    9.6910 hc        1 DL4      0.068700
@<TRIPOS>BOND
     1    1    2 1   
     2    2    3 1   
     3    2    4 1   
     4    4    5 1   
     5    4    6 1   
     6    4   31 1   
     7    5   32 1   
     8    5   33 1   
     9    5   34 1   
    10    6    7 1   
    11    6   35 1   
    12    6   36 1   
    13    7    8 1   
    14    7   37 1   
    15    7   38 1   
    16    8    9 1   
    17    8   39 1   
    18    8   40 1   
    19    9   10 1   
    20    9   11 1   
    21    9   41 1   
    22   10   42 1   
    23   10   43 1   
    24   10   44 1   
    25   11   12 1   
    26   11   18 1   
    27   11   45 1   
    28   12   13 1   
    29   12   46 1   
    30   12   47 1   
    31   13   14 1   
    32   13   48 1   
    33   13   49 1   
    34   14   15 1   
    35   14   18 1   
    36   14   50 1   
    37   15   16 1   
    38   15   22 1   
    39   15   51 1   
    40   16   17 1   
    41   16   52 1   
    42   16   53 1   
    43   17   26 1   
    44   17   54 1   
    45   17   55 1   
    46   18   19 1   
    47   18   20 1   
    48   19   56 1   
    49   19   57 1   
    50   19   58 1   
    51   20   21 1   
    52   20   59 1   
    53   20   60 1   
    54   21   22 1   
    55   21   61 1   
    56   21   62 1   
    57   22   23 1   
    58   22   63 1   
    59   23   24 1   
    60   23   25 1   
    61   23   26 1   
    62   24   30 1   
    63   24   64 1   
    64   24   65 1   
    65   25   66 1   
    66   25   67 1   
    67   25   68 1   
    68   26   27 2   
    69   27   28 1   
    70   27   69 1   
    71   28   29 2   
    72   28   30 1   
    73   30   70 1   
    74   30   71 1   
@<TRIPOS>SUBSTRUCTURE
     1 DL4         1 TEMP              0 ****  ****    0 ROOT
