@<TRIPOS>MOLECULE
DL6
   33    33     1     0     0
SMALL
bcc


@<TRIPOS>ATOM
      1 O6          0.0390   -0.9900    0.2710 oh        1 DL6     -0.582800
      2 C6          1.4430   -1.0600    0.3280 c3        1 DL6      0.133400
      3 C5          1.9650   -0.3780    1.6000 c3        1 DL6      0.080100
      4 C4          3.4990   -0.2860    1.6240 c3        1 DL6      0.080100
      5 O4          3.9360    0.7220    0.7320 oh        1 DL6     -0.583800
      6 C3          3.9870    0.1660    3.0150 c3        1 DL6      0.115100
      7 O3          5.3910    0.0550    3.1230 oh        1 DL6     -0.593800
      8 C2          3.4150   -0.7730    4.0890 c3        1 DL6      0.110100
      9 O2          3.7050   -0.3440    5.4020 oh        1 DL6     -0.618800
     10 C1          1.8710   -0.7380    3.9530 c3        1 DL6      0.333300
     11 N1          1.2110   -1.6590    4.9480 n4        1 DL6     -0.679800
     12 C7         -0.2980   -1.5710    4.8520 c         1 DL6      0.531100
     13 C8         -0.9600   -2.5810    3.9130 c3        1 DL6      0.097800
     14 N2         -0.6520   -3.9420    4.2500 n2        1 DL6     -0.473200
     15 N3         -1.4600   -4.6570    4.9270 n1        1 DL6      0.204000
     16 N4         -2.0370   -5.4640    5.4660 n1        1 DL6      0.097000
     17 O7         -0.8280   -0.6900    5.5050 o         1 DL6     -0.411100
     18 O5          1.4950   -1.2200    2.6700 os        1 DL6     -0.426600
     19 HO6        -0.2030   -0.1140   -0.0590 ho        1 DL6      0.415000
     20 H61         1.6810   -2.1580    0.3490 h1        1 DL6      0.075700
     21 H62         1.9270   -0.5720   -0.5590 h1        1 DL6      0.075700
     22 H5          1.5140    0.6470    1.7150 h1        1 DL6      0.078700
     23 H4          3.9530   -1.2830    1.3690 h1        1 DL6      0.078700
     24 HO4         4.0110    0.3240   -0.1460 ho        1 DL6      0.428000
     25 H3          3.6680    1.2290    3.2060 h1        1 DL6      0.079700
     26 HO3         5.7720    0.6390    2.4490 ho        1 DL6      0.448000
     27 H2          3.8140   -1.8150    3.9310 h1        1 DL6      0.086700
     28 HO2         4.6410   -0.0870    5.4250 ho        1 DL6      0.469000
     29 H1          1.4710    0.3050    4.1350 hx        1 DL6      0.119700
     30 HN1         1.5410   -1.3690    5.8800 hn        1 DL6      0.479300
     31 H81        -2.0540   -2.2980    3.8740 h1        1 DL6      0.136700
     32 H82        -0.5140   -2.4200    2.8790 h1        1 DL6      0.136700
     33 H12         1.5130   -2.6230    4.7620 hn        1 DL6      0.479300
@<TRIPOS>BOND
     1    1    2 1   
     2    1   19 1   
     3    2    3 1   
     4    2   20 1   
     5    2   21 1   
     6    3    4 1   
     7    3   18 1   
     8    3   22 1   
     9    4    5 1   
    10    4    6 1   
    11    4   23 1   
    12    5   24 1   
    13    6    7 1   
    14    6    8 1   
    15    6   25 1   
    16    7   26 1   
    17    8    9 1   
    18    8   10 1   
    19    8   27 1   
    20    9   28 1   
    21   10   11 1   
    22   10   18 1   
    23   10   29 1   
    24   11   12 1   
    25   11   30 1   
    26   11   33 1   
    27   12   13 1   
    28   12   17 2   
    29   13   14 1   
    30   13   31 1   
    31   13   32 1   
    32   14   15 1   
    33   15   16 3   
@<TRIPOS>SUBSTRUCTURE
     1 DL6         1 TEMP              0 ****  ****    0 ROOT
