@<TRIPOS>MOLECULE
DL6
   32    32     1     0     0
SMALL
bcc


@<TRIPOS>ATOM
      1 O6         -1.6900    3.5840    0.2250 oh        1 DL6     -0.595800
      2 C6         -2.4090    2.5070    0.8010 c3        1 DL6      0.135400
      3 C5         -1.9980    1.2430    0.0420 c3        1 DL6      0.150100
      4 C4         -3.0990    0.1710    0.1320 c3        1 DL6      0.118100
      5 O4         -4.2350    0.6710   -0.5490 oh        1 DL6     -0.594800
      6 C3         -2.5990   -1.1240   -0.5290 c3        1 DL6      0.109100
      7 O3         -3.6040   -2.0990   -0.3090 oh        1 DL6     -0.607800
      8 C2         -1.2680   -1.5630    0.1040 c3        1 DL6      0.086100
      9 O2         -0.8410   -2.6810   -0.6520 oh        1 DL6     -0.600800
     10 C1         -0.2550   -0.3880    0.0110 c3        1 DL6      0.248500
     11 N1          0.9930   -0.6810    0.6770 n         1 DL6     -0.541900
     12 C7          2.2050   -0.3520    0.0750 c         1 DL6      0.630100
     13 C8          3.4490   -0.3350    0.9730 c3        1 DL6      0.094800
     14 N2          4.6280   -0.9590    0.4240 n2        1 DL6     -0.445200
     15 N3          5.1080   -0.6080   -0.6890 n1        1 DL6      0.229000
     16 N4          5.6780   -0.4500   -1.6540 n1        1 DL6     -0.010000
     17 O7          2.2910   -0.1260   -1.1450 o         1 DL6     -0.589100
     18 O5         -0.8200    0.7560    0.6850 os        1 DL6     -0.442600
     19 HO6        -1.9390    4.3740    0.7180 ho        1 DL6      0.403000
     20 H61        -2.1580    2.4070    1.8900 h1        1 DL6      0.046700
     21 H62        -3.5140    2.6650    0.6700 h1        1 DL6      0.046700
     22 H5         -1.7790    1.4920   -1.0330 h1        1 DL6      0.083700
     23 H4         -3.3590   -0.0330    1.2070 h1        1 DL6      0.059700
     24 HO4        -4.8670   -0.0600   -0.5970 ho        1 DL6      0.426000
     25 H3         -2.4600   -0.9690   -1.6360 h1        1 DL6      0.068700
     26 HO3        -3.2710   -2.9280   -0.6800 ho        1 DL6      0.429000
     27 H2         -1.4330   -1.8610    1.1760 h1        1 DL6      0.059700
     28 HO2         0.0210   -2.9500   -0.3130 ho        1 DL6      0.423000
     29 H1         -0.0610   -0.1410   -1.0770 h2        1 DL6      0.104700
     30 HN1         0.9550   -0.6260    1.6720 hn        1 DL6      0.308500
     31 H81         3.6130    0.7490    1.2480 h1        1 DL6      0.083700
     32 H82         3.2870   -0.9220    1.9220 h1        1 DL6      0.083700
@<TRIPOS>BOND
     1    1    2 1   
     2    1   19 1   
     3    2    3 1   
     4    2   20 1   
     5    2   21 1   
     6    3    4 1   
     7    3   18 1   
     8    3   22 1   
     9    4    5 1   
    10    4    6 1   
    11    4   23 1   
    12    5   24 1   
    13    6    7 1   
    14    6    8 1   
    15    6   25 1   
    16    7   26 1   
    17    8    9 1   
    18    8   10 1   
    19    8   27 1   
    20    9   28 1   
    21   10   11 1   
    22   10   18 1   
    23   10   29 1   
    24   11   12 1   
    25   11   30 1   
    26   12   13 1   
    27   12   17 2   
    28   13   14 1   
    29   13   31 1   
    30   13   32 1   
    31   14   15 1   
    32   15   16 3   
@<TRIPOS>SUBSTRUCTURE
     1 DL6         1 TEMP              0 ****  ****    0 ROOT
