@<TRIPOS>MOLECULE
DL6
   33    33     1     0     0
SMALL
bcc


@<TRIPOS>ATOM
      1 O6         -0.0460   -0.9750    0.5620 oh        1 DL6     -0.604800
      2 C6          1.3620   -0.9490    0.4110 c3        1 DL6      0.134400
      3 C5          1.9200   -0.3150    1.6880 c3        1 DL6      0.114100
      4 C4          3.4560   -0.2390    1.6760 c3        1 DL6      0.077100
      5 O4          3.8880    0.7920    0.8090 oh        1 DL6     -0.581800
      6 C3          3.9840    0.1630    3.0700 c3        1 DL6      0.117100
      7 O3          5.3870    0.0180    3.1410 oh        1 DL6     -0.593800
      8 C2          3.4170   -0.7900    4.1350 c3        1 DL6      0.111100
      9 O2          3.7400   -0.3930    5.4500 oh        1 DL6     -0.618800
     10 C1          1.8720   -0.7230    4.0280 c3        1 DL6      0.333300
     11 N1          1.2000   -1.6380    5.0190 ny        1 DL6     -0.679800
     12 C7         -0.3030   -1.4640    4.9810 c         1 DL6      0.530100
     13 C8         -1.0470   -2.3260    3.9590 c3        1 DL6      0.095800
     14 N2         -0.8210   -3.7310    4.1450 n2        1 DL6     -0.471200
     15 N3         -1.6490   -4.4570    4.7870 n1        1 DL6      0.203000
     16 N4         -2.2570   -5.2750    5.2700 n1        1 DL6      0.094000
     17 O7         -0.7660   -0.6370    5.7470 o         1 DL6     -0.410100
     18 O5          1.4750   -1.1870    2.7440 os        1 DL6     -0.422600
     19 HO6        -0.4180   -1.1800   -0.3060 ho        1 DL6      0.428000
     20 H61         1.7500   -1.9940    0.2860 h1        1 DL6      0.055200
     21 H62         1.6670   -0.3140   -0.4630 h1        1 DL6      0.055200
     22 H5          1.4760    0.7080    1.8410 h1        1 DL6      0.090700
     23 H4          3.8940   -1.2320    1.3770 h1        1 DL6      0.077700
     24 HO4         3.8520    0.4490   -0.0940 ho        1 DL6      0.427000
     25 H3          3.6940    1.2270    3.2950 h1        1 DL6      0.079700
     26 HO3         5.7660    0.6080    2.4720 ho        1 DL6      0.449000
     27 H2          3.7920   -1.8360    3.9480 h1        1 DL6      0.087700
     28 HO2         4.6810   -0.1560    5.4600 ho        1 DL6      0.469000
     29 H1          1.4980    0.3280    4.2240 hx        1 DL6      0.119700
     30 HN1         1.5790   -1.3980    5.9470 hn        1 DL6      0.478300
     31 H81        -2.1200   -1.9730    3.9810 h1        1 DL6      0.139200
     32 H82        -0.6140   -2.0870    2.9320 h1        1 DL6      0.139200
     33 H12         1.4390   -2.6110    4.7900 hn        1 DL6      0.478300
@<TRIPOS>BOND
     1    1    2 1   
     2    1   19 1   
     3    2    3 1   
     4    2   20 1   
     5    2   21 1   
     6    3    4 1   
     7    3   18 1   
     8    3   22 1   
     9    4    5 1   
    10    4    6 1   
    11    4   23 1   
    12    5   24 1   
    13    6    7 1   
    14    6    8 1   
    15    6   25 1   
    16    7   26 1   
    17    8    9 1   
    18    8   10 1   
    19    8   27 1   
    20    9   28 1   
    21   10   11 1   
    22   10   18 1   
    23   10   29 1   
    24   11   12 1   
    25   11   30 1   
    26   11   33 1   
    27   12   13 1   
    28   12   17 2   
    29   13   14 1   
    30   13   31 1   
    31   13   32 1   
    32   14   15 1   
    33   15   16 3   
@<TRIPOS>SUBSTRUCTURE
     1 DL6         1 TEMP              0 ****  ****    0 ROOT
