@<TRIPOS>MOLECULE
DL7
   71    74     1     0     0
SMALL
bcc


@<TRIPOS>ATOM
      1 O3         -0.4930    0.9020    0.0750 o         1 DL7     -0.847800
      2 C27         0.6150    0.3320   -0.1330 c         1 DL7      0.913600
      3 O2          1.0740    0.0900   -1.2870 o         1 DL7     -0.847800
      4 C25         1.4940   -0.0670    1.0830 c3        1 DL7     -0.187700
      5 C26         2.0420   -1.4600    0.8890 c3        1 DL7     -0.065100
      6 C24         0.7290    0.0640    2.3850 c3        1 DL7     -0.066400
      7 C23         1.6460    0.1760    3.5860 c3        1 DL7     -0.078400
      8 C22         0.8510    0.2950    4.8700 c3        1 DL7     -0.079400
      9 C20         1.7520    0.4430    6.0960 c3        1 DL7     -0.058700
     10 C21         2.2140    1.8840    6.2080 c3        1 DL7     -0.089100
     11 C17         1.0190   -0.0140    7.3520 c3        1 DL7     -0.050700
     12 C16         0.5770   -1.4890    7.2580 c3        1 DL7     -0.079400
     13 C15         0.7250   -2.1120    8.6480 c3        1 DL7     -0.072400
     14 C14         0.9920   -0.9280    9.5670 c3        1 DL7     -0.038500
     15 C8          1.6150   -1.1300   10.8980 c2        1 DL7     -0.081400
     16 C7          1.8240   -2.3390   11.4380 c2        1 DL7     -0.189200
     17 C6          2.3200   -2.5400   12.8180 c3        1 DL7     -0.036200
     18 C13         1.8050    0.0530    8.6820 c3        1 DL7     -0.040000
     19 C18         3.2310   -0.4340    8.4890 c3        1 DL7     -0.081100
     20 C12         1.7790    1.3920    9.4020 c3        1 DL7     -0.067400
     21 C11         2.4140    1.2700   10.7760 c3        1 DL7     -0.071400
     22 C9          1.8400    0.1550   11.6480 c3        1 DL7     -0.015500
     23 C10         2.6800   -0.0510   12.9310 c3        1 DL7     -0.040000
     24 C1          2.4970    1.1710   13.8350 c3        1 DL7     -0.068400
     25 C19         4.1540   -0.2340   12.5970 c3        1 DL7     -0.086100
     26 C5          2.1260   -1.2870   13.6620 c3        1 DL7     -0.051700
     27 C4          2.7270   -1.4970   15.0410 c3        1 DL7     -0.179400
     28 C3          2.6930   -0.2510   15.8770 c         1 DL7      0.573100
     29 O1          2.3470   -0.2640   17.0630 o         1 DL7     -0.542100
     30 C2          3.1500    1.0030   15.1900 c3        1 DL7     -0.181400
     31 H25         2.3530    0.6610    1.0900 hc        1 DL7      0.027700
     32 H26         2.8150   -1.7020    1.6590 hc        1 DL7      0.015367
     33 H26A        2.5000   -1.5390   -0.1280 hc        1 DL7      0.015367
     34 H26B        1.2250   -2.2180    0.9630 hc        1 DL7      0.015367
     35 H24         0.0730    0.9740    2.3200 hc        1 DL7      0.047700
     36 H24A        0.0500   -0.8190    2.5100 hc        1 DL7      0.047700
     37 H23         2.3130    1.0700    3.4640 hc        1 DL7      0.026700
     38 H23A        2.3120   -0.7260    3.6390 hc        1 DL7      0.026700
     39 H22         0.1640    1.1790    4.8060 hc        1 DL7      0.039200
     40 H22A        0.2040   -0.6150    4.9730 hc        1 DL7      0.039200
     41 H20         2.6580   -0.2120    5.9500 hc        1 DL7      0.048700
     42 H21         3.0990    1.9680    6.8830 hc        1 DL7      0.031033
     43 H21A        1.3960    2.5300    6.6090 hc        1 DL7      0.031033
     44 H21B        2.5070    2.2730    5.2020 hc        1 DL7      0.031033
     45 H17         0.1030    0.6310    7.4640 hc        1 DL7      0.045700
     46 H16         1.2080   -2.0410    6.5190 hc        1 DL7      0.049700
     47 H16A       -0.4840   -1.5490    6.9130 hc        1 DL7      0.049700
     48 H15        -0.1970   -2.6640    8.9520 hc        1 DL7      0.039200
     49 H15A        1.5800   -2.8340    8.6660 hc        1 DL7      0.039200
     50 H14        -0.0110   -0.4420    9.7710 hc        1 DL7      0.053700
     51 H7          1.6210   -3.2590   10.8670 ha        1 DL7      0.128000
     52 H6          3.4090   -2.8170   12.7890 hc        1 DL7      0.046200
     53 H6A         1.7720   -3.3950   13.2970 hc        1 DL7      0.046200
     54 H18         3.6930   -0.7030    9.4700 hc        1 DL7      0.035700
     55 H18A        3.2440   -1.3420    7.8380 hc        1 DL7      0.035700
     56 H18B        3.8510    0.3590    8.0070 hc        1 DL7      0.035700
     57 H12         2.3360    2.1650    8.8110 hc        1 DL7      0.045200
     58 H12A        0.7190    1.7450    9.4980 hc        1 DL7      0.045200
     59 H11         2.2810    2.2440   11.3180 hc        1 DL7      0.039700
     60 H11A        3.5160    1.1170   10.6350 hc        1 DL7      0.039700
     61 H9          0.8100    0.4920   11.9780 hc        1 DL7      0.050700
     62 H1          1.4010    1.3640   13.9760 hc        1 DL7      0.049200
     63 H1A         2.9370    2.0740   13.3350 hc        1 DL7      0.049200
     64 H19         4.2660   -0.9000   11.7070 hc        1 DL7      0.037700
     65 H19A        4.6330    0.7500   12.3730 hc        1 DL7      0.037700
     66 H19B        4.7010   -0.6940   13.4550 hc        1 DL7      0.037700
     67 H5          1.0170   -1.1220   13.7930 hc        1 DL7      0.056700
     68 H4          3.7980   -1.8240   14.9570 hc        1 DL7      0.068200
     69 H4A         2.1680   -2.3180   15.5640 hc        1 DL7      0.068200
     70 H2          4.2660    0.9430   15.0720 hc        1 DL7      0.067200
     71 H2A         2.9230    1.8950   15.8330 hc        1 DL7      0.067200
@<TRIPOS>BOND
     1    1    2 1   
     2    2    3 1   
     3    2    4 1   
     4    4    5 1   
     5    4    6 1   
     6    4   31 1   
     7    5   32 1   
     8    5   33 1   
     9    5   34 1   
    10    6    7 1   
    11    6   35 1   
    12    6   36 1   
    13    7    8 1   
    14    7   37 1   
    15    7   38 1   
    16    8    9 1   
    17    8   39 1   
    18    8   40 1   
    19    9   10 1   
    20    9   11 1   
    21    9   41 1   
    22   10   42 1   
    23   10   43 1   
    24   10   44 1   
    25   11   12 1   
    26   11   18 1   
    27   11   45 1   
    28   12   13 1   
    29   12   46 1   
    30   12   47 1   
    31   13   14 1   
    32   13   48 1   
    33   13   49 1   
    34   14   15 1   
    35   14   18 1   
    36   14   50 1   
    37   15   16 2   
    38   15   22 1   
    39   16   17 1   
    40   16   51 1   
    41   17   26 1   
    42   17   52 1   
    43   17   53 1   
    44   18   19 1   
    45   18   20 1   
    46   19   54 1   
    47   19   55 1   
    48   19   56 1   
    49   20   21 1   
    50   20   57 1   
    51   20   58 1   
    52   21   22 1   
    53   21   59 1   
    54   21   60 1   
    55   22   23 1   
    56   22   61 1   
    57   23   24 1   
    58   23   25 1   
    59   23   26 1   
    60   24   30 1   
    61   24   62 1   
    62   24   63 1   
    63   25   64 1   
    64   25   65 1   
    65   25   66 1   
    66   26   27 1   
    67   26   67 1   
    68   27   28 1   
    69   27   68 1   
    70   27   69 1   
    71   28   29 2   
    72   28   30 1   
    73   30   70 1   
    74   30   71 1   
@<TRIPOS>SUBSTRUCTURE
     1 DL7         1 TEMP              0 ****  ****    0 ROOT
