@<TRIPOS>MOLECULE
DL7
   71    72     1     0     0
SMALL
bcc


@<TRIPOS>ATOM
      1 O3         -0.6860    7.4050    1.4310 o         1 DL7     -0.583500
      2 C27        -1.8370    6.8960    1.3160 c1        1 DL7      0.332000
      3 O2         -2.5950    6.8150    2.3230 o         1 DL7     -0.583500
      4 C25        -2.3320    6.4490   -0.0380 c2        1 DL7     -0.181000
      5 C26        -3.5600    7.2530   -0.4180 c3        1 DL7     -0.182000
      6 C24        -2.6890    4.9670    0.0140 c3        1 DL7     -0.128000
      7 C23        -1.6350    4.1540   -0.7730 c3        1 DL7     -0.170000
      8 C22        -1.5520    2.7170   -0.1930 c3        1 DL7     -0.155000
      9 C20        -0.8780    1.7690   -1.2410 c3        1 DL7     -0.097000
     10 C21         0.4000    2.4440   -1.8010 c3        1 DL7     -0.213000
     11 C17        -0.5290    0.5400   -0.6140 c3        1 DL7     -0.089000
     12 C16        -1.6330    0.0900    0.3230 c3        1 DL7     -0.156000
     13 C15        -2.2490   -1.0700   -0.3580 c3        1 DL7     -0.157000
     14 C14        -1.0890   -1.7170   -1.2370 c3        1 DL7     -0.067000
     15 C8         -0.2380   -2.5300   -0.1580 c2        1 DL7     -0.083000
     16 C7         -0.2730   -1.9410    1.6140 c1        1 DL7     -0.176000
     17 C6          0.4470   -2.6900    2.5340 c2        1 DL7     -0.123000
     18 C13        -0.4000   -0.6720   -1.7410 c3        1 DL7     -0.034000
     19 C18        -1.1530   -0.1970   -3.0050 c3        1 DL7     -0.206000
     20 C12         1.0030   -1.0390   -2.1800 c3        1 DL7     -0.152000
     21 C11         1.7430   -1.7430   -1.1580 c3        1 DL7     -0.148000
     22 C9          0.9880   -2.8770   -0.6100 c3        1 DL7     -0.065000
     23 C10         1.9200   -3.6910    0.8950 c3        1 DL7     -0.038000
     24 C1          3.1660   -4.9310    0.5080 c3        1 DL7     -0.147000
     25 C19         3.0240   -2.6680    0.5570 c3        1 DL7     -0.206000
     26 C5          1.9550   -3.1790    1.9650 c3        1 DL7     -0.086000
     27 C4          2.1660   -4.3110    3.1740 c3        1 DL7     -0.208000
     28 C3          3.3920   -5.2980    2.8170 c2        1 DL7      0.235000
     29 O1          3.9760   -5.8920    3.7090 o         1 DL7     -0.309000
     30 C2          3.2810   -5.9250    1.4220 c3        1 DL7     -0.207000
     31 H25        -1.6270    6.5920   -0.7080 ha        1 DL7      0.071000
     32 H26        -4.3490    6.8790    0.0330 hc        1 DL7      0.055000
     33 H26A       -3.6900    7.2140   -1.3920 hc        1 DL7      0.055000
     34 H26B       -3.4380    8.1890   -0.1410 hc        1 DL7      0.055000
     35 H24        -2.7040    4.6660    0.9490 hc        1 DL7      0.058000
     36 H24A       -3.5770    4.8300   -0.3880 hc        1 DL7      0.058000
     37 H23        -0.7580    4.5910   -0.6930 hc        1 DL7      0.097000
     38 H23A       -1.8950    4.1110   -1.7210 hc        1 DL7      0.097000
     39 H22        -1.0160    2.7270    0.6320 hc        1 DL7      0.070500
     40 H22A       -2.4570    2.3920    0.0080 hc        1 DL7      0.070500
     41 H20        -1.5050    1.5960   -1.9770 hc        1 DL7      0.088000
     42 H21         0.1530    3.0710   -2.5190 hc        1 DL7      0.077000
     43 H21A        0.8550    2.9350   -1.0790 hc        1 DL7      0.077000
     44 H21B        1.0020    1.7580   -2.1590 hc        1 DL7      0.077000
     45 H17         0.3160    0.6370   -0.1220 hc        1 DL7      0.087000
     46 H16        -2.2930    0.8070    0.4430 hc        1 DL7      0.085500
     47 H16A       -1.2580   -0.1800    1.1870 hc        1 DL7      0.085500
     48 H15        -2.5750   -1.7200    0.3060 hc        1 DL7      0.076500
     49 H15A       -2.9880   -0.7720   -0.9360 hc        1 DL7      0.076500
     50 H14        -1.4480   -2.3020   -1.9440 hc        1 DL7      0.089000
     51 H7         -0.9920   -1.3510    1.9200 ha        1 DL7      0.128000
     52 H6          0.4270   -2.1390    3.3500 ha        1 DL7      0.087000
     53 H6A        -0.0130   -3.5020    2.8480 ha        1 DL7      0.087000
     54 H18        -1.2220   -0.9430   -3.6460 hc        1 DL7      0.074667
     55 H18A       -0.6620    0.5470   -3.4190 hc        1 DL7      0.074667
     56 H18B       -2.0550    0.1040   -2.7550 hc        1 DL7      0.074667
     57 H12         1.4880   -0.2150   -2.4120 hc        1 DL7      0.084500
     58 H12A        0.9450   -1.6110   -2.9810 hc        1 DL7      0.084500
     59 H11         2.5850   -2.0770   -1.5470 hc        1 DL7      0.083000
     60 H11A        1.9540   -1.1190   -0.4310 hc        1 DL7      0.083000
     61 H9          0.8820   -3.5540   -1.3180 hc        1 DL7      0.090000
     62 H1          4.0370   -4.4810    0.4280 hc        1 DL7      0.089500
     63 H1A         2.9430   -5.3340   -0.3620 hc        1 DL7      0.089500
     64 H19         3.2940   -2.7760   -0.3830 hc        1 DL7      0.074333
     65 H19A        3.8030   -2.8200    1.1420 hc        1 DL7      0.074333
     66 H19B        2.6820   -1.7580    0.6960 hc        1 DL7      0.074333
     67 H5          2.6200   -2.4590    2.0160 hc        1 DL7      0.102000
     68 H4          1.2930   -4.7020    3.4010 hc        1 DL7      0.108000
     69 H4A         2.3990   -3.8880    4.0320 hc        1 DL7      0.108000
     70 H2          2.6050   -6.6320    1.3180 hc        1 DL7      0.104000
     71 H2A         4.1040   -6.4380    1.2500 hc        1 DL7      0.104000
@<TRIPOS>BOND
     1    1    2 1   
     2    2    3 1   
     3    4    5 1   
     4    4    6 1   
     5    4   31 1   
     6    5   32 1   
     7    5   33 1   
     8    5   34 1   
     9    6    7 1   
    10    6   35 1   
    11    6   36 1   
    12    7    8 1   
    13    7   37 1   
    14    7   38 1   
    15    8    9 1   
    16    8   39 1   
    17    8   40 1   
    18    9   10 1   
    19    9   11 1   
    20    9   41 1   
    21   10   42 1   
    22   10   43 1   
    23   10   44 1   
    24   11   12 1   
    25   11   18 1   
    26   11   45 1   
    27   12   13 1   
    28   12   46 1   
    29   12   47 1   
    30   13   14 1   
    31   13   48 1   
    32   13   49 1   
    33   14   15 1   
    34   14   18 1   
    35   14   50 1   
    36   15   16 1   
    37   15   22 1   
    38   16   51 1   
    39   17   26 1   
    40   17   52 1   
    41   17   53 1   
    42   18   19 1   
    43   18   20 1   
    44   19   54 1   
    45   19   55 1   
    46   19   56 1   
    47   20   21 1   
    48   20   57 1   
    49   20   58 1   
    50   21   22 1   
    51   21   59 1   
    52   21   60 1   
    53   22   23 1   
    54   22   61 1   
    55   23   24 1   
    56   23   25 1   
    57   23   26 1   
    58   24   30 1   
    59   24   62 1   
    60   24   63 1   
    61   25   64 1   
    62   25   65 1   
    63   25   66 1   
    64   26   27 1   
    65   26   67 1   
    66   27   28 1   
    67   27   68 1   
    68   27   69 1   
    69   28   29 1   
    70   28   30 1   
    71   30   70 1   
    72   30   71 1   
@<TRIPOS>SUBSTRUCTURE
     1 DL7         1 TEMP              0 ****  ****    0 ROOT
