@<TRIPOS>MOLECULE
DL7
   71    74     1     0     0
SMALL
bcc


@<TRIPOS>ATOM
      1 O3         -8.6110   -0.0310    1.6300 o         1 DL7     -0.847800
      2 C27        -8.6700    0.1350    0.3790 c         1 DL7      0.913600
      3 O2         -9.7540    0.2450   -0.2640 o         1 DL7     -0.847800
      4 C25        -7.3480    0.2530   -0.4270 c3        1 DL7     -0.187700
      5 C26        -7.4350   -0.5770   -1.6850 c3        1 DL7     -0.065100
      6 C24        -6.1490   -0.1280    0.4200 c3        1 DL7     -0.066400
      7 C23        -4.8520    0.4310   -0.1290 c3        1 DL7     -0.078400
      8 C22        -3.6740    0.0250    0.7330 c3        1 DL7     -0.079400
      9 C20        -2.3560    0.6040    0.2210 c3        1 DL7     -0.058700
     10 C21        -2.2330    2.0460    0.6730 c3        1 DL7     -0.089100
     11 C17        -1.1820   -0.2410    0.7030 c3        1 DL7     -0.050700
     12 C16        -1.2840   -1.7020    0.2180 c3        1 DL7     -0.079400
     13 C15         0.1320   -2.1910   -0.0980 c3        1 DL7     -0.072400
     14 C14         1.0400   -1.1040    0.4590 c3        1 DL7     -0.038500
     15 C8          2.4410   -0.9750   -0.0130 c2        1 DL7     -0.081400
     16 C7          3.0370   -1.8750   -0.8070 c2        1 DL7     -0.189200
     17 C6          4.4710   -1.8190   -1.1690 c3        1 DL7     -0.036200
     18 C13         0.2290    0.2020    0.2510 c3        1 DL7     -0.040000
     19 C18         0.2190    0.6160   -1.2100 c3        1 DL7     -0.081100
     20 C12         0.9010    1.2590    1.1120 c3        1 DL7     -0.067400
     21 C11         2.3430    1.4590    0.6810 c3        1 DL7     -0.071400
     22 C9          3.1730    0.1780    0.6170 c3        1 DL7     -0.015500
     23 C10         4.5530    0.4290   -0.0400 c3        1 DL7     -0.040000
     24 C1          5.3930    1.2940    0.9050 c3        1 DL7     -0.068400
     25 C19         4.4000    1.1260   -1.3840 c3        1 DL7     -0.086100
     26 C5          5.2490   -0.9340   -0.2040 c3        1 DL7     -0.051700
     27 C4          6.6950   -0.8260   -0.6570 c3        1 DL7     -0.179400
     28 C3          7.4840    0.1460    0.1710 c         1 DL7      0.573100
     29 O1          8.6210   -0.1110    0.5810 o         1 DL7     -0.542100
     30 C2          6.8190    1.4660    0.4310 c3        1 DL7     -0.181400
     31 H25        -7.2610    1.3370   -0.7140 hc        1 DL7      0.027700
     32 H26        -7.4350   -1.6660   -1.4390 hc        1 DL7      0.015367
     33 H26A       -8.3870   -0.3380   -2.2190 hc        1 DL7      0.015367
     34 H26B       -6.5720   -0.3710   -2.3660 hc        1 DL7      0.015367
     35 H24        -6.3170    0.2520    1.4640 hc        1 DL7      0.047700
     36 H24A       -6.0780   -1.2450    0.4880 hc        1 DL7      0.047700
     37 H23        -4.6940    0.0630   -1.1770 hc        1 DL7      0.026700
     38 H23A       -4.9210    1.5500   -0.1800 hc        1 DL7      0.026700
     39 H22        -3.8450    0.3660    1.7880 hc        1 DL7      0.039200
     40 H22A       -3.6220   -1.0950    0.7570 hc        1 DL7      0.039200
     41 H20        -2.3740    0.5830   -0.9060 hc        1 DL7      0.048700
     42 H21        -1.4610    2.5880    0.0750 hc        1 DL7      0.031033
     43 H21A       -3.2080    2.5760    0.5400 hc        1 DL7      0.031033
     44 H21B       -1.9500    2.0990    1.7520 hc        1 DL7      0.031033
     45 H17        -1.1970   -0.2330    1.8290 hc        1 DL7      0.045700
     46 H16        -1.7500   -2.3370    1.0110 hc        1 DL7      0.049700
     47 H16A       -1.9280   -1.7680   -0.6940 hc        1 DL7      0.049700
     48 H15         0.3410   -3.1800    0.3760 hc        1 DL7      0.039200
     49 H15A        0.2710   -2.3030   -1.2020 hc        1 DL7      0.039200
     50 H14         1.1110   -1.2800    1.5760 hc        1 DL7      0.053700
     51 H7          2.4730   -2.7240   -1.2270 ha        1 DL7      0.128000
     52 H6          4.9070   -2.8540   -1.1520 hc        1 DL7      0.046200
     53 H6A         4.5790   -1.4300   -2.2180 hc        1 DL7      0.046200
     54 H18        -0.3990   -0.0980   -1.8100 hc        1 DL7      0.035700
     55 H18A       -0.2100    1.6400   -1.3230 hc        1 DL7      0.035700
     56 H18B        1.2560    0.6140   -1.6290 hc        1 DL7      0.035700
     57 H12         0.3580    2.2360    1.0280 hc        1 DL7      0.045200
     58 H12A        0.8610    0.9460    2.1880 hc        1 DL7      0.045200
     59 H11         2.3380    1.9620   -0.3220 hc        1 DL7      0.039700
     60 H11A        2.8370    2.1630    1.4030 hc        1 DL7      0.039700
     61 H9          3.3700   -0.1400    1.6860 hc        1 DL7      0.050700
     62 H1          4.9210    2.3070    1.0010 hc        1 DL7      0.049200
     63 H1A         5.3970    0.8260    1.9250 hc        1 DL7      0.049200
     64 H19         4.2060    2.2170   -1.2430 hc        1 DL7      0.037700
     65 H19A        5.3300    1.0210   -1.9940 hc        1 DL7      0.037700
     66 H19B        3.5490    0.6790   -1.9540 hc        1 DL7      0.037700
     67 H5          5.2440   -1.4310    0.8090 hc        1 DL7      0.056700
     68 H4          7.1720   -1.8410   -0.6070 hc        1 DL7      0.068200
     69 H4A         6.7470   -0.4860   -1.7260 hc        1 DL7      0.068200
     70 H2          6.8350    2.0530   -0.5270 hc        1 DL7      0.067200
     71 H2A         7.4040    2.0440    1.1940 hc        1 DL7      0.067200
@<TRIPOS>BOND
     1    1    2 1   
     2    2    3 1   
     3    2    4 1   
     4    4    5 1   
     5    4    6 1   
     6    4   31 1   
     7    5   32 1   
     8    5   33 1   
     9    5   34 1   
    10    6    7 1   
    11    6   35 1   
    12    6   36 1   
    13    7    8 1   
    14    7   37 1   
    15    7   38 1   
    16    8    9 1   
    17    8   39 1   
    18    8   40 1   
    19    9   10 1   
    20    9   11 1   
    21    9   41 1   
    22   10   42 1   
    23   10   43 1   
    24   10   44 1   
    25   11   12 1   
    26   11   18 1   
    27   11   45 1   
    28   12   13 1   
    29   12   46 1   
    30   12   47 1   
    31   13   14 1   
    32   13   48 1   
    33   13   49 1   
    34   14   15 1   
    35   14   18 1   
    36   14   50 1   
    37   15   16 2   
    38   15   22 1   
    39   16   17 1   
    40   16   51 1   
    41   17   26 1   
    42   17   52 1   
    43   17   53 1   
    44   18   19 1   
    45   18   20 1   
    46   19   54 1   
    47   19   55 1   
    48   19   56 1   
    49   20   21 1   
    50   20   57 1   
    51   20   58 1   
    52   21   22 1   
    53   21   59 1   
    54   21   60 1   
    55   22   23 1   
    56   22   61 1   
    57   23   24 1   
    58   23   25 1   
    59   23   26 1   
    60   24   30 1   
    61   24   62 1   
    62   24   63 1   
    63   25   64 1   
    64   25   65 1   
    65   25   66 1   
    66   26   27 1   
    67   26   67 1   
    68   27   28 1   
    69   27   68 1   
    70   27   69 1   
    71   28   29 2   
    72   28   30 1   
    73   30   70 1   
    74   30   71 1   
@<TRIPOS>SUBSTRUCTURE
     1 DL7         1 TEMP              0 ****  ****    0 ROOT
