@<TRIPOS>MOLECULE
DL7
   71    74     1     0     0
SMALL
bcc


@<TRIPOS>ATOM
      1 O3         -0.5380    0.8740    0.0820 o         1 DL7     -0.847800
      2 C27         0.5820    0.3280   -0.1310 c         1 DL7      0.913600
      3 O2          1.0430    0.1000   -1.2860 o         1 DL7     -0.847800
      4 C25         1.4720   -0.0550    1.0820 c3        1 DL7     -0.187700
      5 C26         2.0450   -1.4380    0.8840 c3        1 DL7     -0.065100
      6 C24         0.7080    0.0590    2.3860 c3        1 DL7     -0.066400
      7 C23         1.6260    0.1840    3.5850 c3        1 DL7     -0.078400
      8 C22         0.8330    0.2880    4.8720 c3        1 DL7     -0.079400
      9 C20         1.7350    0.4470    6.0960 c3        1 DL7     -0.058700
     10 C21         2.1750    1.8930    6.2100 c3        1 DL7     -0.089100
     11 C17         1.0110   -0.0230    7.3530 c3        1 DL7     -0.050700
     12 C16         0.5900   -1.5040    7.2570 c3        1 DL7     -0.079400
     13 C15         0.7500   -2.1280    8.6460 c3        1 DL7     -0.072400
     14 C14         1.0020   -0.9430    9.5660 c3        1 DL7     -0.038500
     15 C8          1.6320   -1.1380   10.8960 c2        1 DL7     -0.081400
     16 C7          1.8590   -2.3450   11.4320 c2        1 DL7     -0.189200
     17 C6          2.3610   -2.5410   12.8110 c3        1 DL7     -0.036200
     18 C13         1.7990    0.0520    8.6810 c3        1 DL7     -0.040000
     19 C18         3.2310   -0.4140    8.4840 c3        1 DL7     -0.081100
     20 C12         1.7550    1.3890    9.4040 c3        1 DL7     -0.067400
     21 C11         2.3960    1.2740   10.7760 c3        1 DL7     -0.071400
     22 C9          1.8390    0.1490   11.6470 c3        1 DL7     -0.015500
     23 C10         2.6870   -0.0480   12.9280 c3        1 DL7     -0.040000
     24 C1          2.4890    1.1700   13.8350 c3        1 DL7     -0.068400
     25 C19         4.1610   -0.2100   12.5900 c3        1 DL7     -0.086100
     26 C5          2.1510   -1.2930   13.6570 c3        1 DL7     -0.051700
     27 C4          2.7580   -1.4970   15.0350 c3        1 DL7     -0.179400
     28 C3          2.7100   -0.2530   15.8730 c         1 DL7      0.573100
     29 O1          2.3670   -0.2730   17.0600 o         1 DL7     -0.542100
     30 C2          3.1470    1.0090   15.1870 c3        1 DL7     -0.181400
     31 H25         2.3160    0.6880    1.0880 hc        1 DL7      0.027700
     32 H26         2.8260   -1.6660    1.6510 hc        1 DL7      0.015367
     33 H26A        1.2430   -2.2110    0.9600 hc        1 DL7      0.015367
     34 H26B        2.5020   -1.5060   -0.1340 hc        1 DL7      0.015367
     35 H24         0.0450   -0.8370    2.5120 hc        1 DL7      0.047700
     36 H24A        0.0350    0.9570    2.3260 hc        1 DL7      0.047700
     37 H23         2.3070   -0.7060    3.6360 hc        1 DL7      0.026700
     38 H23A        2.2770    1.0890    3.4630 hc        1 DL7      0.026700
     39 H22         0.2000   -0.6320    4.9740 hc        1 DL7      0.039200
     40 H22A        0.1320    1.1610    4.8120 hc        1 DL7      0.039200
     41 H20         2.6490   -0.1950    5.9470 hc        1 DL7      0.048700
     42 H21         1.3490    2.5270    6.6140 hc        1 DL7      0.031033
     43 H21A        2.4610    2.2890    5.2040 hc        1 DL7      0.031033
     44 H21B        3.0610    1.9890    6.8830 hc        1 DL7      0.031033
     45 H17         0.0860    0.6080    7.4690 hc        1 DL7      0.045700
     46 H16        -0.4720   -1.5790    6.9140 hc        1 DL7      0.049700
     47 H16A        1.2270   -2.0460    6.5150 hc        1 DL7      0.049700
     48 H15        -0.1630   -2.6940    8.9500 hc        1 DL7      0.039200
     49 H15A        1.6150   -2.8380    8.6600 hc        1 DL7      0.039200
     50 H14        -0.0070   -0.4710    9.7740 hc        1 DL7      0.053700
     51 H7          1.6670   -3.2660   10.8600 ha        1 DL7      0.128000
     52 H6          3.4540   -2.8030   12.7790 hc        1 DL7      0.046200
     53 H6A         1.8270   -3.4050   13.2890 hc        1 DL7      0.046200
     54 H18         3.8390    0.3890    8.0020 hc        1 DL7      0.035700
     55 H18A        3.6990   -0.6780    9.4630 hc        1 DL7      0.035700
     56 H18B        3.2550   -1.3210    7.8310 hc        1 DL7      0.035700
     57 H12         0.6910    1.7270    9.5030 hc        1 DL7      0.045200
     58 H12A        2.3000    2.1710    8.8130 hc        1 DL7      0.045200
     59 H11         3.5000    1.1360   10.6330 hc        1 DL7      0.039700
     60 H11A        2.2490    2.2450   11.3210 hc        1 DL7      0.039700
     61 H9          0.8060    0.4710   11.9810 hc        1 DL7      0.050700
     62 H1          1.3900    1.3470   13.9780 hc        1 DL7      0.049200
     63 H1A         2.9140    2.0800   13.3350 hc        1 DL7      0.049200
     64 H19         4.7180   -0.6630   13.4450 hc        1 DL7      0.037700
     65 H19A        4.6260    0.7810   12.3660 hc        1 DL7      0.037700
     66 H19B        4.2810   -0.8720   11.6980 hc        1 DL7      0.037700
     67 H5          1.0400   -1.1440   13.7920 hc        1 DL7      0.056700
     68 H4          3.8340   -1.8090   14.9470 hc        1 DL7      0.068200
     69 H4A         2.2130   -2.3270   15.5580 hc        1 DL7      0.068200
     70 H2          2.9090    1.8950   15.8330 hc        1 DL7      0.067200
     71 H2A         4.2630    0.9640   15.0660 hc        1 DL7      0.067200
@<TRIPOS>BOND
     1    1    2 1   
     2    2    3 1   
     3    2    4 1   
     4    4    5 1   
     5    4    6 1   
     6    4   31 1   
     7    5   32 1   
     8    5   33 1   
     9    5   34 1   
    10    6    7 1   
    11    6   35 1   
    12    6   36 1   
    13    7    8 1   
    14    7   37 1   
    15    7   38 1   
    16    8    9 1   
    17    8   39 1   
    18    8   40 1   
    19    9   10 1   
    20    9   11 1   
    21    9   41 1   
    22   10   42 1   
    23   10   43 1   
    24   10   44 1   
    25   11   12 1   
    26   11   18 1   
    27   11   45 1   
    28   12   13 1   
    29   12   46 1   
    30   12   47 1   
    31   13   14 1   
    32   13   48 1   
    33   13   49 1   
    34   14   15 1   
    35   14   18 1   
    36   14   50 1   
    37   15   16 2   
    38   15   22 1   
    39   16   17 1   
    40   16   51 1   
    41   17   26 1   
    42   17   52 1   
    43   17   53 1   
    44   18   19 1   
    45   18   20 1   
    46   19   54 1   
    47   19   55 1   
    48   19   56 1   
    49   20   21 1   
    50   20   57 1   
    51   20   58 1   
    52   21   22 1   
    53   21   59 1   
    54   21   60 1   
    55   22   23 1   
    56   22   61 1   
    57   23   24 1   
    58   23   25 1   
    59   23   26 1   
    60   24   30 1   
    61   24   62 1   
    62   24   63 1   
    63   25   64 1   
    64   25   65 1   
    65   25   66 1   
    66   26   27 1   
    67   26   67 1   
    68   27   28 1   
    69   27   68 1   
    70   27   69 1   
    71   28   29 2   
    72   28   30 1   
    73   30   70 1   
    74   30   71 1   
@<TRIPOS>SUBSTRUCTURE
     1 DL7         1 TEMP              0 ****  ****    0 ROOT
