@<TRIPOS>MOLECULE
DL8
   47    49     1     0     0
SMALL
bcc


@<TRIPOS>ATOM
      1 C12        -1.1570   -1.7090    0.9810 ca        1 DL8     -0.098000
      2 C13        -0.0460   -2.3750    0.4650 ca        1 DL8     -0.127500
      3 C14         1.1290   -1.6770    0.1880 ca        1 DL8     -0.097000
      4 C15         1.1950   -0.3030    0.4290 ca        1 DL8     -0.127500
      5 C16         0.0910    0.3700    0.9440 ca        1 DL8     -0.098000
      6 C11        -1.0950   -0.3290    1.2250 ca        1 DL8     -0.150500
      7 C10        -2.2290    0.3840    1.7660 cc        1 DL8      0.378800
      8 C9         -2.2930    1.6990    2.2650 cd        1 DL8     -0.193600
      9 N4         -3.5520   -0.1520    1.8820 nc        1 DL8     -0.291000
     10 N3         -4.3250    0.7000    2.3910 nd        1 DL8     -0.228800
     11 N2         -3.6460    1.8630    2.6350 na        1 DL8     -0.019600
     12 C8         -4.1830    2.9800    3.3530 c3        1 DL8     -0.000700
     13 C7         -5.4320    3.5890    2.7140 c         1 DL8      0.536100
     14 O7         -5.6130    4.7800    2.5280 o         1 DL8     -0.397100
     15 N1         -6.5270    2.6310    2.3340 n4        1 DL8     -0.667800
     16 C1         -7.9010    3.2520    2.3280 c3        1 DL8      0.327300
     17 O5         -8.3110    3.2610    3.6900 os        1 DL8     -0.423600
     18 C5         -9.5720    3.9320    3.8780 c3        1 DL8      0.081100
     19 C6         -9.8280    3.8560    5.3900 c3        1 DL8      0.135400
     20 O6         -8.9750    4.7250    6.0920 oh        1 DL8     -0.574800
     21 C4        -10.6750    3.2270    3.0710 c3        1 DL8      0.078100
     22 O4        -11.8480    4.0200    3.0620 oh        1 DL8     -0.584800
     23 C3        -10.2640    3.0990    1.5910 c3        1 DL8      0.115100
     24 O3        -11.1630    2.2690    0.8840 oh        1 DL8     -0.594800
     25 C2         -8.8970    2.4030    1.4960 c3        1 DL8      0.110100
     26 O2         -8.3890    2.3760    0.1800 oh        1 DL8     -0.619800
     27 H12        -2.0770   -2.2750    1.1950 ha        1 DL8      0.138500
     28 H13        -0.1000   -3.4580    0.2760 ha        1 DL8      0.147000
     29 H14         2.0040   -2.2070   -0.2190 ha        1 DL8      0.148000
     30 H15         2.1210    0.2500    0.2100 ha        1 DL8      0.147000
     31 H16         0.1500    1.4530    1.1260 ha        1 DL8      0.138500
     32 H9         -1.5430    2.4800    2.3790 h4        1 DL8      0.211000
     33 H81        -3.4040    3.8010    3.3970 h1        1 DL8      0.129700
     34 H82        -4.4670    2.6890    4.4110 h1        1 DL8      0.129700
     35 HN1        -6.3490    2.2710    1.3810 hn        1 DL8      0.491800
     36 H1         -7.8180    4.3020    1.9130 hx        1 DL8      0.130700
     37 H5         -9.4710    5.0020    3.5470 h1        1 DL8      0.080700
     38 H61       -10.9090    4.0920    5.5770 h1        1 DL8      0.072700
     39 H62        -9.5800    2.8300    5.7770 h1        1 DL8      0.072700
     40 HO6        -9.3060    5.6250    5.9770 ho        1 DL8      0.412000
     41 H4        -10.8760    2.2060    3.4980 h1        1 DL8      0.077700
     42 HO4       -12.3460    3.8180    3.8650 ho        1 DL8      0.428000
     43 H3        -10.2250    4.1190    1.1140 h1        1 DL8      0.079700
     44 HO3       -12.0350    2.6880    0.9390 ho        1 DL8      0.447000
     45 H2         -8.9770    1.3540    1.8990 h1        1 DL8      0.087700
     46 HO2        -9.1080    2.0830   -0.4030 ho        1 DL8      0.469000
     47 H121       -6.5290    1.8400    2.9930 hn        1 DL8      0.491800
@<TRIPOS>BOND
     1    1    2 ar  
     2    1    6 ar  
     3    1   27 1   
     4    2    3 ar  
     5    2   28 1   
     6    3    4 ar  
     7    3   29 1   
     8    4    5 ar  
     9    4   30 1   
    10    5    6 ar  
    11    5   31 1   
    12    6    7 1   
    13    7    8 2   
    14    7    9 1   
    15    8   11 1   
    16    8   32 1   
    17    9   10 2   
    18   10   11 1   
    19   11   12 1   
    20   12   13 1   
    21   12   33 1   
    22   12   34 1   
    23   13   14 2   
    24   13   15 1   
    25   15   16 1   
    26   15   35 1   
    27   15   47 1   
    28   16   17 1   
    29   16   25 1   
    30   16   36 1   
    31   17   18 1   
    32   18   19 1   
    33   18   21 1   
    34   18   37 1   
    35   19   20 1   
    36   19   38 1   
    37   19   39 1   
    38   20   40 1   
    39   21   22 1   
    40   21   23 1   
    41   21   41 1   
    42   22   42 1   
    43   23   24 1   
    44   23   25 1   
    45   23   43 1   
    46   24   44 1   
    47   25   26 1   
    48   25   45 1   
    49   26   46 1   
@<TRIPOS>SUBSTRUCTURE
     1 DL8         1 TEMP              0 ****  ****    0 ROOT
