@<TRIPOS>MOLECULE
DL8
   47    49     1     0     0
SMALL
bcc


@<TRIPOS>ATOM
      1 C12        -1.1320   -1.7480    1.1730 ca        1 DL8     -0.098000
      2 C13        -0.0270   -2.4490    0.6920 ca        1 DL8     -0.127500
      3 C14         1.1250   -1.7660    0.3020 ca        1 DL8     -0.098000
      4 C15         1.1730   -0.3740    0.3930 ca        1 DL8     -0.127500
      5 C16         0.0750    0.3340    0.8720 ca        1 DL8     -0.098000
      6 C11        -1.0880   -0.3490    1.2680 ca        1 DL8     -0.150500
      7 C10        -2.2160    0.4000    1.7700 cc        1 DL8      0.378800
      8 C9         -2.2870    1.7580    2.1330 cd        1 DL8     -0.192600
      9 N4         -3.5250   -0.1390    1.9830 nc        1 DL8     -0.291000
     10 N3         -4.2960    0.7510    2.4280 nd        1 DL8     -0.229800
     11 N2         -3.6300    1.9420    2.5300 na        1 DL8     -0.018600
     12 C8         -4.1640    3.1210    3.1410 c3        1 DL8     -0.000700
     13 C7         -5.4480    3.6310    2.4850 c         1 DL8      0.537100
     14 O7         -5.6560    4.7870    2.1550 o         1 DL8     -0.396100
     15 N1         -6.5440    2.6220    2.2800 ny        1 DL8     -0.667800
     16 C1         -7.9280    3.2200    2.2930 c3        1 DL8      0.328300
     17 O5         -8.2540    3.3750    3.6680 os        1 DL8     -0.425600
     18 C5         -9.5130    4.0470    3.8620 c3        1 DL8      0.111100
     19 C6         -9.6830    4.1450    5.3850 c3        1 DL8      0.136400
     20 O6         -8.8580    5.1540    5.9140 oh        1 DL8     -0.579800
     21 C4        -10.6460    3.2280    3.2190 c3        1 DL8      0.082100
     22 O4        -11.8150    4.0220    3.2950 oh        1 DL8     -0.583800
     23 C3        -10.3290    2.9550    1.7350 c3        1 DL8      0.082100
     24 O3        -11.2550    2.0370    1.1840 oh        1 DL8     -0.593800
     25 C2         -8.9570    2.2720    1.6230 c3        1 DL8      0.110100
     26 O2         -8.5330    2.1110    0.2860 oh        1 DL8     -0.618800
     27 H12        -2.0340   -2.3020    1.4780 ha        1 DL8      0.138500
     28 H13        -0.0670   -3.5460    0.6210 ha        1 DL8      0.147000
     29 H14         1.9960   -2.3230   -0.0770 ha        1 DL8      0.148000
     30 H15         2.0810    0.1670    0.0850 ha        1 DL8      0.147000
     31 H16         0.1190    1.4310    0.9370 ha        1 DL8      0.138500
     32 H9         -1.5470    2.5570    2.1420 h4        1 DL8      0.211000
     33 H81        -3.4030    3.9550    3.0650 h1        1 DL8      0.129700
     34 H82        -4.4030    2.9440    4.2350 h1        1 DL8      0.129700
     35 HN1        -6.4150    2.1610    1.3630 hn        1 DL8      0.490800
     36 H1         -7.8910    4.2180    1.7600 hx        1 DL8      0.130700
     37 H5         -9.4600    5.0710    3.4010 h1        1 DL8      0.081700
     38 H61       -10.7690    4.3300    5.6000 h1        1 DL8      0.080200
     39 H62        -9.3390    3.1960    5.8780 h1        1 DL8      0.080200
     40 HO6        -9.2890    6.0040    5.7530 ho        1 DL8      0.413000
     41 H4        -10.7740    2.2520    3.7620 h1        1 DL8      0.078700
     42 HO4       -12.5660    3.4200    3.3790 ho        1 DL8      0.429000
     43 H3        -10.3390    3.9190    1.1550 h1        1 DL8      0.079700
     44 HO3       -12.0860    2.5160    1.0580 ho        1 DL8      0.436000
     45 H2         -8.9880    1.2720    2.1400 h1        1 DL8      0.087700
     46 HO2        -9.2740    1.7260   -0.2070 ho        1 DL8      0.466000
     47 H121       -6.4910    1.9080    3.0210 hn        1 DL8      0.490800
@<TRIPOS>BOND
     1    1    2 ar  
     2    1    6 ar  
     3    1   27 1   
     4    2    3 ar  
     5    2   28 1   
     6    3    4 ar  
     7    3   29 1   
     8    4    5 ar  
     9    4   30 1   
    10    5    6 ar  
    11    5   31 1   
    12    6    7 1   
    13    7    8 2   
    14    7    9 1   
    15    8   11 1   
    16    8   32 1   
    17    9   10 2   
    18   10   11 1   
    19   11   12 1   
    20   12   13 1   
    21   12   33 1   
    22   12   34 1   
    23   13   14 2   
    24   13   15 1   
    25   15   16 1   
    26   15   35 1   
    27   15   47 1   
    28   16   17 1   
    29   16   25 1   
    30   16   36 1   
    31   17   18 1   
    32   18   19 1   
    33   18   21 1   
    34   18   37 1   
    35   19   20 1   
    36   19   38 1   
    37   19   39 1   
    38   20   40 1   
    39   21   22 1   
    40   21   23 1   
    41   21   41 1   
    42   22   42 1   
    43   23   24 1   
    44   23   25 1   
    45   23   43 1   
    46   24   44 1   
    47   25   26 1   
    48   25   45 1   
    49   26   46 1   
@<TRIPOS>SUBSTRUCTURE
     1 DL8         1 TEMP              0 ****  ****    0 ROOT
