@<TRIPOS>MOLECULE
DL8
   47    49     1     0     0
SMALL
bcc


@<TRIPOS>ATOM
      1 C12        -1.0990   -1.7200    1.2530 ca        1 DL8     -0.098000
      2 C13        -0.0050   -2.4390    0.7740 ca        1 DL8     -0.127500
      3 C14         1.1000   -1.7720    0.2460 ca        1 DL8     -0.098000
      4 C15         1.1110   -0.3770    0.1950 ca        1 DL8     -0.127500
      5 C16         0.0230    0.3490    0.6710 ca        1 DL8     -0.098000
      6 C11        -1.0910   -0.3180    1.2060 ca        1 DL8     -0.150500
      7 C10        -2.2090    0.4510    1.7030 cc        1 DL8      0.378800
      8 C9         -2.2990    1.8360    1.9340 cd        1 DL8     -0.192600
      9 N4         -3.4860   -0.0950    2.0510 nc        1 DL8     -0.291000
     10 N3         -4.2550    0.8160    2.4540 nd        1 DL8     -0.229800
     11 N2         -3.6200    2.0260    2.3950 na        1 DL8     -0.018600
     12 C8         -4.1510    3.2490    2.9200 c3        1 DL8     -0.000700
     13 C7         -5.4870    3.6600    2.3000 c         1 DL8      0.537100
     14 O7         -5.7490    4.7710    1.8720 o         1 DL8     -0.396100
     15 N1         -6.5620    2.6080    2.2650 n4        1 DL8     -0.667800
     16 C1         -7.9600    3.1720    2.3050 c3        1 DL8      0.328300
     17 O5         -8.2070    3.4560    3.6760 os        1 DL8     -0.425600
     18 C5         -9.4730    4.1140    3.8820 c3        1 DL8      0.111100
     19 C6         -9.5530    4.3600    5.3950 c3        1 DL8      0.136400
     20 O6         -8.7300    5.4370    5.7690 oh        1 DL8     -0.579800
     21 C4        -10.6170    3.2070    3.3940 c3        1 DL8      0.082100
     22 O4        -11.8030    3.9770    3.4650 oh        1 DL8     -0.583800
     23 C3        -10.3820    2.7940    1.9280 c3        1 DL8      0.082100
     24 O3        -11.3110    1.8040    1.5290 oh        1 DL8     -0.593800
     25 C2         -8.9980    2.1370    1.7980 c3        1 DL8      0.110100
     26 O2         -8.6510    1.8530    0.4600 oh        1 DL8     -0.618800
     27 H12        -1.9630   -2.2610    1.6680 ha        1 DL8      0.138500
     28 H13        -0.0160   -3.5390    0.8140 ha        1 DL8      0.147000
     29 H14         1.9620   -2.3430   -0.1310 ha        1 DL8      0.148000
     30 H15         1.9820    0.1520   -0.2220 ha        1 DL8      0.147000
     31 H16         0.0390    1.4480    0.6250 ha        1 DL8      0.138500
     32 H9         -1.5840    2.6500    1.8160 h4        1 DL8      0.211000
     33 H81        -4.3170    3.1760    4.0390 h1        1 DL8      0.129700
     34 H82        -3.4210    4.0890    2.7130 h1        1 DL8      0.129700
     35 HN1        -6.4440    1.9740    3.0680 hn        1 DL8      0.490800
     36 H1         -7.9860    4.1120    1.6750 hx        1 DL8      0.130700
     37 H5         -9.4790    5.0870    3.3190 h1        1 DL8      0.081700
     38 H61        -9.1520    3.4740    5.9570 h1        1 DL8      0.080200
     39 H62       -10.6300    4.5390    5.6590 h1        1 DL8      0.080200
     40 HO6        -9.1950    6.2550    5.5520 ho        1 DL8      0.413000
     41 H4        -10.6830    2.2880    4.0390 h1        1 DL8      0.078700
     42 HO4       -12.5290    3.3680    3.6560 ho        1 DL8      0.429000
     43 H3        -10.4560    3.6950    1.2570 h1        1 DL8      0.079700
     44 HO3       -12.1620    2.2480    1.4090 ho        1 DL8      0.436000
     45 H2         -8.9690    1.1930    2.4120 h1        1 DL8      0.087700
     46 HO2        -9.4090    1.4020    0.0540 ho        1 DL8      0.466000
     47 H121       -6.4760    2.0620    1.3920 hn        1 DL8      0.490800
@<TRIPOS>BOND
     1    1    2 ar  
     2    1    6 ar  
     3    1   27 1   
     4    2    3 ar  
     5    2   28 1   
     6    3    4 ar  
     7    3   29 1   
     8    4    5 ar  
     9    4   30 1   
    10    5    6 ar  
    11    5   31 1   
    12    6    7 1   
    13    7    8 2   
    14    7    9 1   
    15    8   11 1   
    16    8   32 1   
    17    9   10 2   
    18   10   11 1   
    19   11   12 1   
    20   12   13 1   
    21   12   33 1   
    22   12   34 1   
    23   13   14 2   
    24   13   15 1   
    25   15   16 1   
    26   15   35 1   
    27   15   47 1   
    28   16   17 1   
    29   16   25 1   
    30   16   36 1   
    31   17   18 1   
    32   18   19 1   
    33   18   21 1   
    34   18   37 1   
    35   19   20 1   
    36   19   38 1   
    37   19   39 1   
    38   20   40 1   
    39   21   22 1   
    40   21   23 1   
    41   21   41 1   
    42   22   42 1   
    43   23   24 1   
    44   23   25 1   
    45   23   43 1   
    46   24   44 1   
    47   25   26 1   
    48   25   45 1   
    49   26   46 1   
@<TRIPOS>SUBSTRUCTURE
     1 DL8         1 TEMP              0 ****  ****    0 ROOT
