@<TRIPOS>MOLECULE
DL8
   46    48     1     0     0
SMALL
bcc


@<TRIPOS>ATOM
      1 C12         5.3780   -1.9790   -0.5730 ca        1 DL8     -0.110500
      2 C13         6.5580   -2.1540   -1.2940 ca        1 DL8     -0.131000
      3 C14         7.2770   -1.0490   -1.7480 ca        1 DL8     -0.122000
      4 C15         6.8130    0.2390   -1.4800 ca        1 DL8     -0.131000
      5 C16         5.6350    0.4220   -0.7610 ca        1 DL8     -0.110500
      6 C11         4.9060   -0.6860   -0.2990 ca        1 DL8     -0.110500
      7 C10         3.6880   -0.4790    0.4500 cc        1 DL8      0.323800
      8 C9          3.1670    0.7220    0.9760 cd        1 DL8     -0.203600
      9 N4          2.7600   -1.5020    0.8050 nc        1 DL8     -0.339000
     10 N3          1.7980   -1.0060    1.4590 nd        1 DL8     -0.173800
     11 N2          1.9790    0.3330    1.6140 na        1 DL8      0.037400
     12 C8          1.0580    1.2250    2.2710 c3        1 DL8     -0.025700
     13 C7         -0.1820    1.5950    1.4380 c         1 DL8      0.639100
     14 O7         -0.4630    2.7950    1.2780 o         1 DL8     -0.572100
     15 N1         -0.9070    0.5630    0.8640 n         1 DL8     -0.535900
     16 C1         -2.2220    0.8130    0.3190 c3        1 DL8      0.250500
     17 O5         -3.1720    0.3500    1.3010 os        1 DL8     -0.440600
     18 C5         -4.5200    0.6650    0.9490 c3        1 DL8      0.150100
     19 C6         -5.3860    0.2080    2.1250 c3        1 DL8      0.135400
     20 O6         -5.4280    1.2850    3.0470 oh        1 DL8     -0.595800
     21 C4         -4.8970   -0.0980   -0.3330 c3        1 DL8      0.117100
     22 O4         -6.2190    0.2750   -0.6760 oh        1 DL8     -0.594800
     23 C3         -3.9200    0.2850   -1.4580 c3        1 DL8      0.109100
     24 O3         -4.2470   -0.5320   -2.5680 oh        1 DL8     -0.606800
     25 C2         -2.4720    0.0370   -1.0050 c3        1 DL8      0.085100
     26 O2         -1.6560    0.5270   -2.0530 oh        1 DL8     -0.599800
     27 H12         4.8200   -2.8600   -0.2200 ha        1 DL8      0.139500
     28 H13         6.9210   -3.1700   -1.5050 ha        1 DL8      0.134000
     29 H14         8.2080   -1.1920   -2.3170 ha        1 DL8      0.134000
     30 H15         7.3760    1.1130   -1.8380 ha        1 DL8      0.134000
     31 H16         5.2720    1.4410   -0.5580 ha        1 DL8      0.139500
     32 H9          3.5260    1.7490    0.9580 h4        1 DL8      0.198000
     33 H81         0.7020    0.7600    3.2360 h1        1 DL8      0.099700
     34 H82         1.6010    2.1850    2.5060 h1        1 DL8      0.099700
     35 HN1        -0.7730   -0.3560    1.2270 hn        1 DL8      0.325500
     36 H1         -2.3590    1.9220    0.1410 h2        1 DL8      0.102700
     37 H5         -4.6320    1.7730    0.7940 h1        1 DL8      0.083700
     38 H61        -6.4210   -0.0160    1.7490 h1        1 DL8      0.046700
     39 H62        -4.9420   -0.7030    2.6060 h1        1 DL8      0.046700
     40 HO6        -5.9170    0.9680    3.8150 ho        1 DL8      0.403000
     41 H4         -4.8480   -1.2080   -0.1570 h1        1 DL8      0.060700
     42 HO4        -6.3950   -0.1140   -1.5440 ho        1 DL8      0.426000
     43 H3         -4.0510    1.3690   -1.7360 h1        1 DL8      0.067700
     44 HO3        -3.5950   -0.3360   -3.2560 ho        1 DL8      0.429000
     45 H2         -2.3000   -1.0650   -0.8570 h1        1 DL8      0.064700
     46 HO2        -0.7390    0.3480   -1.8130 ho        1 DL8      0.423000
@<TRIPOS>BOND
     1    1    2 ar  
     2    1    6 ar  
     3    1   27 1   
     4    2    3 ar  
     5    2   28 1   
     6    3    4 ar  
     7    3   29 1   
     8    4    5 ar  
     9    4   30 1   
    10    5    6 ar  
    11    5   31 1   
    12    6    7 1   
    13    7    8 2   
    14    7    9 1   
    15    8   11 1   
    16    8   32 1   
    17    9   10 2   
    18   10   11 1   
    19   11   12 1   
    20   12   13 1   
    21   12   33 1   
    22   12   34 1   
    23   13   14 2   
    24   13   15 1   
    25   15   16 1   
    26   15   35 1   
    27   16   17 1   
    28   16   25 1   
    29   16   36 1   
    30   17   18 1   
    31   18   19 1   
    32   18   21 1   
    33   18   37 1   
    34   19   20 1   
    35   19   38 1   
    36   19   39 1   
    37   20   40 1   
    38   21   22 1   
    39   21   23 1   
    40   21   41 1   
    41   22   42 1   
    42   23   24 1   
    43   23   25 1   
    44   23   43 1   
    45   24   44 1   
    46   25   26 1   
    47   25   45 1   
    48   26   46 1   
@<TRIPOS>SUBSTRUCTURE
     1 DL8         1 TEMP              0 ****  ****    0 ROOT
