@<TRIPOS>MOLECULE
DL8
   46    42     1     0     0
SMALL
bcc


@<TRIPOS>ATOM
      1 C12         1.6780    3.9850   -4.7060 c1        1 DL8     -0.041500
      2 C13         2.0850    4.8590   -5.7010 c1        1 DL8     -0.070000
      3 C14         3.4020    5.3110   -5.7350 c1        1 DL8     -0.070000
      4 C15         4.3020    4.8880   -4.7790 c1        1 DL8     -0.070000
      5 C16         3.8960    4.0130   -3.7830 c1        1 DL8     -0.070000
      6 C11         2.5810    3.5610   -3.7470 c1        1 DL8     -0.000000
      7 C10         2.1550    2.7350   -2.7000 c1        1 DL8     -0.111500
      8 C9          2.0510    1.3700   -2.7420 c1        1 DL8      0.108900
      9 N4          1.7270    3.1460   -1.4960 n1        1 DL8     -0.130000
     10 N3          1.3550    2.0440   -0.7820 ne        1 DL8     -0.001000
     11 N2          1.5580    0.9540   -1.5570 ne        1 DL8     -0.346400
     12 C8          1.3050   -0.4320   -1.1720 c2        1 DL8     -0.032000
     13 C7          0.5820   -0.4610    0.1700 c2        1 DL8      0.629300
     14 O7          0.8050    0.3940    0.9950 o         1 DL8     -0.620300
     15 N1         -0.3490   -1.5180    0.4630 n         1 DL8     -0.533900
     16 C1         -0.9980   -1.5540    1.7080 c3        1 DL8      0.302500
     17 O5         -0.5590   -2.7650    2.4480 os        1 DL8     -0.443600
     18 C5         -1.3080   -2.9770    3.6820 c3        1 DL8      0.115100
     19 C6         -0.9200   -4.3250    4.2680 c3        1 DL8      0.125400
     20 O6         -0.7310   -4.1940    5.6770 oh        1 DL8     -0.615800
     21 C4         -2.8040   -2.9520    3.4630 c3        1 DL8      0.086100
     22 O4         -3.4660   -2.9870    4.7440 oh        1 DL8     -0.610800
     23 C3         -3.2490   -1.7340    2.7250 c3        1 DL8      0.107100
     24 O3         -4.6670   -1.8740    2.3930 oh        1 DL8     -0.607800
     25 C2         -2.4880   -1.5250    1.4810 c3        1 DL8      0.119100
     26 O2         -2.8510   -0.2340    0.9200 oh        1 DL8     -0.586800
     27 H12         0.7400    3.6630   -4.6820 ha        1 DL8      0.094500
     28 H13         1.4520    5.1570   -6.3730 ha        1 DL8      0.074000
     29 H14         3.6890    5.9280   -6.4370 ha        1 DL8      0.074000
     30 H15         5.2430    5.2110   -4.8040 ha        1 DL8      0.074000
     31 H16         4.5340    3.7140   -3.1060 ha        1 DL8      0.074000
     32 H9          2.2870    0.8080   -3.4840 DU        1 DL8      0.198000
     33 H81         2.1600   -0.9120   -1.0940 ha        1 DL8      0.139000
     34 H82         0.7420   -0.8690   -1.8600 ha        1 DL8      0.139000
     35 HN1        -0.5730   -2.1120   -0.1780 hn        1 DL8      0.335500
     36 H1         -0.7430   -0.7650    2.2200 h2        1 DL8      0.100700
     37 H5         -1.0690   -2.2720    4.3230 h1        1 DL8      0.075700
     38 H61        -1.6270   -4.9700    4.0950 h1        1 DL8      0.046200
     39 H62        -0.0820   -4.6360    3.8510 h1        1 DL8      0.046200
     40 HO6        -0.6070   -5.0050    6.0400 ho        1 DL8      0.416000
     41 H4         -3.0620   -3.7480    2.9500 h1        1 DL8      0.058700
     42 HO4        -3.6530   -2.1670    4.9990 ho        1 DL8      0.434000
     43 H3         -3.1350   -0.9630    3.2960 h1        1 DL8      0.066700
     44 HO3        -5.1390   -1.2270    2.8110 ho        1 DL8      0.429000
     45 H2         -2.7240   -2.2280    0.8400 h1        1 DL8      0.063700
     46 HO2        -3.5250   -0.3350    0.3560 ho        1 DL8      0.426000
@<TRIPOS>BOND
     1    1    6 3   
     2    1   27 1   
     3    2    3 3   
     4    2   28 1   
     5    3   29 1   
     6    4    5 3   
     7    4   30 1   
     8    5   31 1   
     9    7    8 2   
    10    7    9 2   
    11    8   11 2   
    12    9   10 2   
    13   10   11 1   
    14   12   13 2   
    15   12   33 1   
    16   12   34 1   
    17   13   14 1   
    18   13   15 1   
    19   15   16 1   
    20   15   35 1   
    21   16   17 1   
    22   16   25 1   
    23   16   36 1   
    24   17   18 1   
    25   18   19 1   
    26   18   21 1   
    27   18   37 1   
    28   19   20 1   
    29   19   38 1   
    30   19   39 1   
    31   20   40 1   
    32   21   22 1   
    33   21   23 1   
    34   21   41 1   
    35   22   42 1   
    36   23   24 1   
    37   23   25 1   
    38   23   43 1   
    39   24   44 1   
    40   25   26 1   
    41   25   45 1   
    42   26   46 1   
@<TRIPOS>SUBSTRUCTURE
     1 DL8         1 TEMP              0 ****  ****    0 ROOT
