@<TRIPOS>MOLECULE
DLA
   11    10     1     0     0
SMALL
bcc


@<TRIPOS>ATOM
      1 O1         -1.1930    0.6070   -0.9340 o         1 DLA     -0.840300
      2 O2          0.7060   -0.3680   -1.6130 o         1 DLA     -0.840300
      3 O3         -0.8860   -0.0950    1.6140 oh        1 DLA     -0.651800
      4 C1         -0.1100   -0.0140   -0.7210 c         1 DLA      0.892600
      5 C2          0.2140   -0.3590    0.7550 c3        1 DLA      0.013100
      6 C3          1.4220    0.4260    1.2280 c3        1 DLA     -0.089100
      7 H2          0.4150   -1.4620    0.8410 h1        1 DLA      0.031700
      8 H31         1.7220    0.1100    2.2560 hc        1 DLA      0.020033
      9 H32         2.2680    0.2500    0.5230 hc        1 DLA      0.020033
     10 H33         1.1870    1.5160    1.2500 hc        1 DLA      0.020033
     11 HO3        -1.5190    0.4350    1.1020 ho        1 DLA      0.422000
@<TRIPOS>BOND
     1    1    4 1   
     2    2    4 1   
     3    3    5 1   
     4    3   11 1   
     5    4    5 1   
     6    5    6 1   
     7    5    7 1   
     8    6    8 1   
     9    6    9 1   
    10    6   10 1   
@<TRIPOS>SUBSTRUCTURE
     1 DLA         1 TEMP              0 ****  ****    0 ROOT
