@<TRIPOS>MOLECULE
DLA
   11    10     1     0     0
SMALL
bcc


@<TRIPOS>ATOM
      1 O1          0.0380   -0.2580    0.2100 o         1 DLA     -0.840300
      2 O2          1.8940   -0.2310   -1.0440 o         1 DLA     -0.840300
      3 O3          1.3530   -0.2410    2.5230 oh        1 DLA     -0.651800
      4 C1          1.2940   -0.1910    0.0630 c         1 DLA      0.892600
      5 C2          2.1390   -0.0550    1.3560 c3        1 DLA      0.013100
      6 C3          2.8060    1.3050    1.4090 c3        1 DLA     -0.089100
      7 H2          2.9170   -0.8650    1.3750 h1        1 DLA      0.031700
      8 H31         3.3850    1.4640    0.4680 hc        1 DLA      0.020033
      9 H32         2.0370    2.1080    1.5030 hc        1 DLA      0.020033
     10 H33         3.4940    1.3750    2.2850 hc        1 DLA      0.020033
     11 HO3         0.4230   -0.2080    2.2430 ho        1 DLA      0.422000
@<TRIPOS>BOND
     1    1    4 1   
     2    2    4 1   
     3    3    5 1   
     4    3   11 1   
     5    4    5 1   
     6    5    6 1   
     7    5    7 1   
     8    6    8 1   
     9    6    9 1   
    10    6   10 1   
@<TRIPOS>SUBSTRUCTURE
     1 DLA         1 TEMP              0 ****  ****    0 ROOT
