@<TRIPOS>MOLECULE
DLA
   11    10     1     0     0
SMALL
bcc


@<TRIPOS>ATOM
      1 O1         -2.0620    0.3580   -1.0920 o         1 DLA     -0.840300
      2 O2         -0.1730    0.3580   -2.1830 o         1 DLA     -0.840300
      3 O3          1.1250    1.1250    0.0820 oh        1 DLA     -0.651800
      4 C1         -0.8030    0.3580   -1.0920 c         1 DLA      0.892600
      5 C2         -0.0470    0.3580    0.2170 c3        1 DLA      0.013100
      6 C3          0.3200   -1.0620    0.5870 c3        1 DLA     -0.089100
      7 HO3         1.0510    1.8660    0.5650 ho        1 DLA      0.422000
      8 H2         -0.6090    0.7410    0.9170 h1        1 DLA      0.031700
      9 H31         0.9240   -1.4280   -0.0870 hc        1 DLA      0.020033
     10 H32         0.7620   -1.0670    1.4570 hc        1 DLA      0.020033
     11 H33        -0.4890   -1.6070    0.6290 hc        1 DLA      0.020033
@<TRIPOS>BOND
     1    1    4 1   
     2    2    4 1   
     3    3    5 1   
     4    3    7 1   
     5    4    5 1   
     6    5    6 1   
     7    5    8 1   
     8    6    9 1   
     9    6   10 1   
    10    6   11 1   
@<TRIPOS>SUBSTRUCTURE
     1 DLA         1 TEMP              0 ****  ****    0 ROOT
