@<TRIPOS>MOLECULE
DLE
   21    20     1     0     0
SMALL
bcc


@<TRIPOS>ATOM
      1 N          -1.9110    0.5700   -1.2230 n3        1 DLE     -0.891800
      2 CA         -0.4880    0.5700   -1.2230 c3        1 DLE      0.017500
      3 CB          0.0160    0.5700    0.2020 c3        1 DLE     -0.059400
      4 CG          0.2900   -0.8520    0.6390 c3        1 DLE     -0.071700
      5 CD1        -0.3890   -1.1110    1.9660 c3        1 DLE     -0.082600
      6 CD2         1.7820   -1.0540    0.7890 c3        1 DLE     -0.082600
      7 C           0.0160    1.8040   -1.9360 c         1 DLE      0.886600
      8 O          -0.1930    2.9440   -1.4440 o         1 DLE     -0.845800
      9 OXT         0.6440    1.6920   -3.0210 o         1 DLE     -0.845800
     10 H          -2.2150   -0.0810   -1.7850 hn        1 DLE      0.329300
     11 H2         -2.2150    1.3820   -1.5070 hn        1 DLE      0.329300
     12 HA         -0.1630   -0.2270   -1.6840 h1        1 DLE      0.040700
     13 HB2        -0.6590    0.9660    0.7850 hc        1 DLE      0.046200
     14 HB3         0.8390    1.0920    0.2560 hc        1 DLE      0.046200
     15 HG         -0.0570   -1.4710   -0.0300 hc        1 DLE      0.054700
     16 HD11       -1.3570   -1.0390    1.8560 hc        1 DLE      0.021367
     17 HD12       -0.0870   -0.4530    2.6210 hc        1 DLE      0.021367
     18 HD13       -0.1630   -2.0080    2.2780 hc        1 DLE      0.021367
     19 HD21        1.9580   -1.9640    1.0970 hc        1 DLE      0.021367
     20 HD22        2.2180   -0.9130   -0.0730 hc        1 DLE      0.021367
     21 HD23        2.1340   -0.4170    1.4390 hc        1 DLE      0.021367
@<TRIPOS>BOND
     1    1    2 1   
     2    1   10 1   
     3    1   11 1   
     4    2    3 1   
     5    2    7 1   
     6    2   12 1   
     7    3    4 1   
     8    3   13 1   
     9    3   14 1   
    10    4    5 1   
    11    4    6 1   
    12    4   15 1   
    13    5   16 1   
    14    5   17 1   
    15    5   18 1   
    16    6   19 1   
    17    6   20 1   
    18    6   21 1   
    19    7    8 1   
    20    7    9 1   
@<TRIPOS>SUBSTRUCTURE
     1 DLE         1 TEMP              0 ****  ****    0 ROOT
