@<TRIPOS>MOLECULE
DLE
   21    20     1     0     0
SMALL
bcc


@<TRIPOS>ATOM
      1 N           1.7520    0.7290   -0.5510 n3        1 DLE     -0.891800
      2 CA          0.3190    0.4640   -0.5090 c3        1 DLE      0.017500
      3 CB         -0.0890   -0.4990    0.6070 c3        1 DLE     -0.059400
      4 CG          0.1030    0.0670    2.0070 c3        1 DLE     -0.071700
      5 CD1        -0.9880    1.0600    2.3520 c3        1 DLE     -0.082600
      6 CD2         0.1190   -1.0550    3.0270 c3        1 DLE     -0.082600
      7 C          -0.2740   -0.0750   -1.8550 c         1 DLE      0.886600
      8 O           0.5140   -0.2290   -2.8330 o         1 DLE     -0.845800
      9 OXT        -1.5140   -0.3060   -1.8970 o         1 DLE     -0.845800
     10 H           1.9480    1.1550   -1.4430 hn        1 DLE      0.329300
     11 H2          2.2390   -0.1500   -0.5500 hn        1 DLE      0.329300
     12 HA         -0.1810    1.4580   -0.3220 h1        1 DLE      0.040700
     13 HB2         0.4960   -1.4510    0.5120 hc        1 DLE      0.046200
     14 HB3        -1.1720   -0.7520    0.4460 hc        1 DLE      0.046200
     15 HG          1.0940    0.6000    2.0520 hc        1 DLE      0.054700
     16 HD11       -0.8200    1.4870    3.3700 hc        1 DLE      0.021367
     17 HD12       -0.9970    1.8960    1.6120 hc        1 DLE      0.021367
     18 HD13       -1.9890    0.5650    2.3360 hc        1 DLE      0.021367
     19 HD21       -0.8300   -1.6410    2.9790 hc        1 DLE      0.021367
     20 HD22        0.9720   -1.7480    2.8290 hc        1 DLE      0.021367
     21 HD23        0.2290   -0.6440    4.0600 hc        1 DLE      0.021367
@<TRIPOS>BOND
     1    1    2 1   
     2    1   10 1   
     3    1   11 1   
     4    2    3 1   
     5    2    7 1   
     6    2   12 1   
     7    3    4 1   
     8    3   13 1   
     9    3   14 1   
    10    4    5 1   
    11    4    6 1   
    12    4   15 1   
    13    5   16 1   
    14    5   17 1   
    15    5   18 1   
    16    6   19 1   
    17    6   20 1   
    18    6   21 1   
    19    7    8 1   
    20    7    9 1   
@<TRIPOS>SUBSTRUCTURE
     1 DLE         1 TEMP              0 ****  ****    0 ROOT
