@<TRIPOS>MOLECULE
DLF
   22    22     1     0     0
SMALL
bcc


@<TRIPOS>ATOM
      1 C1         -1.4800   -0.5950    0.6080 c3        1 DLF      0.339900
      2 C2         -1.1930   -0.6190   -0.8880 c3        1 DLF     -0.129400
      3 C3         -0.2420    0.5050   -1.2740 c3        1 DLF      0.104100
      4 C4          1.0180    0.4670   -0.3900 c3        1 DLF      0.124100
      5 C5          0.5980    0.5160    1.0870 c3        1 DLF      0.152100
      6 C6          1.7840    0.3340    2.0130 c3        1 DLF     -0.088100
      7 O1         -2.2510    0.5510    0.9020 oh        1 DLF     -0.634800
      8 O3          0.2150    0.3610   -2.6120 oh        1 DLF     -0.609800
      9 O4          1.7740   -0.7100   -0.6110 oh        1 DLF     -0.590800
     10 O5         -0.3330   -0.5160    1.4290 os        1 DLF     -0.439600
     11 H1         -1.9990   -1.5390    0.9450 h2        1 DLF      0.072700
     12 H21        -0.7190   -1.6040   -1.1390 hc        1 DLF      0.070700
     13 H22        -2.1550   -0.5220   -1.4500 hc        1 DLF      0.070700
     14 H3         -0.7540    1.5000   -1.1520 h1        1 DLF      0.059700
     15 H4          1.6580    1.3640   -0.6220 h1        1 DLF      0.051700
     16 H5          0.0940    1.5090    1.2640 h1        1 DLF      0.045700
     17 H61         1.4440    0.3300    3.0750 hc        1 DLF      0.051700
     18 H62         2.2940   -0.6350    1.7920 hc        1 DLF      0.051700
     19 H63         2.5040    1.1710    1.8560 hc        1 DLF      0.051700
     20 HO1        -2.3480    0.5930    1.8610 ho        1 DLF      0.419000
     21 HO3        -0.5680    0.2920   -3.1710 ho        1 DLF      0.411000
     22 HO4         1.8930   -0.7840   -1.5680 ho        1 DLF      0.418000
@<TRIPOS>BOND
     1    1    2 1   
     2    1    7 1   
     3    1   10 1   
     4    1   11 1   
     5    2    3 1   
     6    2   12 1   
     7    2   13 1   
     8    3    4 1   
     9    3    8 1   
    10    3   14 1   
    11    4    5 1   
    12    4    9 1   
    13    4   15 1   
    14    5    6 1   
    15    5   10 1   
    16    5   16 1   
    17    6   17 1   
    18    6   18 1   
    19    6   19 1   
    20    7   20 1   
    21    8   21 1   
    22    9   22 1   
@<TRIPOS>SUBSTRUCTURE
     1 DLF         1 TEMP              0 ****  ****    0 ROOT
