@<TRIPOS>MOLECULE
DLG
   41    41     1     0     0
SMALL
bcc


@<TRIPOS>ATOM
      1 C1          1.1820    0.1410    1.2430 c3        1 DLG      0.304900
      2 C2          2.6960    0.1370    1.2620 c3        1 DLG      0.128100
      3 C3          3.2390    0.1590    2.6310 c3        1 DLG     -0.117400
      4 C4          2.6610    1.2510    3.4470 c3        1 DLG      0.116100
      5 C5          1.1420    1.2520    3.4190 c3        1 DLG      0.115100
      6 C6          0.6470    2.4830    4.1110 c3        1 DLG      0.142400
      7 O1          0.7470    0.2910   -0.0730 os        1 DLG     -0.423600
      8 O2          3.1690   -1.0530    0.5920 oh        1 DLG     -0.596800
      9 O4          3.1370    2.5150    2.9400 oh        1 DLG     -0.589800
     10 O5          0.6100    1.2260    2.0620 os        1 DLG     -0.441600
     11 O6         -0.6780    2.2790    4.5390 oh        1 DLG     -0.600800
     12 C11        -0.3760   -0.5200   -0.4050 c3        1 DLG      0.137400
     13 C12        -0.6900   -0.3730   -1.9040 c3        1 DLG     -0.085400
     14 C13        -1.9830   -1.1340   -2.2330 c3        1 DLG     -0.078400
     15 C14        -2.2450   -1.0710   -3.7400 c3        1 DLG     -0.078400
     16 C15        -3.5310   -1.8410   -4.0670 c3        1 DLG     -0.080400
     17 C16        -3.7350   -1.8720   -5.5720 c3        1 DLG     -0.093100
     18 H1          0.8590   -0.7190    1.5870 h2        1 DLG      0.047700
     19 H2          3.0210    0.9220    0.7800 h1        1 DLG      0.071700
     20 H31         4.2080    0.2780    2.5850 hc        1 DLG      0.066200
     21 H32         3.0440   -0.7010    3.0650 hc        1 DLG      0.066200
     22 H4          2.9610    1.1470    4.3740 h1        1 DLG      0.045700
     23 H5          0.8170    0.4660    3.9010 h1        1 DLG      0.051700
     24 H61         0.6770    3.2410    3.4910 h1        1 DLG      0.065200
     25 H62         1.2150    2.6730    4.8870 h1        1 DLG      0.065200
     26 HO2         3.9620   -0.8940    0.2330 ho        1 DLG      0.419000
     27 HO4         3.8070    2.8030    3.4460 ho        1 DLG      0.404000
     28 HO6        -0.9370    2.9670    5.0420 ho        1 DLG      0.412000
     29 H111       -0.1730   -1.4550   -0.2050 h1        1 DLG      0.037200
     30 H112       -1.1500   -0.2350    0.1190 h1        1 DLG      0.037200
     31 H121        0.0500   -0.7430   -2.4310 hc        1 DLG      0.054700
     32 H122       -0.8050    0.5760   -2.1230 hc        1 DLG      0.054700
     33 H131       -1.8900   -2.0690   -1.9570 hc        1 DLG      0.041200
     34 H132       -2.7330   -0.7260   -1.7540 hc        1 DLG      0.041200
     35 H141       -2.3440   -0.1400   -4.0140 hc        1 DLG      0.041700
     36 H142       -1.4950   -1.4720   -4.2170 hc        1 DLG      0.041700
     37 H151       -4.2910   -1.3990   -3.6450 hc        1 DLG      0.039200
     38 H152       -3.4570   -2.7580   -3.7290 hc        1 DLG      0.039200
     39 H161       -2.9750   -2.3200   -5.9960 hc        1 DLG      0.033367
     40 H162       -3.8040   -0.9540   -5.9120 hc        1 DLG      0.033367
     41 H163       -4.5610   -2.3610   -5.7800 hc        1 DLG      0.033367
@<TRIPOS>BOND
     1    1    2 1   
     2    1    7 1   
     3    1   10 1   
     4    1   18 1   
     5    2    3 1   
     6    2    8 1   
     7    2   19 1   
     8    3    4 1   
     9    3   20 1   
    10    3   21 1   
    11    4    5 1   
    12    4    9 1   
    13    4   22 1   
    14    5    6 1   
    15    5   10 1   
    16    5   23 1   
    17    6   11 1   
    18    6   24 1   
    19    6   25 1   
    20    7   12 1   
    21    8   26 1   
    22    9   27 1   
    23   11   28 1   
    24   12   13 1   
    25   12   29 1   
    26   12   30 1   
    27   13   14 1   
    28   13   31 1   
    29   13   32 1   
    30   14   15 1   
    31   14   33 1   
    32   14   34 1   
    33   15   16 1   
    34   15   35 1   
    35   15   36 1   
    36   16   17 1   
    37   16   37 1   
    38   16   38 1   
    39   17   39 1   
    40   17   40 1   
    41   17   41 1   
@<TRIPOS>SUBSTRUCTURE
     1 DLG         1 TEMP              0 ****  ****    0 ROOT
