@<TRIPOS>MOLECULE
DLG
   41    41     1     0     0
SMALL
bcc


@<TRIPOS>ATOM
      1 C1         -0.6300   -0.5690   -1.1610 c3        1 DLG      0.304900
      2 C2         -1.6530    0.0210   -2.1540 c3        1 DLG      0.128100
      3 C3         -1.2550   -0.3690   -3.5710 c3        1 DLG     -0.117400
      4 C4          0.1790    0.0620   -3.8540 c3        1 DLG      0.116100
      5 C5          1.1280   -0.4530   -2.7610 c3        1 DLG      0.115100
      6 C6          2.5240    0.1660   -2.8930 c3        1 DLG      0.142400
      7 O1         -0.9010    0.0060    0.0970 os        1 DLG     -0.423600
      8 O2         -2.9390   -0.5160   -1.9060 oh        1 DLG     -0.596800
      9 O4          0.3140    1.4750   -3.9140 oh        1 DLG     -0.589800
     10 O5          0.6900   -0.1190   -1.4440 os        1 DLG     -0.441600
     11 O6          3.4150   -0.3970   -1.9550 oh        1 DLG     -0.600800
     12 C11        -0.1040   -0.5330    1.1590 c3        1 DLG      0.137400
     13 C12        -0.5630    0.1620    2.4290 c3        1 DLG     -0.085400
     14 C13         0.2270   -0.3410    3.6170 c3        1 DLG     -0.078400
     15 C14        -0.2170    0.3410    4.8930 c3        1 DLG     -0.078400
     16 C15         0.5710   -0.1580    6.0860 c3        1 DLG     -0.080400
     17 C16         0.1320    0.5180    7.3590 c3        1 DLG     -0.093100
     18 H1         -0.6670   -1.6930   -1.1320 h2        1 DLG      0.047700
     19 H2         -1.6650    1.1410   -2.0440 h1        1 DLG      0.071700
     20 H31        -1.9590    0.1130   -4.2970 hc        1 DLG      0.066200
     21 H32        -1.3460   -1.4790   -3.6960 hc        1 DLG      0.066200
     22 H4          0.5080   -0.3700   -4.8440 h1        1 DLG      0.045700
     23 H5          1.1860   -1.5760   -2.8450 h1        1 DLG      0.051700
     24 H61         2.9520   -0.0820   -3.8990 h1        1 DLG      0.065200
     25 H62         2.4560    1.2790   -2.7630 h1        1 DLG      0.065200
     26 HO2        -3.1670   -0.2650   -1.0010 ho        1 DLG      0.419000
     27 HO4        -0.4060    1.8040   -4.4660 ho        1 DLG      0.404000
     28 HO6         3.0660   -0.1930   -1.0780 ho        1 DLG      0.412000
     29 H111        0.9790   -0.3280    0.9510 h1        1 DLG      0.037200
     30 H112       -0.2680   -1.6410    1.2200 h1        1 DLG      0.037200
     31 H121       -1.6570   -0.0270    2.5830 hc        1 DLG      0.054700
     32 H122       -0.4290    1.2690    2.3140 hc        1 DLG      0.054700
     33 H131        1.3210   -0.1520    3.4510 hc        1 DLG      0.041200
     34 H132        0.0940   -1.4510    3.7180 hc        1 DLG      0.041200
     35 H141       -1.3100    0.1530    5.0600 hc        1 DLG      0.041700
     36 H142       -0.0840    1.4500    4.7930 hc        1 DLG      0.041700
     37 H151        1.6640    0.0300    5.9170 hc        1 DLG      0.039200
     38 H152        0.4380   -1.2680    6.1840 hc        1 DLG      0.039200
     39 H161        0.7250    0.1370    8.2250 hc        1 DLG      0.033367
     40 H162        0.2800    1.6230    7.2900 hc        1 DLG      0.033367
     41 H163       -0.9490    0.3220    7.5580 hc        1 DLG      0.033367
@<TRIPOS>BOND
     1    1    2 1   
     2    1    7 1   
     3    1   10 1   
     4    1   18 1   
     5    2    3 1   
     6    2    8 1   
     7    2   19 1   
     8    3    4 1   
     9    3   20 1   
    10    3   21 1   
    11    4    5 1   
    12    4    9 1   
    13    4   22 1   
    14    5    6 1   
    15    5   10 1   
    16    5   23 1   
    17    6   11 1   
    18    6   24 1   
    19    6   25 1   
    20    7   12 1   
    21    8   26 1   
    22    9   27 1   
    23   11   28 1   
    24   12   13 1   
    25   12   29 1   
    26   12   30 1   
    27   13   14 1   
    28   13   31 1   
    29   13   32 1   
    30   14   15 1   
    31   14   33 1   
    32   14   34 1   
    33   15   16 1   
    34   15   35 1   
    35   15   36 1   
    36   16   17 1   
    37   16   37 1   
    38   16   38 1   
    39   17   39 1   
    40   17   40 1   
    41   17   41 1   
@<TRIPOS>SUBSTRUCTURE
     1 DLG         1 TEMP              0 ****  ****    0 ROOT
