@<TRIPOS>MOLECULE
DLI
   51    54     1     0     0
SMALL
bcc


@<TRIPOS>ATOM
      1 C4         -0.2590    1.6610    0.3920 ca        1 DLI      0.112900
      2 C5          0.9900    2.2760    0.2370 ca        1 DLI     -0.161000
      3 C6          2.0730    1.8460    1.0190 ca        1 DLI      0.148900
      4 C7         -1.8120   -0.0130    1.3990 c3        1 DLI     -0.045400
      5 C8         -1.9980   -1.1700    2.4140 c3        1 DLI      0.150800
      6 C10        -3.8960   -9.2740    3.5810 c3        1 DLI     -0.368300
      7 C17        -5.9410   -2.1790    0.7510 ca        1 DLI      0.670900
      8 C20        -4.6710   -3.0770    2.9560 ca        1 DLI     -0.310600
      9 C21        -6.0430   -5.1550    2.8930 cp        1 DLI     -0.213500
     10 C24        -7.6870   -6.8370    3.4620 ca        1 DLI     -0.155000
     11 C26        -5.3540   -7.1880    4.0410 ca        1 DLI     -0.374500
     12 C1          1.8850    0.7880    1.9500 ca        1 DLI      0.107900
     13 C2          0.6220    0.1860    2.0860 ca        1 DLI     -0.109000
     14 C3         -0.4640    0.6150    1.3260 ca        1 DLI     -0.126300
     15 C9         -2.9040    1.0280    1.8050 c3        1 DLI      0.085500
     16 F10        -1.2940    2.0840   -0.3830 f         1 DLI     -0.166900
     17 N11        -3.3210   -1.0350    3.0420 nh        1 DLI     -0.670300
     18 C12        -3.5910    0.4010    3.0580 c3        1 DLI      0.137800
     19 F13         3.2800    2.4270    0.8850 f         1 DLI     -0.090900
     20 C14        -4.3400   -1.8260    2.3870 ca        1 DLI      0.585200
     21 F15         2.9200    0.3580    2.7020 f         1 DLI     -0.095900
     22 N16        -4.9800   -1.3710    1.2600 nb        1 DLI     -0.845000
     23 N18        -6.3300   -3.3910    1.2180 nb        1 DLI     -0.672000
     24 C19        -5.6860   -3.8470    2.3250 cp        1 DLI      0.539800
     25 N22        -3.8880    1.2520    0.7030 nz        1 DLI     -0.855600
     26 C23        -7.3700   -5.6110    2.8800 ca        1 DLI     -0.017000
     27 C25        -6.6880   -7.6150    4.0450 ca        1 DLI      0.012000
     28 C27        -5.0450   -5.9540    3.4630 ca        1 DLI      0.003000
     29 S1         -4.1350   -8.1040    4.7710 sy        1 DLI      1.396300
     30 O2         -2.9870   -7.3020    4.8770 o         1 DLI     -0.650300
     31 O1         -4.6320   -8.7070    5.9290 o         1 DLI     -0.650300
     32 H5          1.1270    3.0870   -0.4970 ha        1 DLI      0.189000
     33 H7         -2.0260   -0.4290    0.3700 hc        1 DLI      0.082700
     34 H81        -1.2600   -1.1000    3.2600 h1        1 DLI      0.096200
     35 H82        -1.8730   -2.1640    1.9090 h1        1 DLI      0.096200
     36 H101       -3.1760  -10.0610    3.9270 h1        1 DLI      0.122033
     37 H102       -3.4700   -8.8640    2.6330 h1        1 DLI      0.122033
     38 H103       -4.8300   -9.8200    3.2990 h1        1 DLI      0.122033
     39 H17        -6.4720   -1.8170   -0.1570 h5        1 DLI      0.063100
     40 H20        -4.1740   -3.4400    3.8680 ha        1 DLI      0.192000
     41 H24        -8.7300   -7.1890    3.4660 ha        1 DLI      0.159000
     42 H2          0.5340   -0.6440    2.8060 ha        1 DLI      0.172000
     43 H9         -2.4400    2.0240    2.0530 hx        1 DLI      0.122700
     44 H121       -3.0800    0.8180    3.9740 h1        1 DLI      0.101700
     45 H122       -4.6850    0.6320    3.1330 h1        1 DLI      0.101700
     46 H221       -4.4190    0.3670    0.5400 hn        1 DLI      0.468800
     47 H222       -3.3910    1.5230   -0.1520 hn        1 DLI      0.468800
     48 H23        -8.1650   -5.0020    2.4180 ha        1 DLI      0.158000
     49 H25        -6.9490   -8.5740    4.5280 ha        1 DLI      0.163000
     50 H27        -3.9920   -5.6140    3.4660 ha        1 DLI      0.161000
     51 H223       -4.5420    1.9900    0.9670 hn        1 DLI      0.468800
@<TRIPOS>BOND
     1    1    2 ar  
     2    1   14 ar  
     3    1   16 1   
     4    2    3 ar  
     5    2   32 1   
     6    3   12 ar  
     7    3   19 1   
     8    4    5 1   
     9    4   14 1   
    10    4   15 1   
    11    4   33 1   
    12    5   17 1   
    13    5   34 1   
    14    5   35 1   
    15    6   29 1   
    16    6   36 1   
    17    6   37 1   
    18    6   38 1   
    19    7   22 ar  
    20    7   23 ar  
    21    7   39 1   
    22    8   20 ar  
    23    8   24 ar  
    24    8   40 1   
    25    9   24 1   
    26    9   26 ar  
    27    9   28 ar  
    28   10   26 ar  
    29   10   27 ar  
    30   10   41 1   
    31   11   27 ar  
    32   11   28 ar  
    33   11   29 1   
    34   12   13 ar  
    35   12   21 1   
    36   13   14 ar  
    37   13   42 1   
    38   15   18 1   
    39   15   25 1   
    40   15   43 1   
    41   17   18 1   
    42   17   20 1   
    43   18   44 1   
    44   18   45 1   
    45   20   22 ar  
    46   23   24 ar  
    47   25   46 1   
    48   25   47 1   
    49   25   51 1   
    50   26   48 1   
    51   27   49 1   
    52   28   50 1   
    53   29   30 2   
    54   29   31 2   
@<TRIPOS>SUBSTRUCTURE
     1 DLI         1 TEMP              0 ****  ****    0 ROOT
