@<TRIPOS>MOLECULE
DLI
   50    44     1     0     0
SMALL
bcc


@<TRIPOS>ATOM
      1 C4          4.4230    2.8390   -0.3750 c1        1 DLI      0.117000
      2 C5          5.6890    3.3720   -0.5570 c1        1 DLI     -0.184000
      3 C6          6.2380    3.4340   -1.8270 c1        1 DLI      0.069000
      4 C7          2.1970    1.9010   -1.3910 c3        1 DLI     -0.074000
      5 C8          2.0170    1.0670   -0.3500 c3        1 DLI     -0.046000
      6 C10        -3.6890   -6.7730    1.7120 c3        1 DLI     -0.937000
      7 C17        -2.7070    0.8710   -1.0540 c1        1 DLI      0.005000
      8 C20        -0.6780   -0.4280    0.1880 c1        1 DLI     -0.281000
      9 C21        -2.6740   -1.7620    1.1530 c1        1 DLI     -0.071000
     10 C24        -3.6750   -2.3430    3.2600 c1        1 DLI     -0.161000
     11 C26        -3.8040   -3.8700    1.4090 c1        1 DLI     -0.836000
     12 C1          5.5230    2.9640   -2.9130 c1        1 DLI      0.069000
     13 C2          4.2560    2.4300   -2.7310 c1        1 DLI     -0.119000
     14 C3          3.7070    2.3690   -1.4630 c2        1 DLI     -0.066000
     15 C9          1.2840    3.0960   -1.1050 c3        1 DLI     -0.023000
     16 F10         3.9080    2.7440    0.8580 f         1 DLI     -0.098000
     17 N11         0.5400    1.3500    0.2040 n3        1 DLI     -0.236000
     18 C12         0.3520    2.6410    0.0940 c3        1 DLI     -0.083000
     19 F13         7.4580    3.9650   -2.0060 f         1 DLI     -0.084000
     20 C14        -0.4160    0.6570   -0.6080 c2        1 DLI      0.155000
     21 F15         6.0470    3.0370   -4.1410 f         1 DLI     -0.084000
     22 N16        -1.4250    1.2990   -1.2220 n2        1 DLI     -0.226000
     23 N18        -2.9700   -0.2120   -0.2590 n1        1 DLI     -0.192000
     24 C19        -1.9630   -0.8560    0.3560 c1        1 DLI      0.079000
     25 N22         2.0170    4.1700   -0.7460 n3        1 DLI     -0.341000
     26 C23        -2.9640   -1.4470    2.4710 c1        1 DLI     -0.049000
     27 C25        -4.0950   -3.5540    2.7280 c2        1 DLI     -0.010000
     28 C27        -3.0930   -2.9740    0.6200 c1        1 DLI      0.022000
     29 S1         -4.4230   -5.4210    0.8070 s4        1 DLI      2.078800
     30 O2         -5.8620   -5.4700    0.8710 o         1 DLI     -0.541900
     31 O1         -4.2010   -5.5590   -0.6060 o         1 DLI     -0.541900
     32 H5          6.1930    3.7030    0.2090 ha        1 DLI      0.172000
     33 H7          1.9340    1.4630   -2.2290 hc        1 DLI      0.106000
     34 H81         2.6780    1.2520    0.3470 h1        1 DLI      0.098000
     35 H82         2.0920    0.1380   -0.6460 h1        1 DLI      0.098000
     36 H101       -3.8600   -7.6160    1.2380 h1        1 DLI      0.152667
     37 H102       -2.7220   -6.6300    1.7860 h1        1 DLI      0.152667
     38 H103       -4.0830   -6.8180    2.6110 h1        1 DLI      0.152667
     39 H17        -3.4420    1.3400   -1.5020 ha        1 DLI      0.194000
     40 H20         0.0570   -0.8950    0.6380 ha        1 DLI      0.153000
     41 H24        -3.8800   -2.1210    4.1870 ha        1 DLI      0.146000
     42 H2          3.7510    2.0990   -3.4970 ha        1 DLI      0.158000
     43 H9          0.7420    3.3040   -1.8930 h1        1 DLI      0.111000
     44 H121       -0.5820    2.8300   -0.1130 h1        1 DLI      0.103000
     45 H122        0.6150    3.0930    0.9180 h1        1 DLI      0.103000
     46 H221        1.8790    4.8480   -1.3470 hn        1 DLI      0.158000
     47 H222        1.7640    4.4480    0.0950 hn        1 DLI      0.158000
     48 H23        -2.6690   -0.5930    2.8460 ha        1 DLI      0.144000
     49 H25        -4.5950   -4.1860    3.2840 ha        1 DLI      0.159000
     50 H27        -2.8880   -3.1960   -0.3080 ha        1 DLI      0.172000
@<TRIPOS>BOND
     1    1    2 1   
     2    1   14 1   
     3    2   32 1   
     4    3   12 1   
     5    3   19 1   
     6    4    5 1   
     7    4   14 1   
     8    4   15 1   
     9    4   33 1   
    10    5   17 1   
    11    5   34 1   
    12    5   35 1   
    13    6   29 1   
    14    6   36 1   
    15    6   37 1   
    16    6   38 1   
    17    7   22 1   
    18    7   39 1   
    19    8   20 1   
    20    8   40 1   
    21    9   26 1   
    22   10   27 1   
    23   10   41 1   
    24   11   27 1   
    25   11   28 1   
    26   12   21 1   
    27   13   14 1   
    28   13   42 1   
    29   15   18 1   
    30   15   25 1   
    31   15   43 1   
    32   17   18 1   
    33   17   20 1   
    34   18   44 1   
    35   18   45 1   
    36   20   22 1   
    37   23   24 1   
    38   25   46 1   
    39   25   47 1   
    40   26   48 1   
    41   27   49 1   
    42   28   50 1   
    43   29   30 1   
    44   29   31 1   
@<TRIPOS>SUBSTRUCTURE
     1 DLI         1 TEMP              0 ****  ****    0 ROOT
