@<TRIPOS>MOLECULE
DLI
   51    54     1     0     0
SMALL
bcc


@<TRIPOS>ATOM
      1 C4         -0.2630    1.6510    0.3630 ca        1 DLI      0.112900
      2 C5          0.9860    2.2630    0.1970 ca        1 DLI     -0.161000
      3 C6          2.0740    1.8310    0.9710 ca        1 DLI      0.148900
      4 C7         -1.8120   -0.0180    1.3840 c3        1 DLI     -0.045400
      5 C8         -1.9930   -1.1740    2.4010 c3        1 DLI      0.150800
      6 C10        -3.9060   -9.2730    3.5890 c3        1 DLI     -0.368300
      7 C17        -5.9540   -2.1720    0.7730 ca        1 DLI      0.670900
      8 C20        -4.6670   -3.0740    2.9670 ca        1 DLI     -0.310600
      9 C21        -6.0450   -5.1470    2.9170 cp        1 DLI     -0.213500
     10 C24        -7.6890   -6.8240    3.5020 ca        1 DLI     -0.155000
     11 C26        -5.3530   -7.1820    4.0600 ca        1 DLI     -0.374500
     12 C1          1.8910    0.7740    1.9050 ca        1 DLI      0.107900
     13 C2          0.6270    0.1760    2.0520 ca        1 DLI     -0.109000
     14 C3         -0.4640    0.6060    1.3000 ca        1 DLI     -0.126300
     15 C9         -2.8980    1.0260    1.8000 c3        1 DLI      0.085500
     16 F10        -1.3040    2.0750   -0.4040 f         1 DLI     -0.166900
     17 N11        -3.3110   -1.0350    3.0410 nh        1 DLI     -0.670300
     18 C12        -3.5760    0.4020    3.0580 c3        1 DLI      0.137800
     19 F13         3.2810    2.4090    0.8270 f         1 DLI     -0.090900
     20 C14        -4.3370   -1.8240    2.3950 ca        1 DLI      0.585200
     21 F15         2.9300    0.3430    2.6490 f         1 DLI     -0.095900
     22 N16        -4.9860   -1.3670    1.2730 nb        1 DLI     -0.845000
     23 N18        -6.3420   -3.3830    1.2440 nb        1 DLI     -0.672000
     24 C19        -5.6900   -3.8410    2.3460 cp        1 DLI      0.539800
     25 N22        -3.8910    1.2520    0.7060 n4        1 DLI     -0.855600
     26 C23        -7.3740   -5.5990    2.9160 ca        1 DLI     -0.017000
     27 C25        -6.6870   -7.6050    4.0760 ca        1 DLI      0.012000
     28 C27        -5.0450   -5.9490    3.4780 ca        1 DLI      0.003000
     29 S1         -4.1290   -8.1010    4.7800 sy        1 DLI      1.396300
     30 O2         -2.9780   -7.3030    4.8750 o         1 DLI     -0.650300
     31 O1         -4.6180   -8.7010    5.9430 o         1 DLI     -0.650300
     32 H5          1.1190    3.0720   -0.5380 ha        1 DLI      0.189000
     33 H7         -2.0370   -0.4340    0.3570 hc        1 DLI      0.082700
     34 H81        -1.2480   -1.1070    3.2400 h1        1 DLI      0.096200
     35 H82        -1.8760   -2.1690    1.8950 h1        1 DLI      0.096200
     36 H101       -3.4870   -8.8650    2.6360 h1        1 DLI      0.122033
     37 H102       -4.8440   -9.8170    3.3160 h1        1 DLI      0.122033
     38 H103       -3.1840  -10.0620    3.9290 h1        1 DLI      0.122033
     39 H17        -6.4920   -1.8100   -0.1300 h5        1 DLI      0.063100
     40 H20        -4.1630   -3.4370    3.8750 ha        1 DLI      0.192000
     41 H24        -8.7340   -7.1730    3.5150 ha        1 DLI      0.159000
     42 H2          0.5440   -0.6520    2.7740 ha        1 DLI      0.172000
     43 H9         -2.4300    2.0210    2.0430 hx        1 DLI      0.122700
     44 H121       -4.6690    0.6360    3.1430 h1        1 DLI      0.101700
     45 H122       -3.0560    0.8180    3.9690 h1        1 DLI      0.101700
     46 H221       -3.4010    1.5220   -0.1540 hn        1 DLI      0.468800
     47 H222       -4.4260    0.3690    0.5470 hn        1 DLI      0.468800
     48 H23        -8.1710   -4.9880    2.4610 ha        1 DLI      0.158000
     49 H25        -6.9470   -8.5630    4.5630 ha        1 DLI      0.163000
     50 H27        -3.9910   -5.6120    3.4720 ha        1 DLI      0.161000
     51 H223       -4.5410    1.9920    0.9740 hn        1 DLI      0.468800
@<TRIPOS>BOND
     1    1    2 ar  
     2    1   14 ar  
     3    1   16 1   
     4    2    3 ar  
     5    2   32 1   
     6    3   12 ar  
     7    3   19 1   
     8    4    5 1   
     9    4   14 1   
    10    4   15 1   
    11    4   33 1   
    12    5   17 1   
    13    5   34 1   
    14    5   35 1   
    15    6   29 1   
    16    6   36 1   
    17    6   37 1   
    18    6   38 1   
    19    7   22 ar  
    20    7   23 ar  
    21    7   39 1   
    22    8   20 ar  
    23    8   24 ar  
    24    8   40 1   
    25    9   24 1   
    26    9   26 ar  
    27    9   28 ar  
    28   10   26 ar  
    29   10   27 ar  
    30   10   41 1   
    31   11   27 ar  
    32   11   28 ar  
    33   11   29 1   
    34   12   13 ar  
    35   12   21 1   
    36   13   14 ar  
    37   13   42 1   
    38   15   18 1   
    39   15   25 1   
    40   15   43 1   
    41   17   18 1   
    42   17   20 1   
    43   18   44 1   
    44   18   45 1   
    45   20   22 ar  
    46   23   24 ar  
    47   25   46 1   
    48   25   47 1   
    49   25   51 1   
    50   26   48 1   
    51   27   49 1   
    52   28   50 1   
    53   29   30 2   
    54   29   31 2   
@<TRIPOS>SUBSTRUCTURE
     1 DLI         1 TEMP              0 ****  ****    0 ROOT
