@<TRIPOS>MOLECULE
DLI
   50    53     1     0     0
SMALL
bcc


@<TRIPOS>ATOM
      1 C4          2.7140   -0.0220    2.6650 ca        1 DLI      0.135900
      2 C5          4.0240   -0.1200    3.1620 ca        1 DLI     -0.182000
      3 C6          4.7390   -1.3130    3.0050 ca        1 DLI      0.123900
      4 C7          0.7120   -1.0030    1.4860 c3        1 DLI     -0.081400
      5 C8          0.6210   -1.3190   -0.0220 c3        1 DLI      0.203800
      6 C10         3.6600    0.1560   -6.1980 c3        1 DLI     -0.357300
      7 C17        -2.8820   -3.0660   -2.7430 ca        1 DLI      0.669900
      8 C20        -0.4650   -1.8930   -2.6310 ca        1 DLI     -0.413600
      9 C21        -0.4880   -1.6170   -5.1020 cp        1 DLI     -0.177500
     10 C24        -0.6330   -0.6610   -7.3220 ca        1 DLI     -0.163000
     11 C26         1.5340   -1.2830   -6.4190 ca        1 DLI     -0.392500
     12 C1          4.1330   -2.4160    2.3420 ca        1 DLI      0.087900
     13 C2          2.8250   -2.2970    1.8520 ca        1 DLI     -0.120000
     14 C3          2.1020   -1.1110    2.0040 ca        1 DLI     -0.101300
     15 C9         -0.2580   -2.0070    2.1900 c3        1 DLI      0.168500
     16 F10         2.0430    1.1440    2.8330 f         1 DLI     -0.133900
     17 N11        -0.4370   -2.2970   -0.2140 nh        1 DLI     -0.758300
     18 C12        -1.1310   -2.5820    1.0330 c3        1 DLI      0.203800
     19 F13         5.9990   -1.4180    3.4800 f         1 DLI     -0.114900
     20 C14        -1.1050   -2.3600   -1.4370 ca        1 DLI      0.684200
     21 F15         4.8170   -3.5710    2.1880 f         1 DLI     -0.115900
     22 N16        -2.3480   -2.9520   -1.5050 nb        1 DLI     -0.750000
     23 N18        -2.3580   -2.6650   -3.9260 nb        1 DLI     -0.727000
     24 C19        -1.1310   -2.0760   -3.8570 cp        1 DLI      0.517800
     25 N22        -1.0460   -1.4830    3.2720 n3        1 DLI     -0.902800
     26 C23        -1.2560   -1.0870   -6.1490 ca        1 DLI     -0.023000
     27 C25         0.7480   -0.7600   -7.4560 ca        1 DLI     -0.009000
     28 C27         0.8990   -1.7190   -5.2510 ca        1 DLI     -0.001000
     29 S1          3.1950   -1.4250   -6.5930 sy        1 DLI      1.398300
     30 O2          3.7050   -2.3020   -5.6250 o         1 DLI     -0.655800
     31 O1          3.5230   -1.6670   -7.9340 o         1 DLI     -0.655800
     32 H5          4.4870    0.7370    3.6740 ha        1 DLI      0.173000
     33 H7          0.3420    0.0490    1.6420 hc        1 DLI      0.075700
     34 H81         0.4210   -0.3720   -0.5980 h1        1 DLI      0.056700
     35 H82         1.5830   -1.7610   -0.4040 h1        1 DLI      0.056700
     36 H101        3.4540    0.4190   -5.1320 h1        1 DLI      0.113033
     37 H102        4.7600    0.3000   -6.3480 h1        1 DLI      0.113033
     38 H103        3.1560    0.9320   -6.8230 h1        1 DLI      0.113033
     39 H17        -3.8820   -3.5510   -2.7900 h5        1 DLI      0.056100
     40 H20         0.5210   -1.4160   -2.5990 ha        1 DLI      0.153000
     41 H24        -1.2380   -0.2540   -8.1470 ha        1 DLI      0.147000
     42 H2          2.3660   -3.1590    1.3390 ha        1 DLI      0.171000
     43 H9          0.3580   -2.8530    2.6150 h1        1 DLI      0.077700
     44 H121       -1.2280   -3.6960    1.1420 h1        1 DLI      0.072200
     45 H122       -2.1670   -2.1410    1.0430 h1        1 DLI      0.072200
     46 H221       -1.6560   -0.7500    2.9680 hn        1 DLI      0.359800
     47 H222       -0.4590   -1.1490    4.0100 hn        1 DLI      0.359800
     48 H23        -2.3510   -1.0120   -6.0510 ha        1 DLI      0.159000
     49 H25         1.2370   -0.4430   -8.3940 ha        1 DLI      0.153000
     50 H27         1.5100   -2.1730   -4.4480 ha        1 DLI      0.163000
@<TRIPOS>BOND
     1    1    2 ar  
     2    1   14 ar  
     3    1   16 1   
     4    2    3 ar  
     5    2   32 1   
     6    3   12 ar  
     7    3   19 1   
     8    4    5 1   
     9    4   14 1   
    10    4   15 1   
    11    4   33 1   
    12    5   17 1   
    13    5   34 1   
    14    5   35 1   
    15    6   29 1   
    16    6   36 1   
    17    6   37 1   
    18    6   38 1   
    19    7   22 ar  
    20    7   23 ar  
    21    7   39 1   
    22    8   20 ar  
    23    8   24 ar  
    24    8   40 1   
    25    9   24 1   
    26    9   26 ar  
    27    9   28 ar  
    28   10   26 ar  
    29   10   27 ar  
    30   10   41 1   
    31   11   27 ar  
    32   11   28 ar  
    33   11   29 1   
    34   12   13 ar  
    35   12   21 1   
    36   13   14 ar  
    37   13   42 1   
    38   15   18 1   
    39   15   25 1   
    40   15   43 1   
    41   17   18 1   
    42   17   20 1   
    43   18   44 1   
    44   18   45 1   
    45   20   22 ar  
    46   23   24 ar  
    47   25   46 1   
    48   25   47 1   
    49   26   48 1   
    50   27   49 1   
    51   28   50 1   
    52   29   30 2   
    53   29   31 2   
@<TRIPOS>SUBSTRUCTURE
     1 DLI         1 TEMP              0 ****  ****    0 ROOT
