@<TRIPOS>MOLECULE
DLI
   51    54     1     0     0
SMALL
bcc


@<TRIPOS>ATOM
      1 C4         -0.3000    1.6740    0.3670 ca        1 DLI      0.112900
      2 C5          0.9460    2.2920    0.2010 ca        1 DLI     -0.161000
      3 C6          2.0380    1.8610    0.9690 ca        1 DLI      0.148900
      4 C7         -1.8380   -0.0080    1.3850 c3        1 DLI     -0.045400
      5 C8         -2.0110   -1.1660    2.4010 c3        1 DLI      0.150800
      6 C10        -3.8750   -9.2760    3.5790 c3        1 DLI     -0.368300
      7 C17        -5.9680   -2.1850    0.7760 ca        1 DLI      0.670900
      8 C20        -4.6730   -3.0810    2.9670 ca        1 DLI     -0.310600
      9 C21        -6.0400   -5.1630    2.9160 cp        1 DLI     -0.213500
     10 C24        -7.6730   -6.8500    3.4990 ca        1 DLI     -0.155000
     11 C26        -5.3340   -7.1950    4.0550 ca        1 DLI     -0.374500
     12 C1          1.8630    0.7980    1.8980 ca        1 DLI      0.107900
     13 C2          0.6030    0.1940    2.0450 ca        1 DLI     -0.109000
     14 C3         -0.4930    0.6240    1.3000 ca        1 DLI     -0.126300
     15 C9         -2.9290    1.0300    1.8040 c3        1 DLI      0.085500
     16 F10        -1.3440    2.0980   -0.3950 f         1 DLI     -0.166900
     17 N11        -3.3290   -1.0350    3.0430 nh        1 DLI     -0.670300
     18 C12        -3.6020    0.4000    3.0620 c3        1 DLI      0.137800
     19 F13         3.2420    2.4450    0.8240 f         1 DLI     -0.090900
     20 C14        -4.3510   -1.8290    2.3960 ca        1 DLI      0.585200
     21 F15         2.9060    0.3670    2.6360 f         1 DLI     -0.095900
     22 N16        -5.0040   -1.3740    1.2760 nb        1 DLI     -0.845000
     23 N18        -6.3480   -3.3980    1.2450 nb        1 DLI     -0.672000
     24 C19        -5.6930   -3.8540    2.3450 cp        1 DLI      0.539800
     25 N22        -3.9250    1.2520    0.7110 n4        1 DLI     -0.855600
     26 C23        -7.3660   -5.6230    2.9150 ca        1 DLI     -0.017000
     27 C25        -6.6670   -7.6260    4.0710 ca        1 DLI      0.012000
     28 C27        -5.0350   -5.9590    3.4750 ca        1 DLI      0.003000
     29 S1         -4.1050   -8.1080    4.7720 sy        1 DLI      1.396300
     30 O2         -2.9590   -7.3030    4.8680 o         1 DLI     -0.650300
     31 O1         -4.5900   -8.7130    5.9340 o         1 DLI     -0.650300
     32 H5          1.0730    3.1060   -0.5310 ha        1 DLI      0.189000
     33 H7         -2.0620   -0.4230    0.3580 hc        1 DLI      0.082700
     34 H81        -1.2660   -1.0940    3.2400 h1        1 DLI      0.096200
     35 H82        -1.8880   -2.1590    1.8940 h1        1 DLI      0.096200
     36 H101       -3.4590   -8.8640    2.6280 h1        1 DLI      0.122033
     37 H102       -4.8090   -9.8250    3.3060 h1        1 DLI      0.122033
     38 H103       -3.1490  -10.0620    3.9180 h1        1 DLI      0.122033
     39 H17        -6.5080   -1.8240   -0.1260 h5        1 DLI      0.063100
     40 H20        -4.1660   -3.4430    3.8740 ha        1 DLI      0.192000
     41 H24        -8.7160   -7.2050    3.5120 ha        1 DLI      0.159000
     42 H2          0.5250   -0.6390    2.7630 ha        1 DLI      0.172000
     43 H9         -2.4660    2.0270    2.0480 hx        1 DLI      0.122700
     44 H121       -4.6960    0.6280    3.1490 h1        1 DLI      0.101700
     45 H122       -3.0840    0.8180    3.9730 h1        1 DLI      0.101700
     46 H221       -4.5780    1.9880    0.9820 hn        1 DLI      0.468800
     47 H222       -3.4370    1.5260   -0.1480 hn        1 DLI      0.468800
     48 H23        -8.1660   -5.0160    2.4610 ha        1 DLI      0.158000
     49 H25        -6.9200   -8.5860    4.5560 ha        1 DLI      0.163000
     50 H27        -3.9820   -5.6170    3.4680 ha        1 DLI      0.161000
     51 H223       -4.4550    0.3660    0.5520 hn        1 DLI      0.468800
@<TRIPOS>BOND
     1    1    2 ar  
     2    1   14 ar  
     3    1   16 1   
     4    2    3 ar  
     5    2   32 1   
     6    3   12 ar  
     7    3   19 1   
     8    4    5 1   
     9    4   14 1   
    10    4   15 1   
    11    4   33 1   
    12    5   17 1   
    13    5   34 1   
    14    5   35 1   
    15    6   29 1   
    16    6   36 1   
    17    6   37 1   
    18    6   38 1   
    19    7   22 ar  
    20    7   23 ar  
    21    7   39 1   
    22    8   20 ar  
    23    8   24 ar  
    24    8   40 1   
    25    9   24 1   
    26    9   26 ar  
    27    9   28 ar  
    28   10   26 ar  
    29   10   27 ar  
    30   10   41 1   
    31   11   27 ar  
    32   11   28 ar  
    33   11   29 1   
    34   12   13 ar  
    35   12   21 1   
    36   13   14 ar  
    37   13   42 1   
    38   15   18 1   
    39   15   25 1   
    40   15   43 1   
    41   17   18 1   
    42   17   20 1   
    43   18   44 1   
    44   18   45 1   
    45   20   22 ar  
    46   23   24 ar  
    47   25   46 1   
    48   25   47 1   
    49   25   51 1   
    50   26   48 1   
    51   27   49 1   
    52   28   50 1   
    53   29   30 2   
    54   29   31 2   
@<TRIPOS>SUBSTRUCTURE
     1 DLI         1 TEMP              0 ****  ****    0 ROOT
