@<TRIPOS>MOLECULE
DLL
   51    54     1     0     0
SMALL
bcc


@<TRIPOS>ATOM
      1 O          -4.2640    1.7290    1.5470 o         1 DLL     -0.596000
      2 CB         -4.4630    0.8000   -0.7340 c3        1 DLL     -0.091100
      3 CG         -5.8370    0.2330   -0.6730 ca        1 DLL     -0.066300
      4 CD2        -6.7640    0.6670    0.2820 ca        1 DLL     -0.120000
      5 CD1        -6.2230   -0.7300   -1.6140 ca        1 DLL     -0.120000
      6 CE2        -8.0580    0.1490    0.2880 ca        1 DLL     -0.137000
      7 CE1        -7.5190   -1.2440   -1.6060 ca        1 DLL     -0.137000
      8 CZ         -8.4400   -0.8040   -0.6560 ca        1 DLL     -0.140000
      9 P          -1.9470    0.8900    2.3250 p5        1 DLL      1.436800
     10 O2P        -2.6580    0.1970    3.4010 o         1 DLL     -0.793500
     11 O3P        -1.4880    2.2810    2.1920 o         1 DLL     -0.793500
     12 O1P        -2.6380    0.4970    0.8140 os        1 DLL     -0.535500
     13 O5'        -0.6120   -0.0400    1.9880 os        1 DLL     -0.555200
     14 C5'         0.2850    0.4620    1.0590 c3        1 DLL      0.177400
     15 O4'         1.2330    0.1210   -1.1510 os        1 DLL     -0.414600
     16 O3'         0.1480   -2.8670   -0.5440 oh        1 DLL     -0.568800
     17 C2'         2.3430   -1.8130   -0.2190 c3        1 DLL      0.073100
     18 O2'         2.6430   -2.9210   -1.0400 oh        1 DLL     -0.588800
     19 C1'         2.5110   -0.4970   -1.0550 c3        1 DLL      0.217800
     20 N9          3.4890    0.4230   -0.5080 na        1 DLL     -0.279000
     21 C8          3.2920    1.7210    0.0190 cc        1 DLL      0.445700
     22 N7          4.4320    2.3260    0.3890 nd        1 DLL     -0.563100
     23 C5          5.4470    1.4000    0.1070 ca        1 DLL     -0.214200
     24 C6          6.8700    1.4290    0.2740 ca        1 DLL      0.739200
     25 CAZ        -3.8340    1.0400    0.6060 c         1 DLL      0.680100
     26 N6          7.4880    2.5740    0.7350 nh        1 DLL     -0.946500
     27 C4'         0.3270   -0.4470   -0.1800 c3        1 DLL      0.064100
     28 N1          7.6040    0.3240   -0.0810 nb        1 DLL     -0.799000
     29 C3'         0.8410   -1.8590    0.1520 c3        1 DLL      0.133100
     30 C2          6.9290   -0.7380   -0.6000 ca        1 DLL      0.672900
     31 C4          4.8690    0.1860   -0.4600 ca        1 DLL      0.438800
     32 N3          5.6070   -0.9070   -0.8260 nb        1 DLL     -0.745000
     33 HB1C       -3.7890    0.1240   -1.3260 hc        1 DLL      0.073700
     34 HB2C       -4.5030    1.7950   -1.2590 hc        1 DLL      0.073700
     35 HD2        -6.4540    1.4070    1.0420 ha        1 DLL      0.150500
     36 HD1        -5.4970   -1.0880   -2.3590 ha        1 DLL      0.150500
     37 HE2        -8.7770    0.4910    1.0470 ha        1 DLL      0.122500
     38 HE1        -7.8110   -2.0010   -2.3460 ha        1 DLL      0.122500
     39 HZ         -9.4600   -1.2120   -0.6470 ha        1 DLL      0.118000
     40 H5'1        0.0050    1.5080    0.7460 h1        1 DLL      0.038200
     41 H5'2        1.3140    0.4770    1.5220 h1        1 DLL      0.038200
     42 H4'        -0.6740   -0.4750   -0.6890 h1        1 DLL      0.111700
     43 H1'         2.8240   -0.7390   -2.1170 h2        1 DLL      0.090700
     44 H3'         0.3580   -2.7700   -1.4810 ho        1 DLL      0.401000
     45 HA          0.6750   -2.0910    1.2400 h1        1 DLL      0.131700
     46 H2'         2.9800   -1.8150    0.7020 h1        1 DLL      0.071700
     47 HB          3.6050   -2.9370   -1.1400 ho        1 DLL      0.418000
     48 H8          2.2760    2.1410    0.1010 h5        1 DLL      0.105800
     49 H61N        6.9060    3.2530    1.1650 hn        1 DLL      0.433300
     50 H62N        8.4330    2.5230    1.0280 hn        1 DLL      0.433300
     51 H2          7.5720   -1.6010   -0.8760 h5        1 DLL      0.042100
@<TRIPOS>BOND
     1    1   25 2   
     2    2    3 1   
     3    2   25 1   
     4    2   33 1   
     5    2   34 1   
     6    3    4 ar  
     7    3    5 ar  
     8    4    6 ar  
     9    4   35 1   
    10    5    7 ar  
    11    5   36 1   
    12    6    8 ar  
    13    6   37 1   
    14    7    8 ar  
    15    7   38 1   
    16    8   39 1   
    17    9   10 1   
    18    9   11 1   
    19    9   12 1   
    20    9   13 1   
    21   12   25 1   
    22   13   14 1   
    23   14   27 1   
    24   14   40 1   
    25   14   41 1   
    26   15   19 1   
    27   15   27 1   
    28   16   29 1   
    29   16   44 1   
    30   17   18 1   
    31   17   19 1   
    32   17   29 1   
    33   17   46 1   
    34   18   47 1   
    35   19   20 1   
    36   19   43 1   
    37   20   21 1   
    38   20   31 1   
    39   21   22 2   
    40   21   48 1   
    41   22   23 1   
    42   23   24 ar  
    43   23   31 ar  
    44   24   26 1   
    45   24   28 ar  
    46   26   49 1   
    47   26   50 1   
    48   27   29 1   
    49   27   42 1   
    50   28   30 ar  
    51   29   45 1   
    52   30   32 ar  
    53   30   51 1   
    54   31   32 ar  
@<TRIPOS>SUBSTRUCTURE
     1 DLL         1 TEMP              0 ****  ****    0 ROOT
