@<TRIPOS>MOLECULE
DLL
   51    54     1     0     0
SMALL
bcc


@<TRIPOS>ATOM
      1 O          -0.0450   -1.0610   -2.1200 o         1 DLL     -0.594000
      2 CB          1.9900   -1.3960   -0.7560 c3        1 DLL     -0.090100
      3 CG          1.4110   -1.3490    0.6130 ca        1 DLL     -0.068300
      4 CD2         0.0500   -1.5880    0.8380 ca        1 DLL     -0.119500
      5 CD1         2.2530   -1.0970    1.7050 ca        1 DLL     -0.119500
      6 CE2        -0.4570   -1.5800    2.1360 ca        1 DLL     -0.137000
      7 CE1         1.7420   -1.0920    3.0010 ca        1 DLL     -0.137000
      8 CZ          0.3860   -1.3350    3.2200 ca        1 DLL     -0.139000
      9 P           0.6730    0.7620   -3.7970 p5        1 DLL      1.455800
     10 O2P        -0.3980    1.5880   -3.2440 o         1 DLL     -0.811500
     11 O3P         0.6420   -0.3050   -4.8220 o         1 DLL     -0.811500
     12 O1P         1.6760    0.1740   -2.5620 os        1 DLL     -0.538500
     13 O5'         1.8400    1.7840   -4.3720 os        1 DLL     -0.563200
     14 C5'         2.9490    1.2000   -4.9750 c3        1 DLL      0.192400
     15 O4'         3.9150    0.5700   -7.1100 os        1 DLL     -0.427600
     16 O3'         1.3600    2.2430   -8.1660 oh        1 DLL     -0.595800
     17 C2'         1.7200   -0.1380   -7.8190 c3        1 DLL      0.077100
     18 O2'         1.3950   -0.1140   -9.1990 oh        1 DLL     -0.610800
     19 C1'         3.2290   -0.5260   -7.7370 c3        1 DLL      0.249800
     20 N9          3.4780   -1.7710   -7.0500 na        1 DLL     -0.275000
     21 C8          2.8040   -2.3160   -5.9230 cc        1 DLL      0.439700
     22 N7          3.3660   -3.4420   -5.4610 nd        1 DLL     -0.580100
     23 C5          4.4800   -3.6690   -6.2850 ca        1 DLL     -0.211200
     24 C6          5.4770   -4.6940   -6.3100 ca        1 DLL      0.717200
     25 CAZ         1.1230   -0.7760   -1.8090 c         1 DLL      0.682100
     26 N6          5.3840   -5.7720   -5.4420 nv        1 DLL     -0.939500
     27 C4'         2.9850    1.4740   -6.4880 c3        1 DLL      0.080100
     28 N1          6.4830   -4.6220   -7.2410 nb        1 DLL     -0.797000
     29 C3'         1.6300    1.2670   -7.1830 c3        1 DLL      0.091100
     30 C2          6.4450   -3.5840   -8.1210 ca        1 DLL      0.658900
     31 C4          4.5770   -2.6130   -7.2890 ca        1 DLL      0.450800
     32 N3          5.5660   -2.5630   -8.2320 nb        1 DLL     -0.718000
     33 HB1C        2.1450   -2.4710   -1.0510 hc        1 DLL      0.078700
     34 HB2C        2.9910   -0.8850   -0.7750 hc        1 DLL      0.078700
     35 HD2        -0.6190   -1.7630   -0.0230 ha        1 DLL      0.150000
     36 HD1         3.3210   -0.8950    1.5370 ha        1 DLL      0.150000
     37 HE2        -1.5290   -1.7620    2.3030 ha        1 DLL      0.123500
     38 HE1         2.4090   -0.8910    3.8510 ha        1 DLL      0.123500
     39 HZ         -0.0170   -1.3280    4.2420 ha        1 DLL      0.119000
     40 H5'1        2.9560    0.0870   -4.8000 h1        1 DLL      0.035200
     41 H5'2        3.8750    1.6520   -4.5210 h1        1 DLL      0.035200
     42 H4'         3.3920    2.5000   -6.6910 h1        1 DLL      0.076700
     43 H1'         3.6860   -0.6070   -8.7710 h2        1 DLL      0.112700
     44 H3'         2.1010    2.2350   -8.7870 ho        1 DLL      0.399000
     45 HA          0.7820    1.3290   -6.4420 h1        1 DLL      0.138700
     46 H2'         1.0450   -0.8510   -7.2720 h1        1 DLL      0.113700
     47 HB          0.5830    0.4070   -9.2780 ho        1 DLL      0.420000
     48 H8          1.8900   -1.8320   -5.5070 h5        1 DLL      0.155800
     49 H61N        6.1960   -6.3260   -5.3060 hn        1 DLL      0.422300
     50 H62N        4.7980   -5.6390   -4.6520 hn        1 DLL      0.422300
     51 H2          7.2730   -3.5780   -8.8610 h5        1 DLL      0.038100
@<TRIPOS>BOND
     1    1   25 2   
     2    2    3 1   
     3    2   25 1   
     4    2   33 1   
     5    2   34 1   
     6    3    4 ar  
     7    3    5 ar  
     8    4    6 ar  
     9    4   35 1   
    10    5    7 ar  
    11    5   36 1   
    12    6    8 ar  
    13    6   37 1   
    14    7    8 ar  
    15    7   38 1   
    16    8   39 1   
    17    9   10 1   
    18    9   11 1   
    19    9   12 1   
    20    9   13 1   
    21   12   25 1   
    22   13   14 1   
    23   14   27 1   
    24   14   40 1   
    25   14   41 1   
    26   15   19 1   
    27   15   27 1   
    28   16   29 1   
    29   16   44 1   
    30   17   18 1   
    31   17   19 1   
    32   17   29 1   
    33   17   46 1   
    34   18   47 1   
    35   19   20 1   
    36   19   43 1   
    37   20   21 1   
    38   20   31 1   
    39   21   22 2   
    40   21   48 1   
    41   22   23 1   
    42   23   24 ar  
    43   23   31 ar  
    44   24   26 1   
    45   24   28 ar  
    46   26   49 1   
    47   26   50 1   
    48   27   29 1   
    49   27   42 1   
    50   28   30 ar  
    51   29   45 1   
    52   30   32 ar  
    53   30   51 1   
    54   31   32 ar  
@<TRIPOS>SUBSTRUCTURE
     1 DLL         1 TEMP              0 ****  ****    0 ROOT
