@<TRIPOS>MOLECULE
DLL
   52    55     1     0     0
SMALL
bcc


@<TRIPOS>ATOM
      1 O           1.1100   -2.2870   -1.0640 o         1 DLL     -0.593000
      2 CB          2.3240   -0.8490    0.5480 c3        1 DLL     -0.082100
      3 CG          1.2690   -0.5960    1.5660 ca        1 DLL     -0.080300
      4 CD2         0.1830   -1.4660    1.7160 ca        1 DLL     -0.118000
      5 CD1         1.3840    0.5120    2.4140 ca        1 DLL     -0.118000
      6 CE2        -0.7710   -1.2310    2.7040 ca        1 DLL     -0.133000
      7 CE1         0.4290    0.7420    3.4030 ca        1 DLL     -0.133000
      8 CZ         -0.6490   -0.1300    3.5510 ca        1 DLL     -0.131000
      9 P           1.4850   -1.0920   -3.2920 p5        1 DLL      1.450800
     10 O2P         2.2680   -2.2640   -3.7330 o         1 DLL     -0.808500
     11 O3P         0.0480   -0.8370   -3.4140 o         1 DLL     -0.808500
     12 O1P         2.0930   -0.5250   -1.8360 os        1 DLL     -0.528500
     13 O5'         2.2340    0.0910   -4.2010 os        1 DLL     -0.559200
     14 C5'         1.5950    0.2580   -5.4240 c3        1 DLL      0.159400
     15 O4'         3.8130    0.6050   -6.4240 os        1 DLL     -0.374600
     16 O3'         2.0800    2.3270   -8.4410 oh        1 DLL     -0.605800
     17 C2'         2.7640    0.0400   -8.5290 c3        1 DLL      0.130100
     18 O2'         3.2230    0.4520   -9.7870 oh        1 DLL     -0.569800
     19 C1'         3.9770   -0.2200   -7.5660 c3        1 DLL      0.209800
     20 N9          4.1300   -1.6120   -7.1540 na        1 DLL     -0.286000
     21 C8          4.0060   -2.1640   -5.8540 cc        1 DLL      0.579700
     22 N7          4.3740   -3.4650   -5.7840 nd        1 DLL     -0.597100
     23 C5          4.7450   -3.8080   -7.0770 ca        1 DLL     -0.106200
     24 C6          5.1660   -4.9980   -7.6820 ca        1 DLL      0.458200
     25 CAZ         1.7840   -1.2830   -0.7780 c         1 DLL      0.684100
     26 N6          5.2510   -6.1970   -6.8310 n4        1 DLL     -0.805300
     27 C4'         2.4640    1.1090   -6.3480 c3        1 DLL      0.090100
     28 N1          5.4820   -5.0710   -9.0060 nb        1 DLL     -0.695000
     29 C3'         1.9030    1.0860   -7.7820 c3        1 DLL      0.077100
     30 C2          5.3540   -3.9210   -9.7140 ca        1 DLL      0.637900
     31 C4          4.6200   -2.6310   -7.9850 ca        1 DLL      0.440800
     32 N3          4.9360   -2.6890   -9.2940 nb        1 DLL     -0.620000
     33 HB1C        2.9500    0.0720    0.3940 hc        1 DLL      0.079200
     34 HB2C        3.0000   -1.6710    0.9160 hc        1 DLL      0.079200
     35 HD2         0.0790   -2.3270    1.0330 ha        1 DLL      0.147000
     36 HD1         2.2290    1.2080    2.2970 ha        1 DLL      0.147000
     37 HE2        -1.6260   -1.9160    2.8110 ha        1 DLL      0.128500
     38 HE1         0.5260    1.6150    4.0640 ha        1 DLL      0.128500
     39 HZ         -1.4030    0.0540    4.3290 ha        1 DLL      0.126000
     40 H5'1        1.4200   -0.7540   -5.8930 h1        1 DLL      0.035200
     41 H5'2        0.6010    0.7590   -5.2630 h1        1 DLL      0.035200
     42 H4'         2.5890    2.1460   -5.9340 h1        1 DLL      0.102700
     43 H1'         4.9470    0.0940   -8.0570 h2        1 DLL      0.103700
     44 H3'         1.5750    2.9830   -7.9460 ho        1 DLL      0.425000
     45 HA          0.8180    0.7980   -7.7960 h1        1 DLL      0.078700
     46 H2'         2.1690   -0.8920   -8.7270 h1        1 DLL      0.099700
     47 HB          3.5080    1.3760   -9.7240 ho        1 DLL      0.429000
     48 H8          3.5740   -1.5900   -4.9740 h5        1 DLL      0.201800
     49 H61N        4.3850   -6.2540   -6.2760 hn        1 DLL      0.469467
     50 H62N        6.0460   -6.0870   -6.1920 hn        1 DLL      0.469467
     51 H2          5.6200   -3.9910  -10.7920 h5        1 DLL      0.079100
     52 H63         5.3680   -7.0460   -7.3910 hn        1 DLL      0.469467
@<TRIPOS>BOND
     1    1   25 2   
     2    2    3 1   
     3    2   25 1   
     4    2   33 1   
     5    2   34 1   
     6    3    4 ar  
     7    3    5 ar  
     8    4    6 ar  
     9    4   35 1   
    10    5    7 ar  
    11    5   36 1   
    12    6    8 ar  
    13    6   37 1   
    14    7    8 ar  
    15    7   38 1   
    16    8   39 1   
    17    9   10 1   
    18    9   11 1   
    19    9   12 1   
    20    9   13 1   
    21   12   25 1   
    22   13   14 1   
    23   14   27 1   
    24   14   40 1   
    25   14   41 1   
    26   15   19 1   
    27   15   27 1   
    28   16   29 1   
    29   16   44 1   
    30   17   18 1   
    31   17   19 1   
    32   17   29 1   
    33   17   46 1   
    34   18   47 1   
    35   19   20 1   
    36   19   43 1   
    37   20   21 1   
    38   20   31 1   
    39   21   22 2   
    40   21   48 1   
    41   22   23 1   
    42   23   24 ar  
    43   23   31 ar  
    44   24   26 1   
    45   24   28 ar  
    46   26   49 1   
    47   26   50 1   
    48   26   52 1   
    49   27   29 1   
    50   27   42 1   
    51   28   30 ar  
    52   29   45 1   
    53   30   32 ar  
    54   30   51 1   
    55   31   32 ar  
@<TRIPOS>SUBSTRUCTURE
     1 DLL         1 TEMP              0 ****  ****    0 ROOT
