@<TRIPOS>MOLECULE
DLL
   51    47     1     0     0
SMALL
bcc


@<TRIPOS>ATOM
      1 O          -2.7740    2.5190    3.6950 o         1 DLL     -0.397000
      2 CB         -1.4820    4.5150    3.7210 c3        1 DLL     -0.128000
      3 CG         -2.7550    5.1380    4.1830 c2        1 DLL     -0.065000
      4 CD2        -3.0970    5.1030    5.5310 c2        1 DLL     -0.110000
      5 CD1        -3.5750    5.7980    3.2740 c1        1 DLL     -0.127000
      6 CE2        -4.2620    5.7310    5.9750 c1        1 DLL     -0.132000
      7 CE1        -4.7370    6.4250    3.7140 c1        1 DLL     -0.138500
      8 CZ         -5.0800    6.3910    5.0670 c1        1 DLL     -0.138500
      9 P          -1.1420    0.8670    2.1330 p3        1 DLL      2.542000
     10 O2P        -2.4360    0.9500    1.4120 o         1 DLL     -1.092000
     11 O3P        -1.2740   -0.1380    3.3260 os        1 DLL     -1.121000
     12 O1P        -0.7550    2.3090    2.6930 os        1 DLL     -0.695000
     13 O5'         0.0280    0.3490    1.1020 os        1 DLL     -0.739000
     14 C5'        -0.3470   -0.5170    0.0050 c3        1 DLL      0.010000
     15 O4'         1.3500   -1.7640   -0.9800 os        1 DLL     -0.274000
     16 O3'         0.6540    0.7710   -2.9480 oh        1 DLL     -0.350000
     17 C2'         0.8920   -1.5850   -3.2420 c3        1 DLL      0.005000
     18 O2'         1.5020   -1.0690   -4.5080 oh        1 DLL     -0.312000
     19 C1'         1.8060   -2.0690   -2.4770 c3        1 DLL      0.122000
     20 N9          1.9270   -3.4950   -2.6830 n3        1 DLL     -0.196000
     21 C8          1.0050   -4.4640   -2.4320 c1        1 DLL     -0.023000
     22 N7          1.5780   -5.6710   -2.6970 n2        1 DLL     -0.134000
     23 C5          2.8770   -5.4460   -3.1200 c1        1 DLL     -0.227000
     24 C6          3.8970   -6.3200   -3.5440 c1        1 DLL      0.210000
     25 CAZ        -1.7410    3.0520    3.3540 c2        1 DLL      0.347000
     26 N6          4.0100   -7.7410   -3.5340 n3        1 DLL     -0.342000
     27 C4'         0.8050   -0.5920   -1.0040 c3        1 DLL     -0.044000
     28 N1          5.0770   -5.8310   -3.9380 n1        1 DLL     -0.273000
     29 C3'         0.2690   -0.4300   -2.4340 c3        1 DLL     -0.019000
     30 C2          5.2970   -4.4670   -3.9310 c1        1 DLL      0.004000
     31 C4          3.0920   -4.1130   -3.1110 c1        1 DLL      0.062000
     32 N3          4.3020   -3.6110   -3.5160 n1        1 DLL     -0.199000
     33 HB1C       -1.1620    4.9780    2.9670 hc        1 DLL      0.111500
     34 HB2C       -0.8110    4.5590    4.4460 hc        1 DLL      0.111500
     35 HD2        -2.5280    4.6930    6.1420 ha        1 DLL      0.172000
     36 HD1        -3.3360    5.8220    2.3270 ha        1 DLL      0.129000
     37 HE2        -4.4410    5.8150    6.9650 ha        1 DLL      0.128000
     38 HE1        -5.3390    6.9100    3.0480 ha        1 DLL      0.120500
     39 HZ         -5.8670    6.8160    5.3630 ha        1 DLL      0.120500
     40 H5'1       -1.1350   -0.1610   -0.4320 h1        1 DLL      0.095000
     41 H5'2       -0.5400   -1.4140    0.3470 h1        1 DLL      0.095000
     42 H4'         1.4990    0.1250   -0.8040 h1        1 DLL      0.111000
     43 H1'         2.6490   -1.6360   -2.6560 h2        1 DLL      0.160000
     44 H3'        -0.0520    1.2370   -3.1590 ho        1 DLL      0.245000
     45 HA         -0.6650   -0.5000   -2.4390 h1        1 DLL      0.143000
     46 H2'         0.1690   -2.3100   -3.4550 h1        1 DLL      0.134000
     47 HB          2.2740   -0.6930   -4.3290 ho        1 DLL      0.220000
     48 H8          0.0770   -4.3180   -2.0630 DU        1 DLL      0.249000
     49 H61N        3.2620   -8.2660   -3.3660 hn        1 DLL      0.224500
     50 H62N        4.8450   -8.1570   -3.7590 hn        1 DLL      0.224500
     51 H2          6.1930   -4.0960   -4.2310 ha        1 DLL      0.177000
@<TRIPOS>BOND
     1    1   25 1   
     2    2    3 1   
     3    2   25 1   
     4    2   33 1   
     5    2   34 1   
     6    3    4 1   
     7    3    5 1   
     8    4    6 1   
     9    4   35 1   
    10    5   36 1   
    11    6   37 1   
    12    7    8 1   
    13    7   38 1   
    14    8   39 1   
    15    9   10 1   
    16    9   12 1   
    17    9   13 1   
    18   12   25 1   
    19   13   14 1   
    20   14   27 1   
    21   14   40 1   
    22   14   41 1   
    23   15   19 1   
    24   15   27 1   
    25   16   29 1   
    26   16   44 1   
    27   17   18 1   
    28   17   19 1   
    29   17   29 1   
    30   17   46 1   
    31   18   47 1   
    32   19   20 1   
    33   19   43 1   
    34   20   21 1   
    35   20   31 1   
    36   21   22 1   
    37   22   23 1   
    38   23   31 1   
    39   24   26 1   
    40   24   28 1   
    41   26   49 1   
    42   26   50 1   
    43   27   29 1   
    44   27   42 1   
    45   29   45 1   
    46   30   32 1   
    47   30   51 1   
@<TRIPOS>SUBSTRUCTURE
     1 DLL         1 TEMP              0 ****  ****    0 ROOT
