@<TRIPOS>MOLECULE
DLL
   51    54     1     0     0
SMALL
bcc


@<TRIPOS>ATOM
      1 O          -0.6080   -1.6190   -2.3370 o         1 DLL     -0.579000
      2 CB          1.1970   -2.1730   -0.7570 c3        1 DLL     -0.087100
      3 CG          1.1480   -1.4840    0.5610 ca        1 DLL     -0.068300
      4 CD2         0.8330   -2.2100    1.7150 ca        1 DLL     -0.118000
      5 CD1         1.4490   -0.1200    0.6660 ca        1 DLL     -0.118000
      6 CE2         0.8250   -1.5810    2.9600 ca        1 DLL     -0.136000
      7 CE1         1.4370    0.5050    1.9120 ca        1 DLL     -0.136000
      8 CZ          1.1270   -0.2240    3.0610 ca        1 DLL     -0.139000
      9 P           0.3790    0.3200   -3.7230 p5        1 DLL      1.453800
     10 O2P        -0.7260    1.1540   -3.2480 o         1 DLL     -0.808000
     11 O3P         0.4550   -0.6380   -4.8460 o         1 DLL     -0.808000
     12 O1P         1.1830   -0.4050   -2.4210 os        1 DLL     -0.546500
     13 O5'         1.6370    1.3520   -4.0320 os        1 DLL     -0.572200
     14 C5'         2.8060    0.7890   -4.5350 c3        1 DLL      0.184400
     15 O4'         4.1560    0.5540   -6.5350 os        1 DLL     -0.419600
     16 O3'         1.5330    2.4520   -7.4510 oh        1 DLL     -0.615800
     17 C2'         2.2840    0.2490   -8.0310 c3        1 DLL      0.127100
     18 O2'         2.4160    0.8710   -9.2870 oh        1 DLL     -0.586800
     19 C1'         3.6790   -0.3020   -7.5810 c3        1 DLL      0.214800
     20 N9          3.6470   -1.6850   -7.1650 na        1 DLL     -0.280000
     21 C8          2.6930   -2.3430   -6.3410 cc        1 DLL      0.437700
     22 N7          3.0180   -3.6140   -6.0650 nd        1 DLL     -0.572100
     23 C5          4.2490   -3.8320   -6.7020 ca        1 DLL     -0.213200
     24 C6          5.1100   -4.9710   -6.7870 ca        1 DLL      0.720200
     25 CAZ         0.5140   -1.4090   -1.8500 c         1 DLL      0.678100
     26 N6          4.7180   -6.1790   -6.2320 nh        1 DLL     -0.940500
     27 C4'         3.0790    1.3080   -5.9550 c3        1 DLL      0.076100
     28 N1          6.2940   -4.8620   -7.4740 nb        1 DLL     -0.798000
     29 C3'         1.8600    1.1920   -6.8900 c3        1 DLL      0.069100
     30 C2          6.5590   -3.6690   -8.0740 ca        1 DLL      0.659900
     31 C4          4.6730   -2.6170   -7.3920 ca        1 DLL      0.449800
     32 N3          5.8410   -2.5240   -8.0970 nb        1 DLL     -0.722000
     33 HB1C        2.2730   -2.3150   -1.0540 hc        1 DLL      0.074700
     34 HB2C        0.7130   -3.1840   -0.6910 hc        1 DLL      0.074700
     35 HD2         0.5850   -3.2790    1.6400 ha        1 DLL      0.148500
     36 HD1         1.6800    0.4540   -0.2480 ha        1 DLL      0.148500
     37 HE2         0.5740   -2.1580    3.8610 ha        1 DLL      0.124000
     38 HE1         1.6660    1.5780    1.9850 ha        1 DLL      0.124000
     39 HZ          1.1170    0.2710    4.0420 ha        1 DLL      0.119000
     40 H5'1        3.6650    1.1010   -3.8780 h1        1 DLL      0.037700
     41 H5'2        2.7360   -0.3340   -4.5490 h1        1 DLL      0.037700
     42 H4'         3.4480    2.3690   -5.9150 h1        1 DLL      0.070700
     43 H1'         4.4400   -0.2030   -8.4120 h2        1 DLL      0.112700
     44 H3'         1.0850    2.9460   -6.7530 ho        1 DLL      0.425000
     45 HA          0.9800    0.7570   -6.3280 h1        1 DLL      0.126700
     46 H2'         1.5280   -0.5670   -8.1860 h1        1 DLL      0.106700
     47 HB          2.7410    1.7700   -9.1440 ho        1 DLL      0.419000
     48 H8          1.7740   -1.8240   -5.9800 h5        1 DLL      0.155800
     49 H61N        5.4130   -6.8710   -6.0870 hn        1 DLL      0.423800
     50 H62N        3.9890   -6.1280   -5.5590 hn        1 DLL      0.423800
     51 H2          7.5220   -3.6350   -8.6250 h5        1 DLL      0.038100
@<TRIPOS>BOND
     1    1   25 2   
     2    2    3 1   
     3    2   25 1   
     4    2   33 1   
     5    2   34 1   
     6    3    4 ar  
     7    3    5 ar  
     8    4    6 ar  
     9    4   35 1   
    10    5    7 ar  
    11    5   36 1   
    12    6    8 ar  
    13    6   37 1   
    14    7    8 ar  
    15    7   38 1   
    16    8   39 1   
    17    9   10 1   
    18    9   11 1   
    19    9   12 1   
    20    9   13 1   
    21   12   25 1   
    22   13   14 1   
    23   14   27 1   
    24   14   40 1   
    25   14   41 1   
    26   15   19 1   
    27   15   27 1   
    28   16   29 1   
    29   16   44 1   
    30   17   18 1   
    31   17   19 1   
    32   17   29 1   
    33   17   46 1   
    34   18   47 1   
    35   19   20 1   
    36   19   43 1   
    37   20   21 1   
    38   20   31 1   
    39   21   22 2   
    40   21   48 1   
    41   22   23 1   
    42   23   24 ar  
    43   23   31 ar  
    44   24   26 1   
    45   24   28 ar  
    46   26   49 1   
    47   26   50 1   
    48   27   29 1   
    49   27   42 1   
    50   28   30 ar  
    51   29   45 1   
    52   30   32 ar  
    53   30   51 1   
    54   31   32 ar  
@<TRIPOS>SUBSTRUCTURE
     1 DLL         1 TEMP              0 ****  ****    0 ROOT
