@<TRIPOS>MOLECULE
DLM
   33    34     1     0     0
SMALL
bcc


@<TRIPOS>ATOM
      1 O12         0.2420    0.1710   -0.6410 os        1 DLM     -0.071000
      2 C11         1.4680    0.2530   -0.2270 c2        1 DLM      0.332000
      3 C14         2.5080   -0.1590   -1.2290 c3        1 DLM     -0.119000
      4 C15         2.1290   -1.2780   -2.1210 c2        1 DLM     -0.260000
      5 C1         -2.0700   -0.3300    3.3080 c2        1 DLM     -0.308000
      6 C2         -0.9020    0.1350    3.8340 c2        1 DLM      0.242000
      7 C3          0.2010    0.4430    3.0020 c1        1 DLM     -0.014000
      8 C18         3.2460    1.0920   -3.2130 c2        1 DLM     -0.113000
      9 C19         2.9150    1.1160   -1.8690 c1        1 DLM     -0.180000
     10 C17         3.0340   -0.0260   -4.0350 c2        1 DLM      0.228000
     11 O24         3.2880   -0.0740   -5.3480 oh        1 DLM     -0.160000
     12 C16         2.4250   -1.2240   -3.4450 c2        1 DLM      0.092000
     13 C10         1.9540    0.8660    1.0840 c3        1 DLM      0.133000
     14 O27         3.2580    0.3990    1.3650 oh        1 DLM     -0.275000
     15 C9          1.0160    0.6440    2.1490 c1        1 DLM     -0.198000
     16 C4         -0.9030    0.7370    0.0440 c2        1 DLM      0.038000
     17 C5         -1.5410    0.0650    0.9380 c1        1 DLM     -0.294000
     18 C6         -2.2760   -0.5200    1.8830 c2        1 DLM      0.286000
     19 O29        -3.2850   -1.3450    1.4650 oh        1 DLM     -0.210000
     20 O30        -0.6680    0.3180    5.1650 oh        1 DLM     -0.203000
     21 H1          1.6550   -2.1630   -1.6730 ha        1 DLM      0.161000
     22 H2         -2.9170   -0.5810    3.9680 ha        1 DLM      0.173000
     23 H3          1.7840   -2.9740   -3.8880 ho        1 DLM      0.242000
     24 H4          3.8940    2.8900   -3.1990 ho        1 DLM      0.262000
     25 H5          3.4480   -0.4770   -0.6470 hc        1 DLM      0.227000
     26 H6          3.6900    0.7730   -5.6350 ho        1 DLM      0.283000
     27 H7          3.2150   -0.2730    2.0620 ho        1 DLM      0.240000
     28 H8          2.0890    1.9810    0.8550 h1        1 DLM      0.219000
     29 H9         -1.1270    1.7010   -0.4430 h4        1 DLM      0.215000
     30 H10        -3.7400   -1.7110    2.2430 ho        1 DLM      0.250000
     31 H11        -1.4790    0.1130    5.6620 ho        1 DLM      0.254000
     32 O21         2.1990   -2.2250   -4.3480 oh        1 DLM     -0.204000
     33 O22         3.7610    2.1980   -3.8670 oh        1 DLM     -0.268000
@<TRIPOS>BOND
     1    1    2 1   
     2    1   16 1   
     3    2    3 1   
     4    2   13 1   
     5    3    4 1   
     6    3    9 1   
     7    3   25 1   
     8    4   12 1   
     9    4   21 1   
    10    5    6 1   
    11    5   18 1   
    12    5   22 1   
    13    6    7 1   
    14    6   20 1   
    15    7   15 1   
    16    8    9 1   
    17    8   10 1   
    18    8   33 1   
    19   10   11 1   
    20   10   12 1   
    21   11   26 1   
    22   12   32 1   
    23   13   14 1   
    24   13   15 1   
    25   13   28 1   
    26   14   27 1   
    27   16   17 1   
    28   16   29 1   
    29   17   18 1   
    30   18   19 1   
    31   19   30 1   
    32   20   31 1   
    33   23   32 1   
    34   24   33 1   
@<TRIPOS>SUBSTRUCTURE
     1 DLM         1 TEMP              0 ****  ****    0 ROOT
