@<TRIPOS>MOLECULE
DLN
   37    39     1     0     0
SMALL
bcc


@<TRIPOS>ATOM
      1 C20        -0.0100    0.1750   -0.0890 c3        1 DLN     -0.110100
      2 C19         1.5130    0.0500   -0.0660 c3        1 DLN      0.078000
      3 C21         2.0100    0.1890    1.3720 c3        1 DLN     -0.110100
      4 N7          1.9800   -1.1890   -0.7000 na        1 DLN      0.006200
      5 N8          1.6630   -2.4160   -0.2540 nc        1 DLN     -0.484100
      6 C3          2.8110   -1.2520   -1.8370 ca        1 DLN      0.474800
      7 N2          3.3610   -0.2560   -2.6000 nb        1 DLN     -0.743000
      8 C1          4.1080   -0.7330   -3.6210 ca        1 DLN      0.696900
      9 N6          4.3820   -2.0160   -3.9860 nb        1 DLN     -0.801000
     10 C5          3.8300   -3.0180   -3.2200 ca        1 DLN      0.771200
     11 N10         4.0580   -4.3350   -3.5190 nv        1 DLN     -0.965500
     12 C4          3.0120   -2.6650   -2.1020 ca        1 DLN     -0.491500
     13 C11         2.0800   -5.9170   -0.7950 cg        1 DLN     -0.094000
     14 C12         1.9910   -7.3150   -0.6610 ca        1 DLN      0.054000
     15 C13         2.6740   -8.1480   -1.5580 ca        1 DLN     -0.140000
     16 C17         1.2180   -7.8760    0.3710 ca        1 DLN     -0.136000
     17 C16         1.1310   -9.2590    0.5030 ca        1 DLN     -0.093000
     18 C15         1.8020  -10.1020   -0.3790 ca        1 DLN     -0.202000
     19 C14         2.5720   -9.5390   -1.4070 ca        1 DLN      0.123100
     20 O18         3.2650  -10.3010   -2.3200 oh        1 DLN     -0.497100
     21 CAI         2.2590   -3.3400   -1.0620 cd        1 DLN      0.426800
     22 CAM         2.1560   -4.7260   -0.9100 ch        1 DLN     -0.102200
     23 H201       -0.2880    1.1720    0.3280 hc        1 DLN      0.051033
     24 H202       -0.4030    0.1020   -1.1310 hc        1 DLN      0.051033
     25 H203       -0.4880   -0.6210    0.5310 hc        1 DLN      0.051033
     26 H19         1.9530    0.8910   -0.6820 h1        1 DLN      0.088700
     27 H211        1.5780   -0.6060    2.0250 hc        1 DLN      0.051033
     28 H212        3.1230    0.1280    1.4200 hc        1 DLN      0.051033
     29 H213        1.6900    1.1860    1.7610 hc        1 DLN      0.051033
     30 H1          4.5760    0.0400   -4.2690 h5        1 DLN      0.052100
     31 H101        4.6190   -4.5920   -4.2910 hn        1 DLN      0.448800
     32 H102        3.6440   -5.0310   -2.9500 hn        1 DLN      0.448800
     33 H13         3.2830   -7.7310   -2.3720 ha        1 DLN      0.149000
     34 H17         0.6850   -7.2170    1.0720 ha        1 DLN      0.147000
     35 H16         0.5240   -9.6920    1.3130 ha        1 DLN      0.139000
     36 H15         1.7320  -11.1930   -0.2730 ha        1 DLN      0.137000
     37 H18         3.1140  -11.2330   -2.1070 ho        1 DLN      0.422000
@<TRIPOS>BOND
     1    1    2 1   
     2    1   23 1   
     3    1   24 1   
     4    1   25 1   
     5    2    3 1   
     6    2    4 1   
     7    2   26 1   
     8    3   27 1   
     9    3   28 1   
    10    3   29 1   
    11    4    5 1   
    12    4    6 1   
    13    5   21 2   
    14    6    7 ar  
    15    6   12 ar  
    16    7    8 ar  
    17    8    9 ar  
    18    8   30 1   
    19    9   10 ar  
    20   10   11 1   
    21   10   12 ar  
    22   11   31 1   
    23   11   32 1   
    24   12   21 1   
    25   13   14 1   
    26   13   22 3   
    27   14   15 ar  
    28   14   16 ar  
    29   15   19 ar  
    30   15   33 1   
    31   16   17 ar  
    32   16   34 1   
    33   17   18 ar  
    34   17   35 1   
    35   18   19 ar  
    36   18   36 1   
    37   19   20 1   
    38   20   37 1   
    39   21   22 1   
@<TRIPOS>SUBSTRUCTURE
     1 DLN         1 TEMP              0 ****  ****    0 ROOT
