@<TRIPOS>MOLECULE
DLN
   38    40     1     0     0
SMALL
bcc


@<TRIPOS>ATOM
      1 C20        -0.2630    0.0520   -0.5310 c3        1 DLN     -0.117100
      2 C19         1.2270   -0.0240   -0.2120 c3        1 DLN      0.073000
      3 C21         1.4390    0.0310    1.2970 c3        1 DLN     -0.117100
      4 N7          1.8580   -1.2240   -0.8140 na        1 DLN      0.041200
      5 N8          1.5060   -2.4770   -0.5080 nc        1 DLN     -0.406100
      6 C3          2.8940   -1.1970   -1.7630 ca        1 DLN      0.458800
      7 N2          3.5610   -0.1670   -2.3610 nb        1 DLN     -0.620000
      8 C1          4.5090   -0.5540   -3.2370 ca        1 DLN      0.681900
      9 N6          4.8790   -1.8290   -3.5960 nb        1 DLN     -0.693000
     10 C5          4.2090   -2.8360   -2.9960 ca        1 DLN      0.556200
     11 N10         4.5580   -4.2320   -3.3390 n4        1 DLN     -0.829300
     12 C4          3.1920   -2.6090   -2.0570 ca        1 DLN     -0.426500
     13 C11         2.0990   -5.9410   -1.0910 cg        1 DLN      0.007000
     14 C12         2.0130   -7.3440   -1.0240 ca        1 DLN     -0.006000
     15 C13         0.9560   -8.0080   -1.6690 ca        1 DLN     -0.181000
     16 C17         2.9700   -8.0750   -0.3040 ca        1 DLN     -0.130000
     17 C16         2.8740   -9.4660   -0.2340 ca        1 DLN     -0.098000
     18 C15         1.8390  -10.1420   -0.8680 ca        1 DLN     -0.116000
     19 C14         0.8770   -9.4020   -1.5840 ca        1 DLN      0.132100
     20 O18        -0.1150  -10.1300   -2.1920 oh        1 DLN     -0.479100
     21 CAI         2.2720   -3.3540   -1.2230 cd        1 DLN      0.426800
     22 CAM         2.1970   -4.7470   -1.1720 ch        1 DLN     -0.221200
     23 H201       -0.6540    1.0190   -0.1270 hc        1 DLN      0.065200
     24 H202       -0.4470    0.0290   -1.6320 hc        1 DLN      0.065200
     25 H203       -0.8240   -0.7860   -0.0520 hc        1 DLN      0.065200
     26 H19         1.7520    0.8570   -0.6920 h1        1 DLN      0.095700
     27 H211        0.9120   -0.8090    1.8110 hc        1 DLN      0.065200
     28 H212        1.0180    0.9970    1.6700 hc        1 DLN      0.065200
     29 H213        2.5230   -0.0070    1.5580 hc        1 DLN      0.065200
     30 H1          5.0790    0.2590   -3.7480 h5        1 DLN      0.100100
     31 H101        4.4190   -4.3910   -4.3450 hn        1 DLN      0.478467
     32 H102        5.5420   -4.4140   -3.1050 hn        1 DLN      0.478467
     33 H13         0.1930   -7.4380   -2.2180 ha        1 DLN      0.147000
     34 H17         3.7830   -7.5550    0.2220 ha        1 DLN      0.141000
     35 H16         3.6250  -10.0350    0.3390 ha        1 DLN      0.155000
     36 H15         1.7500  -11.2380   -0.8170 ha        1 DLN      0.171000
     37 H18        -0.7590   -9.5140   -2.5730 ho        1 DLN      0.429000
     38 H103        3.9470   -4.8640   -2.7970 hn        1 DLN      0.478467
@<TRIPOS>BOND
     1    1    2 1   
     2    1   23 1   
     3    1   24 1   
     4    1   25 1   
     5    2    3 1   
     6    2    4 1   
     7    2   26 1   
     8    3   27 1   
     9    3   28 1   
    10    3   29 1   
    11    4    5 1   
    12    4    6 1   
    13    5   21 2   
    14    6    7 ar  
    15    6   12 ar  
    16    7    8 ar  
    17    8    9 ar  
    18    8   30 1   
    19    9   10 ar  
    20   10   11 1   
    21   10   12 ar  
    22   11   31 1   
    23   11   32 1   
    24   11   38 1   
    25   12   21 1   
    26   13   14 1   
    27   13   22 3   
    28   14   15 ar  
    29   14   16 ar  
    30   15   19 ar  
    31   15   33 1   
    32   16   17 ar  
    33   16   34 1   
    34   17   18 ar  
    35   17   35 1   
    36   18   19 ar  
    37   18   36 1   
    38   19   20 1   
    39   20   37 1   
    40   21   22 1   
@<TRIPOS>SUBSTRUCTURE
     1 DLN         1 TEMP              0 ****  ****    0 ROOT
