@<TRIPOS>MOLECULE
DLN
   37    39     1     0     0
SMALL
bcc


@<TRIPOS>ATOM
      1 C20         0.2000   -0.0540    0.2360 c3        1 DLN     -0.110100
      2 C19         1.7180   -0.1780    0.1150 c3        1 DLN      0.078000
      3 C21         2.3310   -0.2630    1.5120 c3        1 DLN     -0.110100
      4 N7          2.1200   -1.3010   -0.7400 na        1 DLN      0.006200
      5 N8          1.8350   -2.5840   -0.4620 nc        1 DLN     -0.484100
      6 C3          2.8400   -1.1820   -1.9470 ca        1 DLN      0.474800
      7 N2          3.3250   -0.0760   -2.5950 nb        1 DLN     -0.743000
      8 C1          3.9700   -0.3860   -3.7410 ca        1 DLN      0.696900
      9 N6          4.2000   -1.5950   -4.3230 nb        1 DLN     -0.801000
     10 C5          3.7120   -2.7070   -3.6730 ca        1 DLN      0.771200
     11 N10         3.8980   -3.9600   -4.1940 nh        1 DLN     -0.965500
     12 C4          3.0050   -2.5360   -2.4430 ca        1 DLN     -0.491500
     13 C11         2.1720   -5.9570   -1.5720 cg        1 DLN     -0.094000
     14 C12         2.0850   -7.3590   -1.6480 ca        1 DLN      0.054000
     15 C13         2.6220   -8.0340   -2.7530 ca        1 DLN     -0.140000
     16 C17         1.4610   -8.0830   -0.6170 ca        1 DLN     -0.136000
     17 C16         1.3760   -9.4700   -0.6920 ca        1 DLN     -0.093000
     18 C15         1.9040  -10.1580   -1.7820 ca        1 DLN     -0.202000
     19 C14         2.5250   -9.4320   -2.8090 ca        1 DLN      0.123100
     20 O18         3.0720  -10.0350   -3.9190 oh        1 DLN     -0.497100
     21 CAI         2.3450   -3.3690   -1.4550 cd        1 DLN      0.426800
     22 CAM         2.2470   -4.7620   -1.5090 ch        1 DLN     -0.102200
     23 H201       -0.2350   -0.9390    0.7600 hc        1 DLN      0.051033
     24 H202       -0.2770    0.0360   -0.7690 hc        1 DLN      0.051033
     25 H203       -0.0340    0.8640    0.8260 hc        1 DLN      0.051033
     26 H19         2.1150    0.7510   -0.3970 h1        1 DLN      0.088700
     27 H211        1.9450   -1.1510    2.0670 hc        1 DLN      0.051033
     28 H212        3.4440   -0.3290    1.4580 hc        1 DLN      0.051033
     29 H213        2.0550    0.6610    2.0750 hc        1 DLN      0.051033
     30 H1          4.3830    0.4810   -4.3030 h5        1 DLN      0.052100
     31 H101        4.3910   -4.0920   -5.0410 hn        1 DLN      0.448800
     32 H102        3.5420   -4.7390   -3.6990 hn        1 DLN      0.448800
     33 H13         3.1130   -7.4890   -3.5710 ha        1 DLN      0.149000
     34 H17         1.0410   -7.5470    0.2480 ha        1 DLN      0.147000
     35 H16         0.8860  -10.0310    0.1190 ha        1 DLN      0.139000
     36 H15         1.8350  -11.2530   -1.8390 ha        1 DLN      0.137000
     37 H18         2.9390  -10.9900   -3.8360 ho        1 DLN      0.422000
@<TRIPOS>BOND
     1    1    2 1   
     2    1   23 1   
     3    1   24 1   
     4    1   25 1   
     5    2    3 1   
     6    2    4 1   
     7    2   26 1   
     8    3   27 1   
     9    3   28 1   
    10    3   29 1   
    11    4    5 1   
    12    4    6 1   
    13    5   21 2   
    14    6    7 ar  
    15    6   12 ar  
    16    7    8 ar  
    17    8    9 ar  
    18    8   30 1   
    19    9   10 ar  
    20   10   11 1   
    21   10   12 ar  
    22   11   31 1   
    23   11   32 1   
    24   12   21 1   
    25   13   14 1   
    26   13   22 3   
    27   14   15 ar  
    28   14   16 ar  
    29   15   19 ar  
    30   15   33 1   
    31   16   17 ar  
    32   16   34 1   
    33   17   18 ar  
    34   17   35 1   
    35   18   19 ar  
    36   18   36 1   
    37   19   20 1   
    38   20   37 1   
    39   21   22 1   
@<TRIPOS>SUBSTRUCTURE
     1 DLN         1 TEMP              0 ****  ****    0 ROOT
