@<TRIPOS>MOLECULE
DLN
   37    39     1     0     0
SMALL
bcc


@<TRIPOS>ATOM
      1 C20         4.2890    2.6570   -1.2700 c3        1 DLN     -0.110100
      2 C19         4.2170    1.7800   -0.0210 c3        1 DLN      0.078000
      3 C21         4.3140    2.6620    1.2230 c3        1 DLN     -0.110100
      4 N7          3.0230    0.9260   -0.0070 na        1 DLN      0.006200
      5 N8          1.7680    1.4060    0.0050 nc        1 DLN     -0.484100
      6 C3          3.0360   -0.4830   -0.0050 ca        1 DLN      0.474800
      7 N2          4.0820   -1.3690   -0.0130 nb        1 DLN     -0.743000
      8 C1          3.6730   -2.6580   -0.0070 ca        1 DLN      0.696900
      9 N6          2.4170   -3.1830    0.0060 nb        1 DLN     -0.801000
     10 C5          1.3660   -2.2940    0.0150 ca        1 DLN      0.771200
     11 N10         0.0710   -2.7410    0.0290 nh        1 DLN     -0.965500
     12 C4          1.6430   -0.8920    0.0100 ca        1 DLN     -0.491500
     13 C11        -1.6910    0.5350    0.0410 cg        1 DLN     -0.094000
     14 C12        -3.0950    0.6200    0.0550 ca        1 DLN      0.054000
     15 C13        -3.8660   -0.5510    0.0620 ca        1 DLN     -0.140000
     16 C17        -3.7250    1.8770    0.0620 ca        1 DLN     -0.136000
     17 C16        -5.1140    1.9600    0.0760 ca        1 DLN     -0.093000
     18 C15        -5.8960    0.8070    0.0830 ca        1 DLN     -0.202000
     19 C14        -5.2640   -0.4440    0.0760 ca        1 DLN      0.123100
     20 O18        -5.9630   -1.6310    0.0820 oh        1 DLN     -0.497100
     21 CAI         0.8990    0.3530    0.0150 cd        1 DLN      0.426800
     22 CAM        -0.4940    0.4620    0.0290 ch        1 DLN     -0.102200
     23 H201        5.2580    3.2120   -1.2550 hc        1 DLN      0.051033
     24 H202        4.2460    2.0380   -2.1980 hc        1 DLN      0.051033
     25 H203        3.4530    3.3950   -1.2910 hc        1 DLN      0.051033
     26 H19         5.0980    1.0690   -0.0280 h1        1 DLN      0.088700
     27 H211        3.4780    3.4000    1.2580 hc        1 DLN      0.051033
     28 H212        4.2900    2.0470    2.1540 hc        1 DLN      0.051033
     29 H213        5.2830    3.2170    1.1870 hc        1 DLN      0.051033
     30 H1          4.4890   -3.4140   -0.0140 h5        1 DLN      0.052100
     31 H101       -0.1340   -3.7080    0.0330 hn        1 DLN      0.448800
     32 H102       -0.6620   -2.0760    0.0350 hn        1 DLN      0.448800
     33 H13        -3.3950   -1.5430    0.0570 ha        1 DLN      0.149000
     34 H17        -3.1140    2.7920    0.0560 ha        1 DLN      0.147000
     35 H16        -5.6020    2.9470    0.0810 ha        1 DLN      0.139000
     36 H15        -6.9930    0.8750    0.0940 ha        1 DLN      0.137000
     37 H18        -6.9090   -1.4190    0.0920 ho        1 DLN      0.422000
@<TRIPOS>BOND
     1    1    2 1   
     2    1   23 1   
     3    1   24 1   
     4    1   25 1   
     5    2    3 1   
     6    2    4 1   
     7    2   26 1   
     8    3   27 1   
     9    3   28 1   
    10    3   29 1   
    11    4    5 1   
    12    4    6 1   
    13    5   21 2   
    14    6    7 ar  
    15    6   12 ar  
    16    7    8 ar  
    17    8    9 ar  
    18    8   30 1   
    19    9   10 ar  
    20   10   11 1   
    21   10   12 ar  
    22   11   31 1   
    23   11   32 1   
    24   12   21 1   
    25   13   14 1   
    26   13   22 3   
    27   14   15 ar  
    28   14   16 ar  
    29   15   19 ar  
    30   15   33 1   
    31   16   17 ar  
    32   16   34 1   
    33   17   18 ar  
    34   17   35 1   
    35   18   19 ar  
    36   18   36 1   
    37   19   20 1   
    38   20   37 1   
    39   21   22 1   
@<TRIPOS>SUBSTRUCTURE
     1 DLN         1 TEMP              0 ****  ****    0 ROOT
