@<TRIPOS>MOLECULE
DLN
   37    31     1     0     0
SMALL
bcc


@<TRIPOS>ATOM
      1 C20        -2.3970    4.0240    1.1020 c3        1 DLN     -0.228000
      2 C19        -0.8750    4.0110    1.0950 c3        1 DLN      0.058000
      3 C21        -0.3610    3.9660    2.5290 c3        1 DLN     -0.228000
      4 N7         -0.4050    2.8430    0.3760 n3        1 DLN     -0.130000
      5 N8         -0.6100    1.5360    0.7380 n2        1 DLN     -0.015000
      6 C3          0.3720    2.8540   -0.7590 c1        1 DLN      0.083000
      7 N2          0.9310    3.8780   -1.4740 n1        1 DLN     -0.216000
      8 C1          1.7630    3.6040   -2.5270 c1        1 DLN      0.033000
      9 N6          2.0380    2.3080   -2.8640 n1        1 DLN     -0.274000
     10 C5          1.4900    1.2990   -2.1620 c1        1 DLN      0.245000
     11 N10         2.0640    0.2350   -2.9190 n2        1 DLN     -0.358000
     12 C4          0.6420    1.5760   -1.0910 c1        1 DLN     -0.276000
     13 C11        -0.0930   -1.9830   -0.0010 c1        1 DLN     -0.085500
     14 C12        -0.1610   -3.5090    0.0860 c1        1 DLN      0.053000
     15 C13         0.0020   -4.1420    1.3110 c2        1 DLN     -0.130000
     16 C17        -0.3060   -4.2640   -1.0730 c1        1 DLN     -0.143000
     17 C16        -0.2880   -5.6460   -1.0040 c1        1 DLN     -0.148500
     18 C15        -0.1250   -6.2780    0.2190 c1        1 DLN     -0.148500
     19 C14         0.0200   -5.5220    1.3790 c1        1 DLN      0.076000
     20 O18         0.3190   -6.1600    2.6000 oh        1 DLN     -0.249000
     21 CAI         0.0280    0.7510   -0.1540 c1        1 DLN      0.025000
     22 CAM        -0.0400   -0.7790   -0.0680 c1        1 DLN     -0.085500
     23 H201       -2.7160    4.8930    1.4330 hc        1 DLN      0.090333
     24 H202       -2.7280    3.8800    0.1930 hc        1 DLN      0.090333
     25 H203       -2.7290    3.3060    1.6900 hc        1 DLN      0.090333
     26 H19        -0.5450    4.8180    0.6560 h1        1 DLN      0.128000
     27 H211       -0.7970    3.2330    3.0110 hc        1 DLN      0.090333
     28 H212        0.6070    3.8230    2.5240 hc        1 DLN      0.090333
     29 H213       -0.5650    4.8250    2.9800 hc        1 DLN      0.090333
     30 H1          2.1610    4.3340   -3.0360 ha        1 DLN      0.189000
     31 H101        2.5590    0.4180   -3.6580 hn        1 DLN      0.241500
     32 H102        1.9460   -0.6390   -2.6480 hn        1 DLN      0.241500
     33 H13         0.1040   -3.6140    2.1200 ha        1 DLN      0.161000
     34 H17        -0.4200   -3.8220   -1.9310 ha        1 DLN      0.143000
     35 H16        -0.3890   -6.1720   -1.8130 ha        1 DLN      0.137500
     36 H15        -0.1130   -7.2580    0.2670 ha        1 DLN      0.137500
     37 H18        -0.3830   -6.6250    2.8700 ho        1 DLN      0.220000
@<TRIPOS>BOND
     1    1    2 1   
     2    1   23 1   
     3    1   24 1   
     4    1   25 1   
     5    2    3 1   
     6    2    4 1   
     7    2   26 1   
     8    3   27 1   
     9    3   28 1   
    10    3   29 1   
    11    4    5 1   
    12    4    6 1   
    13    5   21 1   
    14    6   12 1   
    15    7    8 1   
    16    8   30 1   
    17    9   10 1   
    18   10   12 1   
    19   11   31 1   
    20   11   32 1   
    21   13   22 1   
    22   14   15 1   
    23   14   16 1   
    24   15   19 1   
    25   15   33 1   
    26   16   34 1   
    27   17   18 1   
    28   17   35 1   
    29   18   36 1   
    30   19   20 1   
    31   20   37 1   
@<TRIPOS>SUBSTRUCTURE
     1 DLN         1 TEMP              0 ****  ****    0 ROOT
