@<TRIPOS>MOLECULE
DLP
  134   133     1     0     0
SMALL
bcc


@<TRIPOS>ATOM
      1 C1         -0.0030    4.6130    0.0730 c3        1 DLP      0.183400
      2 C2          0.8980    4.2590    1.2640 c3        1 DLP      0.133100
      3 C3          0.1270    3.6720    2.4440 c3        1 DLP      0.118400
      4 C4         -4.4280    4.9940    0.5120 c3        1 DLP      0.194400
      5 C5         -4.7500    4.9850    2.0190 c3        1 DLP      0.078800
      6 C6         -4.9550    7.4440    2.1840 c3        1 DLP      0.075767
      7 C7         -5.0080    6.0500    4.1750 c3        1 DLP      0.075767
      8 C8         -2.9250    6.3540    2.9810 c3        1 DLP      0.075767
      9 C11        -1.9640    2.4910    2.3690 c         1 DLP      0.669100
     10 C12        -2.7520    1.5200    1.5470 c3        1 DLP     -0.141400
     11 C13        -3.8200    0.8320    2.3680 c3        1 DLP     -0.074400
     12 C14        -4.7000   -0.0310    1.4880 c3        1 DLP     -0.081400
     13 C15        -5.7690   -0.7280    2.3020 c3        1 DLP     -0.078400
     14 C16        -6.6550   -1.5840    1.4230 c3        1 DLP     -0.080400
     15 C17        -7.7270   -2.2790    2.2350 c3        1 DLP     -0.076400
     16 C18        -8.6140   -3.1330    1.3530 c3        1 DLP     -0.049200
     17 C19        -9.6780   -3.8190    2.1230 c2        1 DLP     -0.178200
     18 C20       -10.6410   -4.5590    1.5630 c2        1 DLP     -0.166200
     19 C21       -10.7640   -4.7720    0.1010 c3        1 DLP     -0.020000
     20 C22       -11.8360   -5.7250   -0.2750 c2        1 DLP     -0.172200
     21 C23       -12.1860   -5.9790   -1.5410 c2        1 DLP     -0.173200
     22 C24       -11.5550   -5.3350   -2.7170 c3        1 DLP     -0.049200
     23 C25       -12.0880   -5.8780   -4.0260 c3        1 DLP     -0.077400
     24 C26       -11.4250   -5.2050   -5.2080 c3        1 DLP     -0.079400
     25 C27       -11.9560   -5.7460   -6.5190 c3        1 DLP     -0.080400
     26 C28       -11.2980   -5.0790   -7.6990 c3        1 DLP     -0.093100
     27 C32         3.9150    2.1380    0.7600 c3        1 DLP     -0.127400
     28 C33         5.3670    2.5470    0.8810 c3        1 DLP     -0.079400
     29 C34         6.2760    1.4680    0.3340 c3        1 DLP     -0.078400
     30 C35         7.7300    1.8770    0.4360 c3        1 DLP     -0.079400
     31 C36         8.6420    0.7980   -0.1070 c3        1 DLP     -0.079400
     32 C37        10.0960    1.2060   -0.0020 c3        1 DLP     -0.077400
     33 C38        11.0080    0.1260   -0.5470 c3        1 DLP     -0.049200
     34 C39        12.4390    0.4980   -0.4520 c2        1 DLP     -0.175200
     35 C40        13.4430   -0.3090   -0.8120 c2        1 DLP     -0.169200
     36 C41        13.2410   -1.6780   -1.3430 c3        1 DLP     -0.019000
     37 C42        14.4950   -2.3470   -1.7640 c2        1 DLP     -0.169200
     38 C43        14.5500   -3.6170   -2.1810 c2        1 DLP     -0.175200
     39 C44        13.3700   -4.5090   -2.2660 c3        1 DLP     -0.049200
     40 C45        13.7140   -5.8640   -2.8480 c3        1 DLP     -0.077400
     41 C46        12.4910   -6.7520   -2.9250 c3        1 DLP     -0.079400
     42 C47        12.8310   -8.1080   -3.5060 c3        1 DLP     -0.080400
     43 C48        11.6170   -8.9970   -3.5850 c3        1 DLP     -0.093100
     44 N          -4.4030    6.2130    2.8180 n4        1 DLP     -0.575800
     45 O2          1.8420    3.3070    0.7440 os        1 DLP     -0.428900
     46 O3         -0.6650    2.5740    1.9710 os        1 DLP     -0.421900
     47 O11        -2.3560    3.1990    3.3060 o         1 DLP     -0.612000
     48 O31         3.2050    3.7800    2.4580 o         1 DLP     -0.555000
     49 O1P        -2.8220    7.0900   -0.0160 o         1 DLP     -0.814000
     50 O2P        -1.8760    5.3900   -1.8470 o         1 DLP     -0.814000
     51 O3P        -0.8650    5.6390    0.4790 os        1 DLP     -0.580200
     52 O4P        -3.1010    4.6860    0.2830 os        1 DLP     -0.581200
     53 P          -2.1690    5.8480   -0.4890 p5        1 DLP      1.438800
     54 HC11        0.6230    4.9680   -0.7890 h1        1 DLP      0.055200
     55 HC12       -0.6030    3.7190   -0.2470 h1        1 DLP      0.055200
     56 HC2         1.4440    5.1730    1.6300 h1        1 DLP      0.084700
     57 HC31       -0.5210    4.4720    2.8890 h1        1 DLP      0.071700
     58 HC32        0.8300    3.2530    3.2110 h1        1 DLP      0.071700
     59 HC41       -4.7160    5.9720    0.0370 h1        1 DLP      0.053700
     60 HC42       -5.0640    4.1640    0.0800 h1        1 DLP      0.053700
     61 HC51       -5.8600    4.8320    2.1320 hx        1 DLP      0.091200
     62 HC52       -4.1930    4.1190    2.4870 hx        1 DLP      0.091200
     63 HC61       -6.0240    7.2660    1.9030 hx        1 DLP      0.100922
     64 HC62       -4.8880    8.2920    2.9140 hx        1 DLP      0.100922
     65 HC63       -4.3480    7.7050    1.2630 hx        1 DLP      0.100922
     66 HC71       -4.6250    5.1010    4.6360 hx        1 DLP      0.100922
     67 HC72       -4.7190    6.9210    4.8180 hx        1 DLP      0.100922
     68 HC73       -6.1240    6.0060    4.0860 hx        1 DLP      0.100922
     69 HC81       -2.4580    6.5100    1.9610 hx        1 DLP      0.100922
     70 HC82       -2.7150    7.2430    3.6290 hx        1 DLP      0.100922
     71 HC83       -2.5110    5.4180    3.4430 hx        1 DLP      0.100922
     72 H121       -2.0620    0.7680    1.0810 hc        1 DLP      0.096700
     73 H122       -3.2120    2.1270    0.7150 hc        1 DLP      0.096700
     74 H131       -4.4420    1.6030    2.8940 hc        1 DLP      0.046200
     75 H132       -3.3400    0.1990    3.1600 hc        1 DLP      0.046200
     76 H141       -4.0700   -0.7950    0.9600 hc        1 DLP      0.045200
     77 H142       -5.1810    0.6040    0.6980 hc        1 DLP      0.045200
     78 H151       -6.3940    0.0350    2.8370 hc        1 DLP      0.039200
     79 H152       -5.2870   -1.3690    3.0870 hc        1 DLP      0.039200
     80 H161       -6.0300   -2.3500    0.8910 hc        1 DLP      0.042200
     81 H162       -7.1350   -0.9450    0.6350 hc        1 DLP      0.042200
     82 H171       -8.3510   -1.5140    2.7680 hc        1 DLP      0.041200
     83 H172       -7.2470   -2.9210    3.0210 hc        1 DLP      0.041200
     84 H181       -7.9870   -3.9000    0.8200 hc        1 DLP      0.048200
     85 H182       -9.0820   -2.4900    0.5560 hc        1 DLP      0.048200
     86 H19        -9.6390   -3.6940    3.2170 ha        1 DLP      0.122000
     87 H20       -11.4030   -5.0460    2.1930 ha        1 DLP      0.123000
     88 H211       -9.7800   -5.1460   -0.3060 hc        1 DLP      0.056200
     89 H212      -10.9530   -3.7800   -0.4020 hc        1 DLP      0.056200
     90 H22       -12.3470   -6.2390    0.5550 ha        1 DLP      0.123000
     91 H23       -12.9890   -6.7020   -1.7600 ha        1 DLP      0.123000
     92 H241      -10.4410   -5.4860   -2.6730 hc        1 DLP      0.047200
     93 H242      -11.7310   -4.2240   -2.6720 hc        1 DLP      0.047200
     94 H251      -13.1980   -5.7180   -4.0760 hc        1 DLP      0.041700
     95 H252      -11.9110   -6.9850   -4.0740 hc        1 DLP      0.041700
     96 H261      -10.3150   -5.3650   -5.1590 hc        1 DLP      0.039700
     97 H262      -11.6010   -4.0980   -5.1600 hc        1 DLP      0.039700
     98 H271      -13.0660   -5.5860   -6.5660 hc        1 DLP      0.038700
     99 H272      -11.7800   -6.8530   -6.5650 hc        1 DLP      0.038700
    100 H281      -11.7040   -5.4920   -8.6540 hc        1 DLP      0.032700
    101 H282      -11.4840   -3.9780   -7.6840 hc        1 DLP      0.032700
    102 H283      -10.1940   -5.2480   -7.6830 hc        1 DLP      0.032700
    103 H321        3.7420    1.1510    1.2670 hc        1 DLP      0.079200
    104 H322        3.6240    2.0260   -0.3180 hc        1 DLP      0.079200
    105 H331        5.5360    3.5050    0.3210 hc        1 DLP      0.057200
    106 H332        5.6110    2.7470    1.9580 hc        1 DLP      0.057200
    107 H341        6.1130    0.5130    0.9010 hc        1 DLP      0.040700
    108 H342        6.0170    1.2640   -0.7390 hc        1 DLP      0.040700
    109 H351        7.8930    2.8300   -0.1330 hc        1 DLP      0.042700
    110 H352        7.9870    2.0840    1.5090 hc        1 DLP      0.042700
    111 H361        8.4770   -0.1550    0.4610 hc        1 DLP      0.040200
    112 H362        8.3850    0.5930   -1.1790 hc        1 DLP      0.040200
    113 H371       10.2610    2.1600   -0.5690 hc        1 DLP      0.042700
    114 H372       10.3540    1.4100    1.0710 hc        1 DLP      0.042700
    115 H381       10.8320   -0.8330    0.0150 hc        1 DLP      0.047200
    116 H382       10.7460   -0.0780   -1.6220 hc        1 DLP      0.047200
    117 H39        12.6500    1.5070   -0.0600 ha        1 DLP      0.123000
    118 H40        14.4870    0.0290   -0.7180 ha        1 DLP      0.123000
    119 H411       12.7270   -2.3060   -0.5580 hc        1 DLP      0.056200
    120 H412       12.5320   -1.6370   -2.2210 hc        1 DLP      0.056200
    121 H42        15.4120   -1.7370   -1.7240 ha        1 DLP      0.123000
    122 H43        15.5120   -4.0600   -2.4860 ha        1 DLP      0.123000
    123 H441       12.9300   -4.6420   -1.2390 hc        1 DLP      0.047200
    124 H442       12.5750   -4.0200   -2.8950 hc        1 DLP      0.047200
    125 H451       14.1490   -5.7330   -3.8740 hc        1 DLP      0.041700
    126 H452       14.4980   -6.3570   -2.2160 hc        1 DLP      0.041700
    127 H461       12.0550   -6.8820   -1.9000 hc        1 DLP      0.039700
    128 H462       11.7060   -6.2590   -3.5580 hc        1 DLP      0.039700
    129 H471       13.2690   -7.9760   -4.5310 hc        1 DLP      0.038700
    130 H472       13.6170   -8.5990   -2.8730 hc        1 DLP      0.038700
    131 H481       11.1810   -9.1600   -2.5700 hc        1 DLP      0.032700
    132 H482       10.8320   -8.5350   -4.2320 hc        1 DLP      0.032700
    133 H483       11.8900   -9.9900   -4.0160 hc        1 DLP      0.032700
    134 C31         3.0180    3.1400    1.4210 c         1 DLP      0.637100
@<TRIPOS>BOND
     1    1    2 1   
     2    1   51 1   
     3    1   54 1   
     4    1   55 1   
     5    2    3 1   
     6    2   45 1   
     7    2   56 1   
     8    3   46 1   
     9    3   57 1   
    10    3   58 1   
    11    4    5 1   
    12    4   52 1   
    13    4   59 1   
    14    4   60 1   
    15    5   44 1   
    16    5   61 1   
    17    5   62 1   
    18    6   44 1   
    19    6   63 1   
    20    6   64 1   
    21    6   65 1   
    22    7   44 1   
    23    7   66 1   
    24    7   67 1   
    25    7   68 1   
    26    8   44 1   
    27    8   69 1   
    28    8   70 1   
    29    8   71 1   
    30    9   10 1   
    31    9   46 1   
    32    9   47 2   
    33   10   11 1   
    34   10   72 1   
    35   10   73 1   
    36   11   12 1   
    37   11   74 1   
    38   11   75 1   
    39   12   13 1   
    40   12   76 1   
    41   12   77 1   
    42   13   14 1   
    43   13   78 1   
    44   13   79 1   
    45   14   15 1   
    46   14   80 1   
    47   14   81 1   
    48   15   16 1   
    49   15   82 1   
    50   15   83 1   
    51   16   17 1   
    52   16   84 1   
    53   16   85 1   
    54   17   18 2   
    55   17   86 1   
    56   18   19 1   
    57   18   87 1   
    58   19   20 1   
    59   19   88 1   
    60   19   89 1   
    61   20   21 2   
    62   20   90 1   
    63   21   22 1   
    64   21   91 1   
    65   22   23 1   
    66   22   92 1   
    67   22   93 1   
    68   23   24 1   
    69   23   94 1   
    70   23   95 1   
    71   24   25 1   
    72   24   96 1   
    73   24   97 1   
    74   25   26 1   
    75   25   98 1   
    76   25   99 1   
    77   26  100 1   
    78   26  101 1   
    79   26  102 1   
    80   27   28 1   
    81   27  103 1   
    82   27  104 1   
    83   27  134 1   
    84   28   29 1   
    85   28  105 1   
    86   28  106 1   
    87   29   30 1   
    88   29  107 1   
    89   29  108 1   
    90   30   31 1   
    91   30  109 1   
    92   30  110 1   
    93   31   32 1   
    94   31  111 1   
    95   31  112 1   
    96   32   33 1   
    97   32  113 1   
    98   32  114 1   
    99   33   34 1   
   100   33  115 1   
   101   33  116 1   
   102   34   35 2   
   103   34  117 1   
   104   35   36 1   
   105   35  118 1   
   106   36   37 1   
   107   36  119 1   
   108   36  120 1   
   109   37   38 2   
   110   37  121 1   
   111   38   39 1   
   112   38  122 1   
   113   39   40 1   
   114   39  123 1   
   115   39  124 1   
   116   40   41 1   
   117   40  125 1   
   118   40  126 1   
   119   41   42 1   
   120   41  127 1   
   121   41  128 1   
   122   42   43 1   
   123   42  129 1   
   124   42  130 1   
   125   43  131 1   
   126   43  132 1   
   127   43  133 1   
   128   45  134 1   
   129   48  134 2   
   130   49   53 1   
   131   50   53 1   
   132   51   53 1   
   133   52   53 1   
@<TRIPOS>SUBSTRUCTURE
     1 DLP         1 TEMP              0 ****  ****    0 ROOT
