@<TRIPOS>MOLECULE
DLP
  134   133     1     0     0
SMALL
bcc


@<TRIPOS>ATOM
      1 C1         -2.2680   -1.3320   -0.5490 c3        1 DLP      0.183400
      2 C2         -1.0650   -0.4680   -0.9510 c3        1 DLP      0.133100
      3 C3         -0.4410    0.2750    0.2280 c3        1 DLP      0.118400
      4 C4         -4.3710   -0.7580    3.3450 c3        1 DLP      0.194400
      5 C5         -3.8520    0.5520    3.9680 c3        1 DLP      0.078800
      6 C6         -5.7850    1.9000    3.2170 c3        1 DLP      0.075767
      7 C7         -3.8540    2.9540    4.2520 c3        1 DLP      0.075767
      8 C8         -3.6720    2.0590    2.0120 c3        1 DLP      0.075767
      9 C11        -0.5010   -0.3670    2.5430 c         1 DLP      0.669100
     10 C12        -0.4650   -1.5580    3.4480 c3        1 DLP     -0.141400
     11 C13        -0.0520   -1.1800    4.8530 c3        1 DLP     -0.074400
     12 C14        -0.1720   -2.3660    5.7850 c3        1 DLP     -0.081400
     13 C15         0.2470   -1.9980    7.1930 c3        1 DLP     -0.078400
     14 C16         0.1140   -3.1800    8.1300 c3        1 DLP     -0.080400
     15 C17         0.5310   -2.8130    9.5380 c3        1 DLP     -0.076400
     16 C18         0.3900   -3.9940   10.4750 c3        1 DLP     -0.049200
     17 C19         0.7860   -3.6600   11.8630 c2        1 DLP     -0.178200
     18 C20         0.6410   -4.4940   12.8990 c2        1 DLP     -0.166200
     19 C21         0.0540   -5.8500   12.7830 c3        1 DLP     -0.020000
     20 C22         0.1370   -6.6450   14.0320 c2        1 DLP     -0.172200
     21 C23        -0.4500   -7.8360   14.1900 c2        1 DLP     -0.172200
     22 C24        -1.2620   -8.5010   13.1430 c3        1 DLP     -0.049200
     23 C25        -1.7140   -9.8850   13.5590 c3        1 DLP     -0.077400
     24 C26        -2.5380  -10.5400   12.4720 c3        1 DLP     -0.079400
     25 C27        -2.9930  -11.9250   12.8840 c3        1 DLP     -0.080400
     26 C28        -3.8130  -12.5810   11.8050 c3        1 DLP     -0.093100
     27 C32         1.7250   -1.9450   -2.9210 c3        1 DLP     -0.127400
     28 C33         2.0930   -1.6530   -4.3600 c3        1 DLP     -0.079400
     29 C34         3.1070   -2.6540   -4.8690 c3        1 DLP     -0.078400
     30 C35         3.4640   -2.3800   -6.3140 c3        1 DLP     -0.079400
     31 C36         4.4850   -3.3740   -6.8250 c3        1 DLP     -0.079400
     32 C37         4.8410   -3.1010   -8.2700 c3        1 DLP     -0.077400
     33 C38         5.8640   -4.0950   -8.7790 c3        1 DLP     -0.049200
     34 C39         6.2330   -3.8480  -10.1930 c2        1 DLP     -0.174200
     35 C40         7.1860   -4.5260  -10.8420 c2        1 DLP     -0.170200
     36 C41         7.9950   -5.6000  -10.2200 c3        1 DLP     -0.020000
     37 C42         8.8790   -6.3110  -11.1750 c2        1 DLP     -0.169200
     38 C43         9.7890   -7.2180  -10.8050 c2        1 DLP     -0.175200
     39 C44        10.0330   -7.6150   -9.3990 c3        1 DLP     -0.049200
     40 C45        11.0440   -8.7370   -9.2850 c3        1 DLP     -0.077400
     41 C46        11.2710   -9.1240   -7.8390 c3        1 DLP     -0.079400
     42 C47        12.2820  -10.2450   -7.7220 c3        1 DLP     -0.080400
     43 C48        12.5120  -10.6330   -6.2840 c3        1 DLP     -0.093100
     44 N          -4.3010    1.8500    3.3490 n4        1 DLP     -0.575800
     45 O2         -0.1260   -1.3870   -1.5340 os        1 DLP     -0.428900
     46 O3         -0.1520   -0.6750    1.2640 os        1 DLP     -0.421900
     47 O11        -0.8180    0.7980    2.8200 o         1 DLP     -0.612000
     48 O31         0.8680    0.3390   -2.5590 o         1 DLP     -0.555000
     49 O1P        -5.5070   -0.1950    0.9700 o         1 DLP     -0.814000
     50 O2P        -4.5580   -2.6250    0.3930 o         1 DLP     -0.814000
     51 O3P        -3.2780   -0.4750   -0.0950 os        1 DLP     -0.580200
     52 O4P        -3.6320   -1.1100    2.2330 os        1 DLP     -0.581200
     53 P          -4.4530   -1.2160    0.7730 p5        1 DLP      1.438800
     54 HC11       -2.6380   -1.9110   -1.4370 h1        1 DLP      0.055200
     55 HC12       -1.9830   -2.0490    0.2690 h1        1 DLP      0.055200
     56 HC2        -1.3700    0.3000   -1.7170 h1        1 DLP      0.085700
     57 HC31       -1.1600    1.0560    0.5890 h1        1 DLP      0.071700
     58 HC32        0.5380    0.7360   -0.0650 h1        1 DLP      0.071700
     59 HC41       -5.4700   -0.6930    3.1110 h1        1 DLP      0.053700
     60 HC42       -4.2020   -1.5400    4.1450 h1        1 DLP      0.053700
     61 HC51       -4.1850    0.5780    5.0430 hx        1 DLP      0.091200
     62 HC52       -2.7210    0.5370    3.9160 hx        1 DLP      0.091200
     63 HC61       -6.2520    1.5680    4.1790 hx        1 DLP      0.100922
     64 HC62       -6.0950    2.9510    2.9830 hx        1 DLP      0.100922
     65 HC63       -6.1160    1.2230    2.3690 hx        1 DLP      0.100922
     66 HC71       -2.7420    2.8920    4.3860 hx        1 DLP      0.100922
     67 HC72       -4.1210    3.9410    3.7920 hx        1 DLP      0.100922
     68 HC73       -4.3630    2.8560    5.2460 hx        1 DLP      0.100922
     69 HC81       -4.0280    1.2450    1.3080 hx        1 DLP      0.100922
     70 HC82       -3.9850    3.0580    1.6160 hx        1 DLP      0.100922
     71 HC83       -2.5540    2.0030    2.1130 hx        1 DLP      0.100922
     72 H121        0.2260   -2.3350    3.0260 hc        1 DLP      0.096700
     73 H122       -1.5100   -1.9840    3.4350 hc        1 DLP      0.096700
     74 H131       -0.6980   -0.3370    5.2180 hc        1 DLP      0.046200
     75 H132        1.0060   -0.8060    4.8490 hc        1 DLP      0.046200
     76 H141        0.4690   -3.2060    5.4090 hc        1 DLP      0.045200
     77 H142       -1.2310   -2.7360    5.7910 hc        1 DLP      0.045200
     78 H151       -0.3860   -1.1500    7.5650 hc        1 DLP      0.039200
     79 H152        1.3100   -1.6400    7.1880 hc        1 DLP      0.039200
     80 H161        0.7480   -4.0270    7.7580 hc        1 DLP      0.042200
     81 H162       -0.9490   -3.5400    8.1330 hc        1 DLP      0.042200
     82 H171       -0.1000   -1.9620    9.9080 hc        1 DLP      0.041200
     83 H172        1.5950   -2.4590    9.5350 hc        1 DLP      0.041200
     84 H181        1.0230   -4.8460   10.1030 hc        1 DLP      0.048200
     85 H182       -0.6750   -4.3570   10.4640 hc        1 DLP      0.048200
     86 H19         1.2260   -2.6610   12.0120 ha        1 DLP      0.122000
     87 H20         0.9600   -4.1850   13.9080 ha        1 DLP      0.123000
     88 H211        0.5730   -6.4130   11.9540 hc        1 DLP      0.056200
     89 H212       -1.0260   -5.7580   12.4690 hc        1 DLP      0.056200
     90 H22         0.7280   -6.2050   14.8520 ha        1 DLP      0.123000
     91 H23        -0.3480   -8.3840   15.1410 ha        1 DLP      0.123000
     92 H241       -0.6650   -8.5700   12.1930 hc        1 DLP      0.047200
     93 H242       -2.1620   -7.8660   12.9120 hc        1 DLP      0.047200
     94 H251       -2.3200   -9.8170   14.5010 hc        1 DLP      0.041700
     95 H252       -0.8180  -10.5210   13.7870 hc        1 DLP      0.041700
     96 H261       -1.9320  -10.6100   11.5300 hc        1 DLP      0.039700
     97 H262       -3.4340   -9.9050   12.2430 hc        1 DLP      0.039700
     98 H271       -3.5970  -11.8540   13.8270 hc        1 DLP      0.038700
     99 H272       -2.0960  -12.5590   13.1140 hc        1 DLP      0.038700
    100 H281       -4.1380  -13.6000   12.1290 hc        1 DLP      0.032700
    101 H282       -4.7250  -11.9760   11.5790 hc        1 DLP      0.032700
    102 H283       -3.2200  -12.6830   10.8640 hc        1 DLP      0.032700
    103 H321        2.6470   -1.9730   -2.2790 hc        1 DLP      0.079200
    104 H322        1.2190   -2.9430   -2.8370 hc        1 DLP      0.079200
    105 H331        1.1710   -1.6900   -4.9990 hc        1 DLP      0.057200
    106 H332        2.5070   -0.6120   -4.4370 hc        1 DLP      0.057200
    107 H341        4.0330   -2.6070   -4.2370 hc        1 DLP      0.040700
    108 H342        2.6930   -3.6930   -4.7740 hc        1 DLP      0.040700
    109 H351        2.5390   -2.4320   -6.9470 hc        1 DLP      0.042700
    110 H352        3.8720   -1.3390   -6.4100 hc        1 DLP      0.042700
    111 H361        5.4100   -3.3220   -6.1930 hc        1 DLP      0.040200
    112 H362        4.0770   -4.4150   -6.7280 hc        1 DLP      0.040200
    113 H371        3.9160   -3.1550   -8.9030 hc        1 DLP      0.042700
    114 H372        5.2480   -2.0600   -8.3670 hc        1 DLP      0.042700
    115 H381        6.7860   -4.0480   -8.1360 hc        1 DLP      0.046700
    116 H382        5.4550   -5.1390   -8.6790 hc        1 DLP      0.046700
    117 H39         5.6670   -3.0540  -10.7070 ha        1 DLP      0.123000
    118 H40         7.4100   -4.2930  -11.8960 ha        1 DLP      0.123000
    119 H411        8.6200   -5.1570   -9.3910 hc        1 DLP      0.056200
    120 H412        7.3090   -6.3490   -9.7280 hc        1 DLP      0.056200
    121 H42         8.7480   -6.0590  -12.2410 ha        1 DLP      0.123000
    122 H43        10.4140   -7.7190  -11.5630 ha        1 DLP      0.122000
    123 H441       10.3960   -6.7220   -8.8180 hc        1 DLP      0.047200
    124 H442        9.0630   -7.9330   -8.9250 hc        1 DLP      0.047200
    125 H451       10.6810   -9.6300   -9.8610 hc        1 DLP      0.041200
    126 H452       12.0150   -8.4180   -9.7470 hc        1 DLP      0.041200
    127 H461       11.6320   -8.2310   -7.2630 hc        1 DLP      0.039700
    128 H462       10.3000   -9.4440   -7.3780 hc        1 DLP      0.039700
    129 H471       11.9200  -11.1360   -8.3000 hc        1 DLP      0.038700
    130 H472       13.2520   -9.9230   -8.1850 hc        1 DLP      0.038700
    131 H481       12.8970   -9.7640   -5.6970 hc        1 DLP      0.032700
    132 H482       11.5620  -10.9800   -5.8120 hc        1 DLP      0.032700
    133 H483       13.2600  -11.4600   -6.2210 hc        1 DLP      0.032700
    134 C31         0.8300   -0.8790   -2.3690 c         1 DLP      0.637100
@<TRIPOS>BOND
     1    1    2 1   
     2    1   51 1   
     3    1   54 1   
     4    1   55 1   
     5    2    3 1   
     6    2   45 1   
     7    2   56 1   
     8    3   46 1   
     9    3   57 1   
    10    3   58 1   
    11    4    5 1   
    12    4   52 1   
    13    4   59 1   
    14    4   60 1   
    15    5   44 1   
    16    5   61 1   
    17    5   62 1   
    18    6   44 1   
    19    6   63 1   
    20    6   64 1   
    21    6   65 1   
    22    7   44 1   
    23    7   66 1   
    24    7   67 1   
    25    7   68 1   
    26    8   44 1   
    27    8   69 1   
    28    8   70 1   
    29    8   71 1   
    30    9   10 1   
    31    9   46 1   
    32    9   47 2   
    33   10   11 1   
    34   10   72 1   
    35   10   73 1   
    36   11   12 1   
    37   11   74 1   
    38   11   75 1   
    39   12   13 1   
    40   12   76 1   
    41   12   77 1   
    42   13   14 1   
    43   13   78 1   
    44   13   79 1   
    45   14   15 1   
    46   14   80 1   
    47   14   81 1   
    48   15   16 1   
    49   15   82 1   
    50   15   83 1   
    51   16   17 1   
    52   16   84 1   
    53   16   85 1   
    54   17   18 2   
    55   17   86 1   
    56   18   19 1   
    57   18   87 1   
    58   19   20 1   
    59   19   88 1   
    60   19   89 1   
    61   20   21 2   
    62   20   90 1   
    63   21   22 1   
    64   21   91 1   
    65   22   23 1   
    66   22   92 1   
    67   22   93 1   
    68   23   24 1   
    69   23   94 1   
    70   23   95 1   
    71   24   25 1   
    72   24   96 1   
    73   24   97 1   
    74   25   26 1   
    75   25   98 1   
    76   25   99 1   
    77   26  100 1   
    78   26  101 1   
    79   26  102 1   
    80   27   28 1   
    81   27  103 1   
    82   27  104 1   
    83   27  134 1   
    84   28   29 1   
    85   28  105 1   
    86   28  106 1   
    87   29   30 1   
    88   29  107 1   
    89   29  108 1   
    90   30   31 1   
    91   30  109 1   
    92   30  110 1   
    93   31   32 1   
    94   31  111 1   
    95   31  112 1   
    96   32   33 1   
    97   32  113 1   
    98   32  114 1   
    99   33   34 1   
   100   33  115 1   
   101   33  116 1   
   102   34   35 2   
   103   34  117 1   
   104   35   36 1   
   105   35  118 1   
   106   36   37 1   
   107   36  119 1   
   108   36  120 1   
   109   37   38 2   
   110   37  121 1   
   111   38   39 1   
   112   38  122 1   
   113   39   40 1   
   114   39  123 1   
   115   39  124 1   
   116   40   41 1   
   117   40  125 1   
   118   40  126 1   
   119   41   42 1   
   120   41  127 1   
   121   41  128 1   
   122   42   43 1   
   123   42  129 1   
   124   42  130 1   
   125   43  131 1   
   126   43  132 1   
   127   43  133 1   
   128   45  134 1   
   129   48  134 2   
   130   49   53 1   
   131   50   53 1   
   132   51   53 1   
   133   52   53 1   
@<TRIPOS>SUBSTRUCTURE
     1 DLP         1 TEMP              0 ****  ****    0 ROOT
