@<TRIPOS>MOLECULE
DLR
   37    40     1     0     0
SMALL
bcc


@<TRIPOS>ATOM
      1 CAJ        -0.0060   -0.3140   -0.1340 ca        1 DLR     -0.044000
      2 CAS         1.3620   -0.1100    0.0110 ca        1 DLR     -0.219900
      3 CAI         2.3460   -0.2990    1.0690 cc        1 DLR      0.350800
      4 NAM         3.5660    0.0740    0.6360 nd        1 DLR     -0.507100
      5 NAN         3.4650    0.4590   -0.6450 na        1 DLR     -0.022100
      6 CAT         2.1360    0.4130   -1.0930 ca        1 DLR     -0.041200
      7 CAH         1.5280    0.7260   -2.3170 ca        1 DLR     -0.145000
      8 CAG         0.1630    0.5190   -2.4230 ca        1 DLR     -0.066000
      9 CAR        -0.6040    0.0060   -1.3530 ca        1 DLR     -0.131300
     10 CAU        -2.0820   -0.1880   -1.4890 c3        1 DLR      0.256100
     11 SAO        -2.9060    1.4430   -1.3250 ss        1 DLR     -0.298200
     12 CAK        -3.8810    1.2640   -2.7890 c3        1 DLR     -0.095300
     13 CAP        -3.5440   -0.0750   -3.4060 c         1 DLR      0.701500
     14 OAA        -4.0930   -0.5140   -4.4300 o         1 DLR     -0.613500
     15 NAV        -2.5310   -0.7650   -2.7360 n         1 DLR     -0.471800
     16 CAL        -2.1940   -2.1310   -3.0520 c3        1 DLR      0.146300
     17 CAQ        -2.9960   -3.1740   -2.3250 ca        1 DLR     -0.126300
     18 CAE        -4.3410   -3.3710   -2.6570 ca        1 DLR     -0.115500
     19 CAC        -5.0810   -4.3610   -2.0120 ca        1 DLR     -0.133000
     20 CAB        -4.4820   -5.1570   -1.0360 ca        1 DLR     -0.122000
     21 CAD        -3.1420   -4.9640   -0.7050 ca        1 DLR     -0.133000
     22 CAF        -2.3990   -3.9720   -1.3460 ca        1 DLR     -0.115500
     23 HAJ        -0.5970   -0.7180    0.7020 ha        1 DLR      0.143000
     24 HAI         2.1710   -0.6810    2.0750 h4        1 DLR      0.056800
     25 HAN         4.2220    0.9250   -1.0860 hn        1 DLR      0.324700
     26 HAH         2.1100    1.1220   -3.1600 ha        1 DLR      0.143000
     27 HAG        -0.3420    0.7690   -3.3700 ha        1 DLR      0.145000
     28 HAU        -2.4530   -0.8210   -0.6310 h2        1 DLR      0.083700
     29 HAK1       -3.6570    2.0800   -3.5170 h1        1 DLR      0.107200
     30 HAK2       -4.9700    1.2970   -2.5450 h1        1 DLR      0.107200
     31 HAL1       -1.0970   -2.2700   -2.8250 h1        1 DLR      0.075200
     32 HAL2       -2.3550   -2.2670   -4.1630 h1        1 DLR      0.075200
     33 HAE        -4.8050   -2.7400   -3.4340 ha        1 DLR      0.142000
     34 HAF        -1.3400   -3.8250   -1.0840 ha        1 DLR      0.142000
     35 HAC        -6.1380   -4.5140   -2.2760 ha        1 DLR      0.133500
     36 HAB        -5.0670   -5.9390   -0.5290 ha        1 DLR      0.132000
     37 HAD        -2.6670   -5.5930    0.0620 ha        1 DLR      0.133500
@<TRIPOS>BOND
     1    1    2 ar  
     2    1    9 ar  
     3    1   23 1   
     4    2    3 1   
     5    2    6 ar  
     6    3    4 2   
     7    3   24 1   
     8    4    5 1   
     9    5    6 1   
    10    5   25 1   
    11    6    7 ar  
    12    7    8 ar  
    13    7   26 1   
    14    8    9 ar  
    15    8   27 1   
    16    9   10 1   
    17   10   11 1   
    18   10   15 1   
    19   10   28 1   
    20   11   12 1   
    21   12   13 1   
    22   12   29 1   
    23   12   30 1   
    24   13   14 2   
    25   13   15 1   
    26   15   16 1   
    27   16   17 1   
    28   16   31 1   
    29   16   32 1   
    30   17   18 ar  
    31   17   22 ar  
    32   18   19 ar  
    33   18   33 1   
    34   19   20 ar  
    35   19   35 1   
    36   20   21 ar  
    37   20   36 1   
    38   21   22 ar  
    39   21   37 1   
    40   22   34 1   
@<TRIPOS>SUBSTRUCTURE
     1 DLR         1 TEMP              0 ****  ****    0 ROOT
