@<TRIPOS>MOLECULE
DLR
   37    40     1     0     0
SMALL
bcc


@<TRIPOS>ATOM
      1 CAJ         0.0000   -0.3170   -0.1380 ca        1 DLR     -0.044000
      2 CAS         1.3690   -0.1120    0.0000 ca        1 DLR     -0.219900
      3 CAI         2.3580   -0.3030    1.0540 cc        1 DLR      0.350800
      4 NAM         3.5750    0.0710    0.6160 nd        1 DLR     -0.507100
      5 NAN         3.4690    0.4590   -0.6640 na        1 DLR     -0.022100
      6 CAT         2.1380    0.4140   -1.1060 ca        1 DLR     -0.041200
      7 CAH         1.5230    0.7290   -2.3270 ca        1 DLR     -0.145000
      8 CAG         0.1570    0.5210   -2.4260 ca        1 DLR     -0.066000
      9 CAR        -0.6040    0.0050   -1.3530 ca        1 DLR     -0.131300
     10 CAU        -2.0820   -0.1890   -1.4830 c3        1 DLR      0.256100
     11 SAO        -2.9060    1.4410   -1.3100 ss        1 DLR     -0.298200
     12 CAK        -3.8890    1.2660   -2.7690 c3        1 DLR     -0.095300
     13 CAP        -3.5540   -0.0710   -3.3930 c         1 DLR      0.701500
     14 OAA        -4.1080   -0.5070   -4.4140 o         1 DLR     -0.613500
     15 NAV        -2.5380   -0.7620   -2.7300 n         1 DLR     -0.471800
     16 CAL        -2.2010   -2.1270   -3.0520 c3        1 DLR      0.146300
     17 CAQ        -2.9980   -3.1730   -2.3240 ca        1 DLR     -0.126300
     18 CAE        -4.3450   -3.3700   -2.6480 ca        1 DLR     -0.115500
     19 CAC        -5.0800   -4.3620   -2.0020 ca        1 DLR     -0.133000
     20 CAB        -4.4750   -5.1620   -1.0330 ca        1 DLR     -0.122000
     21 CAD        -3.1320   -4.9690   -0.7100 ca        1 DLR     -0.133000
     22 CAF        -2.3940   -3.9740   -1.3510 ca        1 DLR     -0.115500
     23 HAJ        -0.5870   -0.7230    0.7000 ha        1 DLR      0.143000
     24 HAI         2.1880   -0.6880    2.0600 h4        1 DLR      0.056800
     25 HAN         4.2230    0.9260   -1.1080 hn        1 DLR      0.324700
     26 HAH         2.1010    1.1270   -3.1710 ha        1 DLR      0.143000
     27 HAG        -0.3520    0.7730   -3.3710 ha        1 DLR      0.145000
     28 HAU        -2.4490   -0.8240   -0.6250 h2        1 DLR      0.083700
     29 HAK1       -4.9770    1.2980   -2.5190 h1        1 DLR      0.107200
     30 HAK2       -3.6700    2.0850   -3.4960 h1        1 DLR      0.107200
     31 HAL1       -2.3670   -2.2590   -4.1620 h1        1 DLR      0.075200
     32 HAL2       -1.1030   -2.2650   -2.8320 h1        1 DLR      0.075200
     33 HAE        -4.8140   -2.7360   -3.4200 ha        1 DLR      0.142000
     34 HAF        -1.3340   -3.8270   -1.0950 ha        1 DLR      0.142000
     35 HAC        -6.1380   -4.5150   -2.2600 ha        1 DLR      0.133500
     36 HAB        -5.0560   -5.9460   -0.5250 ha        1 DLR      0.132000
     37 HAD        -2.6530   -5.6000    0.0530 ha        1 DLR      0.133500
@<TRIPOS>BOND
     1    1    2 ar  
     2    1    9 ar  
     3    1   23 1   
     4    2    3 1   
     5    2    6 ar  
     6    3    4 2   
     7    3   24 1   
     8    4    5 1   
     9    5    6 1   
    10    5   25 1   
    11    6    7 ar  
    12    7    8 ar  
    13    7   26 1   
    14    8    9 ar  
    15    8   27 1   
    16    9   10 1   
    17   10   11 1   
    18   10   15 1   
    19   10   28 1   
    20   11   12 1   
    21   12   13 1   
    22   12   29 1   
    23   12   30 1   
    24   13   14 2   
    25   13   15 1   
    26   15   16 1   
    27   16   17 1   
    28   16   31 1   
    29   16   32 1   
    30   17   18 ar  
    31   17   22 ar  
    32   18   19 ar  
    33   18   33 1   
    34   19   20 ar  
    35   19   35 1   
    36   20   21 ar  
    37   20   36 1   
    38   21   22 ar  
    39   21   37 1   
    40   22   34 1   
@<TRIPOS>SUBSTRUCTURE
     1 DLR         1 TEMP              0 ****  ****    0 ROOT
