@<TRIPOS>MOLECULE
DLS
   33    32     1     0     0
SMALL
bcc


@<TRIPOS>ATOM
      1 C2          3.0400    0.4380   -3.2590 c3        1 DLS     -0.175100
      2 O1          2.0000   -1.1660   -1.8100 o         1 DLS     -0.661100
      3 C1          1.8550   -0.1310   -2.5030 c         1 DLS      0.638100
      4 N           0.6790    0.5680   -2.5700 n         1 DLS     -0.516900
      5 CA         -0.5920    0.0220   -2.1400 c3        1 DLS     -0.047300
      6 C          -1.7580    0.4070   -3.1260 c         1 DLS      0.911600
      7 O          -2.8660   -0.1540   -2.9200 o         1 DLS     -0.832300
      8 CB         -1.0070    0.4750   -0.7370 c3        1 DLS     -0.069400
      9 CG         -0.0720   -0.0360    0.3380 c3        1 DLS     -0.080400
     10 CD         -0.6930    0.1130    1.7110 c3        1 DLS     -0.099400
     11 CE          0.2740   -0.3850    2.7860 c3        1 DLS      0.077000
     12 NZ         -0.3120   -0.4840    4.0990 n         1 DLS     -0.560900
     13 CH3        -0.6540    0.1320    6.4630 c3        1 DLS     -0.177100
     14 OH          1.2540    0.8170    5.1710 o         1 DLS     -0.620100
     15 CH          0.1680    0.2010    5.1940 c         1 DLS      0.649100
     16 OXT        -1.5210    1.2350   -4.0500 o         1 DLS     -0.832300
     17 H21         3.9340   -0.2010   -3.0650 hc        1 DLS      0.049700
     18 H22         2.8290    0.4470   -4.3550 hc        1 DLS      0.049700
     19 H23         3.2570    1.4800   -2.9230 hc        1 DLS      0.049700
     20 H           0.5870    1.2720   -3.2760 hn        1 DLS      0.324500
     21 HCA        -0.5180   -1.1050   -2.1340 h1        1 DLS      0.058700
     22 HB2        -2.0440    0.0780   -0.5720 hc        1 DLS      0.048200
     23 HB3        -1.0630    1.5930   -0.6920 hc        1 DLS      0.048200
     24 HG2         0.8980    0.5250    0.2970 hc        1 DLS      0.049200
     25 HG3         0.1730   -1.1140    0.1410 hc        1 DLS      0.049200
     26 HD2        -1.6510   -0.4700    1.7470 hc        1 DLS      0.036700
     27 HD3        -0.9490    1.1880    1.8960 hc        1 DLS      0.036700
     28 HE2         1.1680    0.3000    2.8330 h1        1 DLS      0.062700
     29 HE3         0.6410   -1.4130    2.4960 h1        1 DLS      0.062700
     30 HZ         -1.2350   -0.8460    4.1420 hn        1 DLS      0.298500
     31 HH31       -0.1200    0.6940    7.2660 hc        1 DLS      0.058033
     32 HH32       -1.6570    0.5930    6.3020 hc        1 DLS      0.058033
     33 HH33       -0.7870   -0.9280    6.7870 hc        1 DLS      0.058033
@<TRIPOS>BOND
     1    1    3 1   
     2    1   17 1   
     3    1   18 1   
     4    1   19 1   
     5    2    3 2   
     6    3    4 1   
     7    4    5 1   
     8    4   20 1   
     9    5    6 1   
    10    5    8 1   
    11    5   21 1   
    12    6    7 1   
    13    6   16 1   
    14    8    9 1   
    15    8   22 1   
    16    8   23 1   
    17    9   10 1   
    18    9   24 1   
    19    9   25 1   
    20   10   11 1   
    21   10   26 1   
    22   10   27 1   
    23   11   12 1   
    24   11   28 1   
    25   11   29 1   
    26   12   15 1   
    27   12   30 1   
    28   13   15 1   
    29   13   31 1   
    30   13   32 1   
    31   13   33 1   
    32   14   15 2   
@<TRIPOS>SUBSTRUCTURE
     1 DLS         1 TEMP              0 ****  ****    0 ROOT
