@<TRIPOS>MOLECULE
DLT
   28    27     1     0     0
SMALL
bcc


@<TRIPOS>ATOM
      1 CAF        -0.0070   -0.0840    0.2250 c3        1 DLT      0.058800
      2 CAE         1.5290   -0.2070    0.3330 c3        1 DLT      0.151900
      3 CAA        -0.5910   -1.6070    2.0490 c3        1 DLT      0.062100
      4 CAH        -0.1970    0.7400    2.5090 c3        1 DLT      0.062100
      5 CAJ        -2.2330    0.0230    1.2130 c3        1 DLT      0.102800
      6 CAK        -2.9260    1.1920    1.9070 c3        1 DLT     -0.069400
      7 CAL        -3.6830    0.7760    3.1550 c3        1 DLT     -0.211400
      8 CAM        -2.9660   -0.3580    3.8920 c         1 DLT      0.890600
      9 N3         -0.7590   -0.2170    1.5160 n4        1 DLT     -0.574800
     10 OAC        -3.1910   -1.5490    3.5170 o         1 DLT     -0.836800
     11 F26         2.0740   -0.1500   -0.9320 f         1 DLT     -0.220300
     12 OAB        -2.0990   -0.0700    4.7690 o         1 DLT     -0.836800
     13 HAF1       -0.3770   -0.8810   -0.4820 hx        1 DLT      0.097200
     14 HAF2       -0.2440    0.9250   -0.2180 hx        1 DLT      0.097200
     15 HAE1        1.9470    0.6410    0.9440 h1        1 DLT      0.065200
     16 HAE2        1.8210   -1.1840    0.8070 h1        1 DLT      0.065200
     17 HAA1       -1.1910   -1.7130    3.0110 hx        1 DLT      0.110700
     18 HAA2        0.4910   -1.7990    2.2620 hx        1 DLT      0.110700
     19 HAA3       -0.9750   -2.3410    1.2950 hx        1 DLT      0.110700
     20 HAH1       -0.1450    1.7640    2.0610 hx        1 DLT      0.110700
     21 HAH2        0.8330    0.4040    2.8000 hx        1 DLT      0.110700
     22 HAH3       -0.8450    0.7450    3.4440 hx        1 DLT      0.110700
     23 HAJ1       -2.3260    0.1650    0.0990 hx        1 DLT      0.109200
     24 HAJ2       -2.7950   -0.9260    1.5010 hx        1 DLT      0.109200
     25 HAK1       -3.6600    1.6040    1.1610 hc        1 DLT      0.048200
     26 HAK2       -2.2220    2.0290    2.1450 hc        1 DLT      0.048200
     27 HAL1       -4.7060    0.4210    2.8730 hc        1 DLT      0.058200
     28 HAL2       -3.7880    1.6560    3.8370 hc        1 DLT      0.058200
@<TRIPOS>BOND
     1    1    2 1   
     2    1    9 1   
     3    1   13 1   
     4    1   14 1   
     5    2   11 1   
     6    2   15 1   
     7    2   16 1   
     8    3    9 1   
     9    3   17 1   
    10    3   18 1   
    11    3   19 1   
    12    4    9 1   
    13    4   20 1   
    14    4   21 1   
    15    4   22 1   
    16    5    6 1   
    17    5    9 1   
    18    5   23 1   
    19    5   24 1   
    20    6    7 1   
    21    6   25 1   
    22    6   26 1   
    23    7    8 1   
    24    7   27 1   
    25    7   28 1   
    26    8   10 1   
    27    8   12 1   
@<TRIPOS>SUBSTRUCTURE
     1 DLT         1 TEMP              0 ****  ****    0 ROOT
