@<TRIPOS>MOLECULE
DLT
   28    27     1     0     0
SMALL
bcc


@<TRIPOS>ATOM
      1 CAF         0.0690    0.0010    0.1790 c3        1 DLT      0.058800
      2 CAE         1.4110    0.7610    0.2720 c3        1 DLT      0.152900
      3 CAA        -0.1280   -0.8760    2.4490 c3        1 DLT      0.053600
      4 CAH        -0.8420    1.4070    1.9500 c3        1 DLT      0.053600
      5 CAJ        -2.1390   -0.4930    1.0440 c3        1 DLT      0.134800
      6 CAK        -3.0030   -1.1380    2.1200 c3        1 DLT     -0.084400
      7 CAL        -3.6490   -0.1770    3.0870 c3        1 DLT     -0.224400
      8 CAM        -2.7200    0.1380    4.2710 c         1 DLT      0.892600
      9 N3         -0.7610    0.0100    1.4320 n4        1 DLT     -0.578800
     10 OAC        -2.5400    1.3530    4.5700 o         1 DLT     -0.824300
     11 F26         2.1350    0.5340   -0.8790 f         1 DLT     -0.219300
     12 OAB        -2.1180   -0.8250    4.8320 o         1 DLT     -0.824300
     13 HAF1        0.2830   -1.0710   -0.0950 hx        1 DLT      0.096700
     14 HAF2       -0.5370    0.4670   -0.6490 hx        1 DLT      0.096700
     15 HAE1        1.2240    1.8670    0.3710 h1        1 DLT      0.067700
     16 HAE2        2.0150    0.4090    1.1540 h1        1 DLT      0.067700
     17 HAA1       -0.1670   -1.9360    2.0890 hx        1 DLT      0.113867
     18 HAA2       -0.6850   -0.7910    3.4400 hx        1 DLT      0.113867
     19 HAA3        0.9360   -0.5630    2.6060 hx        1 DLT      0.113867
     20 HAH1       -1.1310    2.0940    1.1150 hx        1 DLT      0.113867
     21 HAH2        0.1530    1.7030    2.3730 hx        1 DLT      0.113867
     22 HAH3       -1.6130    1.4760    2.7840 hx        1 DLT      0.113867
     23 HAJ1       -2.6880    0.3890    0.6060 hx        1 DLT      0.073200
     24 HAJ2       -1.9790   -1.2640    0.2350 hx        1 DLT      0.073200
     25 HAK1       -2.4300   -1.9070    2.7060 hc        1 DLT      0.072700
     26 HAK2       -3.8050   -1.6840    1.5470 hc        1 DLT      0.072700
     27 HAL1       -4.5720   -0.6510    3.5080 hc        1 DLT      0.052700
     28 HAL2       -3.9510    0.7710    2.5770 hc        1 DLT      0.052700
@<TRIPOS>BOND
     1    1    2 1   
     2    1    9 1   
     3    1   13 1   
     4    1   14 1   
     5    2   11 1   
     6    2   15 1   
     7    2   16 1   
     8    3    9 1   
     9    3   17 1   
    10    3   18 1   
    11    3   19 1   
    12    4    9 1   
    13    4   20 1   
    14    4   21 1   
    15    4   22 1   
    16    5    6 1   
    17    5    9 1   
    18    5   23 1   
    19    5   24 1   
    20    6    7 1   
    21    6   25 1   
    22    6   26 1   
    23    7    8 1   
    24    7   27 1   
    25    7   28 1   
    26    8   10 1   
    27    8   12 1   
@<TRIPOS>SUBSTRUCTURE
     1 DLT         1 TEMP              0 ****  ****    0 ROOT
