@<TRIPOS>MOLECULE
DLT
   28    27     1     0     0
SMALL
bcc


@<TRIPOS>ATOM
      1 CAF         0.0130    0.0000    0.0340 c3        1 DLT      0.058800
      2 CAE         1.5380    0.0000   -0.2140 c3        1 DLT      0.154900
      3 CAA         0.0960   -1.2160    2.1630 c3        1 DLT      0.086100
      4 CAH         0.0960    1.2160    2.1630 c3        1 DLT      0.086100
      5 CAJ        -1.9380    0.0000    1.4880 c3        1 DLT      0.119800
      6 CAK        -2.5530    0.0000    2.8730 c3        1 DLT     -0.090400
      7 CAL        -4.0590   -0.0000    2.7680 c3        1 DLT     -0.227400
      8 CAM        -4.6500   -0.0000    4.2110 c         1 DLT      0.924600
      9 N3         -0.4120    0.0000    1.4690 n4        1 DLT     -0.600800
     10 OAC        -5.9000   -0.0000    4.3040 o         1 DLT     -0.815800
     11 F26         1.7680    0.0000   -1.5730 f         1 DLT     -0.209300
     12 OAB        -3.8220   -0.0000    5.1650 o         1 DLT     -0.815800
     13 HAF1       -0.4280   -0.9130   -0.4590 hx        1 DLT      0.107700
     14 HAF2       -0.4280    0.9130   -0.4600 hx        1 DLT      0.107700
     15 HAE1        2.0120    0.9180    0.2310 h1        1 DLT      0.062700
     16 HAE2        2.0120   -0.9170    0.2310 h1        1 DLT      0.062700
     17 HAA1       -0.2940   -2.1300    1.6440 hx        1 DLT      0.098700
     18 HAA2       -0.2640   -1.2130    3.2290 hx        1 DLT      0.098700
     19 HAA3        1.2170   -1.2180    2.1540 hx        1 DLT      0.098700
     20 HAH1       -0.2940    2.1300    1.6430 hx        1 DLT      0.098700
     21 HAH2        1.2170    1.2180    2.1540 hx        1 DLT      0.098700
     22 HAH3       -0.2640    1.2130    3.2290 hx        1 DLT      0.098700
     23 HAJ1       -2.2680    0.9180    0.9250 hx        1 DLT      0.084700
     24 HAJ2       -2.2680   -0.9180    0.9250 hx        1 DLT      0.084700
     25 HAK1       -2.2490    0.9040    3.4650 hc        1 DLT      0.075700
     26 HAK2       -2.2490   -0.9040    3.4650 hc        1 DLT      0.075700
     27 HAL1       -4.4300   -0.9070    2.2330 hc        1 DLT      0.037700
     28 HAL2       -4.4300    0.9070    2.2330 hc        1 DLT      0.037700
@<TRIPOS>BOND
     1    1    2 1   
     2    1    9 1   
     3    1   13 1   
     4    1   14 1   
     5    2   11 1   
     6    2   15 1   
     7    2   16 1   
     8    3    9 1   
     9    3   17 1   
    10    3   18 1   
    11    3   19 1   
    12    4    9 1   
    13    4   20 1   
    14    4   21 1   
    15    4   22 1   
    16    5    6 1   
    17    5    9 1   
    18    5   23 1   
    19    5   24 1   
    20    6    7 1   
    21    6   25 1   
    22    6   26 1   
    23    7    8 1   
    24    7   27 1   
    25    7   28 1   
    26    8   10 1   
    27    8   12 1   
@<TRIPOS>SUBSTRUCTURE
     1 DLT         1 TEMP              0 ****  ****    0 ROOT
