@<TRIPOS>MOLECULE
DLU
   50    47     1     0     0
SMALL
bcc


@<TRIPOS>ATOM
      1 CAA         0.9350   -0.7780   -0.7490 c1        1 DLU      0.099000
      2 OAB         4.7730   -0.4610    8.3130 oh        1 DLU     -0.233000
      3 OAC         1.6230    2.4590    2.3290 o         1 DLU     -0.272000
      4 OAD         2.0850    2.5470    7.4950 o         1 DLU     -0.374000
      5 OAE         0.9620    2.6360    5.0040 oh        1 DLU     -0.203000
      6 CAH         0.6400    1.4350   11.7030 c1        1 DLU      0.104000
      7 CAI         1.9780    1.0230   11.9610 c3        1 DLU     -0.118000
      8 CAJ         0.9390    3.5000   10.7590 c2        1 DLU     -0.281000
      9 CAK         4.4570    0.4390    5.7100 c1        1 DLU     -0.049000
     10 CAL         0.6320   -2.0230   -4.0890 c1        1 DLU     -0.141000
     11 CAM         0.4660   -1.4310   -3.0610 c1        1 DLU     -0.145000
     12 CAN         4.2100    2.1080   11.9300 c2        1 DLU      0.040000
     13 CAO         5.0940    1.2100    3.5450 c3        1 DLU     -0.141000
     14 NAP         4.3950    1.6820    9.1070 n2        1 DLU     -0.434000
     15 OAQ         2.6600   -1.9940    1.7320 oh        1 DLU     -0.202000
     16 CAS         2.1290    1.4280    2.7880 c2        1 DLU      0.374000
     17 CAT         0.0500    2.6510   11.5150 c2        1 DLU      0.222000
     18 CAU         2.3120    3.3090   10.9070 c2        1 DLU      0.309000
     19 CAV         2.8930    2.1830   11.6440 c2        1 DLU     -0.224000
     20 CAW         2.1330    1.9760    5.2070 c2        1 DLU      0.088000
     21 CAX         3.8220    1.0430    6.7630 c2        1 DLU     -0.379000
     22 CAY         2.7450    1.3690    4.1470 c2        1 DLU     -0.240000
     23 CAZ         2.6700    1.8980    6.6070 c2        1 DLU      0.290000
     24 CBA         0.2520   -0.7300   -1.8730 c2        1 DLU     -0.284000
     25 CBB         2.7350   -0.8780    2.4140 c1        1 DLU      0.032000
     26 NBC         2.0940    0.2490    2.0100 ns        1 DLU     -0.372000
     27 NBD         3.9840    0.6140    4.3460 nx        1 DLU      0.047000
     28 HAA         1.5640    0.3060    1.1530 hn        1 DLU      0.243000
     29 HAAA        0.1130    1.8680    0.4110 ha        1 DLU      0.008500
     30 HAAB       -0.0020    1.3320    0.0110 ha        1 DLU      0.008500
     31 HAJ         0.5230    4.2880   10.1110 ha        1 DLU      0.225000
     32 HAK         3.8060   -0.3670    3.9750 hn        1 DLU      0.317000
     33 HAL         2.3220   -2.5040   -1.2370 ha        1 DLU      0.008500
     34 HALA        2.1020   -1.9870    0.9230 ho        1 DLU      0.226000
     35 HAM         2.7980   -2.0370   -1.0950 ha        1 DLU      0.008500
     36 HAMA        0.7800   -2.5480   -5.0000 ha        1 DLU      0.238000
     37 HAN         5.2650   -0.5300    9.1470 ho        1 DLU      0.224000
     38 HANA        4.9280    2.8690   11.5770 ha        1 DLU      0.167500
     39 HAO         4.8140    1.1870    2.4610 hx        1 DLU      0.125667
     40 HAOA        5.2700    2.2670    3.8710 hx        1 DLU      0.125667
     41 HNAP        4.6380    1.2680   12.5000 ha        1 DLU      0.167500
     42 HBA        -0.6240   -0.0310   -1.8890 ha        1 DLU      0.215000
     43 HBB         6.0200    0.6000    3.7210 hx        1 DLU      0.125667
     44 H20         0.7040    3.0610    5.8450 ho        1 DLU      0.255000
     45 CAR         4.3420    0.8340    8.1270 c2        1 DLU      0.253000
     46 HAH         2.2510    0.1260   11.3220 hc        1 DLU      0.200500
     47 FAF        -1.1980    3.0030   11.8040 f         1 DLU      0.006000
     48 FAG         3.1500    4.2200   10.4030 f         1 DLU     -0.021000
     49 HAP2        4.0660    2.5930    8.8710 hn        1 DLU      0.156000
     50 HAI         2.0980    0.6920   13.0400 hc        1 DLU      0.200500
@<TRIPOS>BOND
     1    1   24 1   
     2    2   37 1   
     3    2   45 1   
     4    3   16 1   
     5    4   23 1   
     6    5   20 1   
     7    5   44 1   
     8    6    7 1   
     9    6   17 1   
    10    7   19 1   
    11    7   46 1   
    12    7   50 1   
    13    8   17 1   
    14    8   18 1   
    15    8   31 1   
    16    9   21 1   
    17    9   27 1   
    18   10   11 1   
    19   10   36 1   
    20   11   24 1   
    21   12   19 1   
    22   12   38 1   
    23   12   41 1   
    24   13   27 1   
    25   13   39 1   
    26   13   40 1   
    27   13   43 1   
    28   14   45 1   
    29   14   49 1   
    30   15   25 1   
    31   15   34 1   
    32   16   22 1   
    33   16   26 1   
    34   17   47 1   
    35   18   19 1   
    36   18   48 1   
    37   20   22 1   
    38   20   23 1   
    39   21   23 1   
    40   21   45 1   
    41   22   27 1   
    42   24   42 1   
    43   25   26 1   
    44   26   28 1   
    45   27   32 1   
    46   29   30 1   
    47   33   35 1   
@<TRIPOS>SUBSTRUCTURE
     1 DLU         1 TEMP              0 ****  ****    0 ROOT
