@<TRIPOS>MOLECULE
DLU
   49    47     1     0     0
SMALL
bcc


@<TRIPOS>ATOM
      1 CAA        -1.4720   -0.5950   -5.6430 c3        1 DLU     -0.230000
      2 OAB        -0.0920   -1.2960    2.9630 o         1 DLU     -0.403000
      3 OAC         0.4100    1.5790   -4.0890 o         1 DLU     -0.307000
      4 OAD        -0.5050    2.3150    1.1050 o         1 DLU     -0.368000
      5 OAE         0.2020    2.9020   -1.5420 oh        1 DLU     -0.200000
      6 FAF         1.2320    2.6290    9.4650 f         1 DLU     -0.100000
      7 FAG         1.8390    0.1540    5.4680 f         1 DLU     -0.094000
      8 CAH        -0.4320    2.6960    7.7920 c1        1 DLU     -0.127500
      9 CAI        -0.9170    2.2490    6.5860 c1        1 DLU     -0.127500
     10 CAJ         1.5770    1.4310    7.4540 c1        1 DLU     -0.210000
     11 CAK        -0.0090   -1.1660    0.0470 c1        1 DLU      0.096000
     12 CAL         0.1840   -3.1830   -5.6660 c3        1 DLU     -0.019000
     13 CAM         0.5140   -1.8240   -6.4080 c3        1 DLU     -0.205000
     14 CAN        -1.0460    0.7500    4.7150 c3        1 DLU      0.008000
     15 CAO         0.6750   -2.0930   -2.3490 c3        1 DLU     -0.042000
     16 NAP        -0.4270    0.9450    3.3880 n         1 DLU     -0.354000
     17 OAQ         0.6410   -3.1920   -4.2940 os        1 DLU     -0.282000
     18 CAR        -0.2470   -0.1850    2.5030 c2        1 DLU      0.369000
     19 CAS         0.2690    0.5220   -3.5700 c1        1 DLU      0.372000
     20 CAT         0.8150    2.2910    8.2310 c1        1 DLU      0.120000
     21 CAU         1.0870    0.9780    6.2330 c2        1 DLU      0.133000
     22 CAV        -0.1480    1.3810    5.8000 c1        1 DLU     -0.155000
     23 CAW         0.1650    1.5860   -0.9980 c2        1 DLU      0.025000
     24 CAX        -0.2000    0.0290    0.9760 c2        1 DLU     -0.316000
     25 CAY         0.4280    0.3760   -1.9020 c1        1 DLU     -0.088000
     26 CAZ        -0.1650    1.3820    0.4280 c2        1 DLU      0.288000
     27 CBA         0.0450   -0.6180   -5.6390 c3        1 DLU      0.030000
     28 CBB         0.1720   -2.0090   -3.5170 c3        1 DLU      0.158000
     29 NBC         0.5060   -0.6240   -4.2770 n3        1 DLU     -0.367000
     30 NBD         0.2710   -0.9480   -1.3940 n2        1 DLU     -0.146000
     31 HAA        -1.8090   -1.2610   -5.0130 hc        1 DLU      0.084333
     32 HAAA       -1.7790    0.2790   -5.3810 hc        1 DLU      0.084333
     33 HAAB       -1.8060   -0.8050   -6.5590 hc        1 DLU      0.084333
     34 HAH        -0.9740    3.3060    8.3440 ha        1 DLU      0.151000
     35 HAI        -1.8140    2.5400    6.2730 ha        1 DLU      0.151000
     36 HAJ         2.4130    1.0790    7.8000 DU        1 DLU      0.165000
     37 HAK        -0.0890   -2.0910    0.4040 ha        1 DLU      0.199000
     38 HAL        -0.8150   -3.3280   -5.6800 h1        1 DLU      0.096500
     39 HALA        0.6060   -3.8980   -6.1340 h1        1 DLU      0.096500
     40 HAM         0.0830   -1.8290   -7.2740 hc        1 DLU      0.105000
     41 HAMA        1.4800   -1.7600   -6.5360 hc        1 DLU      0.105000
     42 HAN        -1.9230    1.1780    4.7310 h1        1 DLU      0.118000
     43 HANA       -1.1480   -0.2150    4.8920 h1        1 DLU      0.118000
     44 HAO         1.6580   -2.0970   -2.4310 h1        1 DLU      0.128000
     45 HAOA        0.3980   -2.9310   -1.9570 h1        1 DLU      0.128000
     46 HNAP       -0.0840    1.7840    3.1510 hn        1 DLU      0.247000
     47 HBA         0.3830    0.2080   -6.0920 h1        1 DLU      0.134000
     48 HBB        -0.7830   -2.0720   -3.4300 h2        1 DLU      0.097000
     49 H20         0.6340    3.4500   -0.9750 ho        1 DLU      0.250000
@<TRIPOS>BOND
     1    1   27 1   
     2    1   31 1   
     3    1   32 1   
     4    1   33 1   
     5    2   18 1   
     6    3   19 1   
     7    4   26 1   
     8    5   23 1   
     9    5   49 1   
    10    6   20 1   
    11    7   21 1   
    12    8    9 1   
    13    8   34 1   
    14    9   35 1   
    15   10   20 1   
    16   10   21 1   
    17   11   24 1   
    18   11   37 1   
    19   12   13 1   
    20   12   17 1   
    21   12   38 1   
    22   12   39 1   
    23   13   27 1   
    24   13   40 1   
    25   13   41 1   
    26   14   16 1   
    27   14   22 1   
    28   14   42 1   
    29   14   43 1   
    30   15   28 1   
    31   15   30 1   
    32   15   44 1   
    33   15   45 1   
    34   16   18 1   
    35   16   46 1   
    36   17   28 1   
    37   18   24 1   
    38   19   29 1   
    39   21   22 1   
    40   23   25 1   
    41   23   26 1   
    42   24   26 1   
    43   25   30 1   
    44   27   29 1   
    45   27   47 1   
    46   28   29 1   
    47   28   48 1   
@<TRIPOS>SUBSTRUCTURE
     1 DLU         1 TEMP              0 ****  ****    0 ROOT
