@<TRIPOS>MOLECULE
DLU
   50    48     1     0     0
SMALL
bcc


@<TRIPOS>ATOM
      1 CAA        -0.0870    0.5680   -1.0200 c1        1 DLU      0.372000
      2 OAB         2.0550    1.7670    8.4790 o         1 DLU     -0.536000
      3 OAC         2.7300    1.4670    1.3320 o         1 DLU     -0.308000
      4 OAD        -0.3770   -0.1290    5.4980 o         1 DLU     -0.334000
      5 OAE         0.3670    0.0600    2.8970 oh        1 DLU     -0.199000
      6 CAH         2.7670    1.8780   12.4860 c1        1 DLU      0.108000
      7 CAI         2.2150    2.5410   11.3710 c3        1 DLU     -0.146000
      8 CAJ         4.3480    3.3590   13.2150 c2        1 DLU     -0.280000
      9 CAK         2.8220    1.4160    5.7730 cu        1 DLU      0.189000
     10 CAL         3.1010   -3.3900    0.6960 c1        1 DLU      0.013000
     11 CAM         1.7060   -0.1750   -2.4140 c1        1 DLU     -0.042000
     12 CAN         3.0500    4.3200    9.8560 c2        1 DLU     -0.002000
     13 CAO         3.7540    2.1170    5.1430 cu        1 DLU     -0.173000
     14 NAP         0.1340    0.6000    8.1930 n         1 DLU     -0.411000
     15 OAQ         2.9190   -2.6460    1.7120 os        1 DLU     -0.112000
     16 CAS         3.0480    0.5460    2.1010 c2        1 DLU      0.366000
     17 CAT         3.9310    1.9650   13.1790 c2        1 DLU      0.220000
     18 CAU         4.0020    4.1640   12.1410 c2        1 DLU      0.257000
     19 CAV         3.1080    3.7190   11.0600 c2        1 DLU     -0.210000
     20 CAW         1.2650    0.3200    3.8760 c2        1 DLU      0.114000
     21 CAX         1.6220    0.9520    6.2840 c2        1 DLU     -0.403000
     22 CAY         2.5730    0.5310    3.5180 c2        1 DLU     -0.233000
     23 CAZ         0.7570    0.3450    5.3050 c2        1 DLU      0.301000
     24 CBA         1.1900    0.6470   -1.3810 c2        1 DLU     -0.573000
     25 CBB         3.9660   -1.7560    2.2620 c3        1 DLU     -0.034000
     26 NBC         3.9320   -0.4480    1.6850 n         1 DLU     -0.361000
     27 NBD         3.5190    0.7980    4.5650 n4        1 DLU     -0.041000
     28 HAA         4.1640   -0.4100    0.7110 hn        1 DLU      0.234000
     29 HAAA       -0.3980    1.5350    1.1220 ha        1 DLU      0.009750
     30 HAAB        0.2770    1.6120    1.0790 ha        1 DLU      0.009750
     31 HAJ         4.9620    3.7150   14.0570 ha        1 DLU      0.223000
     32 HAK         4.2460    0.0980    4.6300 hn        1 DLU      0.242000
     33 HAL         2.2670   -2.1320   -1.2560 ha        1 DLU      0.009750
     34 HALA        4.0770   -3.3990    0.1630 ha        1 DLU      0.035000
     35 HAM         2.7510   -1.7420   -0.9730 ha        1 DLU      0.009750
     36 HAMA        2.7460    0.0430   -2.7100 ha        1 DLU      0.035000
     37 HAN         2.4480    3.8980    9.0270 ha        1 DLU      0.178500
     38 HANA       -0.1080    0.7630    9.1370 hn        1 DLU      0.240000
     39 HAO         4.9740   -2.2160    2.0650 h2        1 DLU      0.113000
     40 HAOA        4.4480    2.9200    4.9630 hx        1 DLU      0.252000
     41 HNAP        3.5900    5.2580    9.6470 ha        1 DLU      0.178500
     42 HBA         1.8370    1.3780   -0.8420 ha        1 DLU      0.181000
     43 HBB         3.7310   -1.7340    3.3600 h2        1 DLU      0.113000
     44 H20        -0.4950   -0.1630    3.3080 ho        1 DLU      0.276000
     45 CAR         1.2890    1.1310    7.6910 c2        1 DLU      0.428000
     46 HAH         1.1500    2.8740   11.5640 hc        1 DLU      0.237000
     47 FAF         4.5700    1.0170   13.8520 f         1 DLU      0.008000
     48 FAG         4.5410    5.3860   12.0310 f         1 DLU     -0.032000
     49 HAP2       -0.5130    0.1230    7.6100 hn        1 DLU      0.240000
     50 HAI         2.1370    1.8500   10.4470 hc        1 DLU      0.237000
@<TRIPOS>BOND
     1    1   24 1   
     2    2   45 1   
     3    3   16 1   
     4    4   23 1   
     5    5   20 1   
     6    5   44 1   
     7    6    7 1   
     8    6   17 1   
     9    7   19 1   
    10    7   46 1   
    11    7   50 1   
    12    8   17 1   
    13    8   18 1   
    14    8   31 1   
    15    9   13 1   
    16    9   21 1   
    17    9   27 1   
    18   10   15 1   
    19   10   34 1   
    20   11   24 1   
    21   11   36 1   
    22   12   19 1   
    23   12   37 1   
    24   12   41 1   
    25   13   27 1   
    26   13   40 1   
    27   14   38 1   
    28   14   45 1   
    29   14   49 1   
    30   15   25 1   
    31   16   22 1   
    32   16   26 1   
    33   17   47 1   
    34   18   19 1   
    35   18   48 1   
    36   20   22 1   
    37   20   23 1   
    38   21   23 1   
    39   21   45 1   
    40   22   27 1   
    41   24   42 1   
    42   25   26 1   
    43   25   39 1   
    44   25   43 1   
    45   26   28 1   
    46   27   32 1   
    47   29   30 1   
    48   33   35 1   
@<TRIPOS>SUBSTRUCTURE
     1 DLU         1 TEMP              0 ****  ****    0 ROOT
