@<TRIPOS>MOLECULE
DLU
   50    50     1     0     0
SMALL
bcc


@<TRIPOS>ATOM
      1 CAA         0.0250   -1.6480   -2.5160 c1        1 DLU     -0.111000
      2 OAB         5.2630    0.7770    8.0590 o         1 DLU     -0.228000
      3 OAC         3.1550    1.9170    1.2700 o         1 DLU     -0.183000
      4 OAD         1.3280    1.6070    6.8250 o         1 DLU     -0.446000
      5 OAE         0.6170    1.5320    4.2100 oh        1 DLU     -0.301000
      6 CAH         1.7540    1.7120   13.3660 c1        1 DLU     -0.024000
      7 CAI         2.6080    1.2390   12.2960 c3        1 DLU     -0.195000
      8 CAJ         1.5010    3.8780   12.2080 c2        1 DLU     -0.143000
      9 CAK         4.6180    1.0680    5.2650 c1        1 DLU     -0.021000
     10 CAL         2.5000   -0.6430   -0.2080 c3        1 DLU      0.020000
     11 CAM         2.1790   -1.8890   -1.0360 c3        1 DLU     -0.077000
     12 CAN         3.8030    1.6280   10.0950 c3        1 DLU     -0.081000
     13 CAO         5.2650    0.9770    2.9500 c3        1 DLU     -0.083000
     14 NAP         3.2470    1.7330    8.7220 n4        1 DLU     -0.123000
     15 OAQ         3.6940   -0.7660    0.5310 oh        1 DLU     -0.303000
     16 CAS         2.5720    1.2960    2.1470 c2        1 DLU      0.361000
     17 CAT         1.2200    3.0540   13.2710 c2        1 DLU      0.060000
     18 CAU         2.3470    3.3970   11.1340 c2        1 DLU      0.111000
     19 CAV         2.8820    2.1370   11.1490 c2        1 DLU     -0.215000
     20 CAW         1.9350    1.3940    4.5650 c2        1 DLU      0.009000
     21 CAX         3.6520    1.2370    6.3030 c2        1 DLU     -0.431000
     22 CAY         2.8960    1.2460    3.5910 c2        1 DLU     -0.118000
     23 CAZ         2.2700    1.4290    6.0110 c2        1 DLU      0.281000
     24 CBA         0.9940   -1.7320   -1.8190 c1        1 DLU     -0.252000
     25 CBB         1.3410   -0.3120    0.7200 c2        1 DLU      0.115000
     26 NBC         1.3880    0.5070    1.7300 n         1 DLU     -0.167000
     27 NBD         4.2480    1.0810    3.9750 n3        1 DLU     -0.109000
     28 HAA         0.5600    0.6600    2.3040 hn        1 DLU      0.303000
     29 HAAA       -1.3900    0.8510    3.1190 ha        1 DLU      0.004500
     30 HAAB       -1.4120    1.5180    2.9980 ha        1 DLU      0.004500
     31 HAJ         1.1080    4.9050   12.1340 ha        1 DLU      0.183000
     32 HAK         0.3720   -0.8170    0.4800 h4        1 DLU      0.201000
     33 HAL         3.0610   -2.0820   -1.7160 hc        1 DLU      0.134500
     34 HALA        3.8730   -1.7050    0.6880 ho        1 DLU      0.234000
     35 HAM         2.0790   -2.7830   -0.3570 hc        1 DLU      0.134500
     36 HAMA        2.6550    0.2580   -0.8820 h1        1 DLU      0.186000
     37 HAN         4.0570    0.5420   10.2790 hx        1 DLU      0.154500
     38 HANA        2.3500    1.2290    8.6550 hn        1 DLU      0.256500
     39 HAO         5.3510    1.9490    2.3950 h1        1 DLU      0.109333
     40 HAOA        6.2460    0.7380    3.4420 h1        1 DLU      0.109333
     41 HNAP        4.7730    2.2110   10.1170 hx        1 DLU      0.154500
     42 HBA        -0.8360   -1.5730   -3.1380 ha        1 DLU      0.246000
     43 HBB         4.9950    0.1620    2.2250 h1        1 DLU      0.109333
     44 H20         0.1030    1.7190    5.0220 ho        1 DLU      0.285000
     45 CAR         4.1880    1.1800    7.6330 c2        1 DLU      0.372000
     46 HAH         2.1560    0.2650   11.9310 hc        1 DLU      0.187000
     47 FAF         0.4240    3.4870   14.2710 f         1 DLU     -0.059000
     48 FAG         2.5780    4.2520   10.1060 f         1 DLU     -0.102000
     49 HAP2        3.0480    2.7140    8.4950 hn        1 DLU      0.256500
     50 HAI         3.5880    0.9440   12.7940 hc        1 DLU      0.187000
@<TRIPOS>BOND
     1    1   24 1   
     2    1   42 1   
     3    2   45 1   
     4    3   16 1   
     5    4   23 1   
     6    5   20 1   
     7    5   44 1   
     8    6    7 1   
     9    6   17 1   
    10    7   19 1   
    11    7   46 1   
    12    7   50 1   
    13    8   17 1   
    14    8   18 1   
    15    8   31 1   
    16    9   21 1   
    17    9   27 1   
    18   10   11 1   
    19   10   15 1   
    20   10   25 1   
    21   10   36 1   
    22   11   24 1   
    23   11   33 1   
    24   11   35 1   
    25   12   14 1   
    26   12   19 1   
    27   12   37 1   
    28   12   41 1   
    29   13   27 1   
    30   13   39 1   
    31   13   40 1   
    32   13   43 1   
    33   14   38 1   
    34   14   45 1   
    35   14   49 1   
    36   15   34 1   
    37   16   22 1   
    38   16   26 1   
    39   17   47 1   
    40   18   19 1   
    41   18   48 1   
    42   20   22 1   
    43   20   23 1   
    44   21   23 1   
    45   21   45 1   
    46   22   27 1   
    47   25   26 1   
    48   25   32 1   
    49   26   28 1   
    50   29   30 1   
@<TRIPOS>SUBSTRUCTURE
     1 DLU         1 TEMP              0 ****  ****    0 ROOT
