@<TRIPOS>MOLECULE
DLU
   49    52     1     0     0
SMALL
bcc


@<TRIPOS>ATOM
      1 CAA         6.0630    2.3240   -1.0100 c3        1 DLU     -0.112100
      2 OAB        -1.5820   -2.5200   -0.0850 o         1 DLU     -0.654100
      3 OAC         4.0010    1.9970    1.4340 o         1 DLU     -0.580500
      4 OAD        -1.0460    1.3810    1.5790 o         1 DLU     -0.597100
      5 OAE         1.4590    2.4640    1.5880 oh        1 DLU     -0.446100
      6 CAH        -6.1250   -0.7750   -2.0350 ca        1 DLU     -0.184000
      7 CAI        -5.2610   -1.4190   -1.1550 ca        1 DLU     -0.064000
      8 CAJ        -6.1980    1.1550   -0.5390 ca        1 DLU     -0.209000
      9 CAK         0.8650   -1.3650    0.1750 cc        1 DLU      0.179000
     10 CAL         6.6390   -1.3710   -0.5140 c3        1 DLU      0.134400
     11 CAM         7.0830    0.0670   -0.6740 c3        1 DLU     -0.125400
     12 CAN        -3.9510   -1.5340    0.9930 c3        1 DLU      0.137300
     13 CAO         3.2580   -1.5950   -0.2760 c3        1 DLU      0.171800
     14 NAP        -2.6590   -0.9270    1.1640 n         1 DLU     -0.543900
     15 OAQ         5.4270   -1.5960   -1.2240 os        1 DLU     -0.425600
     16 CAS         3.7150    1.0310    0.7080 c         1 DLU      0.730700
     17 CAT        -6.5930    0.5150   -1.7250 ca        1 DLU      0.154900
     18 CAU        -5.3260    0.4840    0.3350 ca        1 DLU      0.159900
     19 CAV        -4.8560   -0.8120    0.0350 ca        1 DLU     -0.165300
     20 CAW         1.2540    1.1940    1.1380 cc        1 DLU      0.052900
     21 CAX        -0.2560   -0.6880    0.6310 cd        1 DLU     -0.355400
     22 CAY         2.3290    0.4620    0.6840 cd        1 DLU     -0.029200
     23 CAZ        -0.1310    0.6530    1.1470 c         1 DLU      0.562500
     24 CBA         6.0100    1.0450   -0.1720 c3        1 DLU      0.114700
     25 CBB         4.3520   -0.6940   -0.9340 c3        1 DLU      0.312500
     26 NBC         4.6790    0.4530   -0.1160 n         1 DLU     -0.510800
     27 NBD         2.1190   -0.8350    0.1900 na        1 DLU     -0.469200
     28 HAA         5.7840    2.1270   -2.0720 hc        1 DLU      0.049700
     29 HAAA        5.3670    3.0890   -0.5890 hc        1 DLU      0.049700
     30 HAAB        7.1040    2.7270   -0.9800 hc        1 DLU      0.049700
     31 HAI        -4.8860   -2.4250   -1.4030 ha        1 DLU      0.153000
     32 HAJ        -6.5610    2.1640   -0.2980 ha        1 DLU      0.166000
     33 HAK         0.7580   -2.3960   -0.2320 h4        1 DLU      0.197000
     34 HAL         7.3610   -2.0850   -0.9950 h1        1 DLU      0.059200
     35 HALA        6.5010   -1.6390    0.5670 h1        1 DLU      0.059200
     36 HAM         8.0280    0.2420   -0.1000 hc        1 DLU      0.064700
     37 HAMA        7.2970    0.2650   -1.7580 hc        1 DLU      0.064700
     38 HAN        -3.8140   -2.6020    0.6510 h1        1 DLU      0.074700
     39 HANA       -4.4550   -1.5430    2.0050 h1        1 DLU      0.074700
     40 HAO         2.9280   -2.3440   -1.0490 h1        1 DLU      0.083200
     41 HAOA        3.7160   -2.1510    0.5910 h1        1 DLU      0.083200
     42 HNAP       -2.6460    0.0060    1.5190 hn        1 DLU      0.343500
     43 HBA         6.2650    1.3310    0.8970 h1        1 DLU      0.077700
     44 HBB         3.9980   -0.3470   -1.9560 h2        1 DLU      0.075700
     45 H20         0.5970    2.8110    1.8900 ho        1 DLU      0.452000
     46 CAR        -1.5420   -1.4250    0.5280 c         1 DLU      0.695300
     47 HAH        -6.4410   -1.2590   -2.9700 ha        1 DLU      0.154000
     48 FAF        -7.4340    1.1500   -2.5760 f         1 DLU     -0.134900
     49 FAG        -4.9410    1.0960    1.4800 f         1 DLU     -0.132900
@<TRIPOS>BOND
     1    1   24 1   
     2    1   28 1   
     3    1   29 1   
     4    1   30 1   
     5    2   46 2   
     6    3   16 2   
     7    4   23 2   
     8    5   20 1   
     9    5   45 1   
    10    6    7 ar  
    11    6   17 ar  
    12    6   47 1   
    13    7   19 ar  
    14    7   31 1   
    15    8   17 ar  
    16    8   18 ar  
    17    8   32 1   
    18    9   21 2   
    19    9   27 1   
    20    9   33 1   
    21   10   11 1   
    22   10   15 1   
    23   10   34 1   
    24   10   35 1   
    25   11   24 1   
    26   11   36 1   
    27   11   37 1   
    28   12   14 1   
    29   12   19 1   
    30   12   38 1   
    31   12   39 1   
    32   13   25 1   
    33   13   27 1   
    34   13   40 1   
    35   13   41 1   
    36   14   42 1   
    37   14   46 1   
    38   15   25 1   
    39   16   22 1   
    40   16   26 1   
    41   17   48 1   
    42   18   19 ar  
    43   18   49 1   
    44   20   22 2   
    45   20   23 1   
    46   21   23 1   
    47   21   46 1   
    48   22   27 1   
    49   24   26 1   
    50   24   43 1   
    51   25   26 1   
    52   25   44 1   
@<TRIPOS>SUBSTRUCTURE
     1 DLU         1 TEMP              0 ****  ****    0 ROOT
