@<TRIPOS>MOLECULE
DLY
   23    22     1     0     0
SMALL
bcc


@<TRIPOS>ATOM
      1 N           1.8460    0.0300   -1.4750 n3        1 DLY     -0.891800
      2 CA          0.4500    0.4270   -1.3370 c3        1 DLY      0.018500
      3 C          -0.4430    0.0930   -2.5790 c         1 DLY      0.887600
      4 O           0.1070   -0.4570   -3.5770 o         1 DLY     -0.844800
      5 CB         -0.2270   -0.1570   -0.0960 c3        1 DLY     -0.064400
      6 CG          0.3710    0.3660    1.1920 c3        1 DLY     -0.071400
      7 CD         -0.3890   -0.1490    2.3950 c3        1 DLY     -0.118400
      8 CE          0.2210    0.3770    3.6930 c3        1 DLY      0.140800
      9 NZ         -0.4220   -0.0380    4.9180 n3        1 DLY     -0.906800
     10 OXT        -1.6630    0.4100   -2.5230 o         1 DLY     -0.844800
     11 H           2.1250    0.2530   -2.4170 hn        1 DLY      0.329800
     12 H2          1.9010   -0.9710   -1.3990 hn        1 DLY      0.329800
     13 HA          0.4490    1.5520   -1.2410 h1        1 DLY      0.040700
     14 HB2        -0.1620   -1.2760   -0.1140 hc        1 DLY      0.045700
     15 HB3        -1.3140    0.1180   -0.1560 hc        1 DLY      0.045700
     16 HG2         0.3480    1.4880    1.1860 hc        1 DLY      0.037700
     17 HG3         1.4470    0.0590    1.2670 hc        1 DLY      0.037700
     18 HD2        -0.3730   -1.2710    2.3940 hc        1 DLY      0.033200
     19 HD3        -1.4630    0.1670    2.3210 hc        1 DLY      0.033200
     20 HE2         0.2110    1.5040    3.6660 h1        1 DLY      0.047700
     21 HE3         1.2980    0.0510    3.7440 h1        1 DLY      0.047700
     22 HZ1        -1.3770    0.2650    4.9280 hn        1 DLY      0.334300
     23 HZ2        -0.4160   -1.0380    4.9910 hn        1 DLY      0.334300
@<TRIPOS>BOND
     1    1    2 1   
     2    1   11 1   
     3    1   12 1   
     4    2    3 1   
     5    2    5 1   
     6    2   13 1   
     7    3    4 1   
     8    3   10 1   
     9    5    6 1   
    10    5   14 1   
    11    5   15 1   
    12    6    7 1   
    13    6   16 1   
    14    6   17 1   
    15    7    8 1   
    16    7   18 1   
    17    7   19 1   
    18    8    9 1   
    19    8   20 1   
    20    8   21 1   
    21    9   22 1   
    22    9   23 1   
@<TRIPOS>SUBSTRUCTURE
     1 DLY         1 TEMP              0 ****  ****    0 ROOT
