@<TRIPOS>MOLECULE
DLY
   23    22     1     0     0
SMALL
bcc


@<TRIPOS>ATOM
      1 N          -1.0050    0.7250    2.8480 n3        1 DLY     -0.891800
      2 CA         -0.2550    1.2550    1.7860 c3        1 DLY      0.018500
      3 C           0.8700    2.1350    2.3450 c         1 DLY      0.887600
      4 O           1.6890    1.6580    3.1780 o         1 DLY     -0.844800
      5 CB          0.3420    0.1230    0.9750 c3        1 DLY     -0.064400
      6 CG         -0.3080    0.0860   -0.4130 c3        1 DLY     -0.071400
      7 CD          0.2980   -1.0400   -1.2230 c3        1 DLY     -0.118400
      8 CE         -0.3640   -1.0980   -2.5770 c3        1 DLY      0.140800
      9 NZ          0.2100   -2.1730   -3.3480 n3        1 DLY     -0.906800
     10 OXT         0.9690    3.3480    1.9790 o         1 DLY     -0.844800
     11 H          -0.9520    1.2820    3.5630 hn        1 DLY      0.329800
     12 H2         -1.8820    0.6400    2.5900 hn        1 DLY      0.329800
     13 HA         -0.8420    1.7990    1.2100 h1        1 DLY      0.040700
     14 HB2         0.1800   -0.7260    1.4330 hc        1 DLY      0.045700
     15 HB3         1.3100    0.2640    0.8800 hc        1 DLY      0.045700
     16 HG2        -0.1520    0.9410   -0.8710 hc        1 DLY      0.037700
     17 HG3        -1.2690   -0.0620   -0.3180 hc        1 DLY      0.037700
     18 HD2         0.1620   -1.8790   -0.7620 hc        1 DLY      0.033200
     19 HD3         1.2580   -0.8820   -1.3350 hc        1 DLY      0.033200
     20 HE2        -1.3230   -1.2540   -2.4640 h1        1 DLY      0.047700
     21 HE3        -0.2230   -0.2440   -3.0480 h1        1 DLY      0.047700
     22 HZ1         1.0780   -1.9580   -3.5800 hn        1 DLY      0.334300
     23 HZ2         0.2100   -2.9430   -2.8470 hn        1 DLY      0.334300
@<TRIPOS>BOND
     1    1    2 1   
     2    1   11 1   
     3    1   12 1   
     4    2    3 1   
     5    2    5 1   
     6    2   13 1   
     7    3    4 1   
     8    3   10 1   
     9    5    6 1   
    10    5   14 1   
    11    5   15 1   
    12    6    7 1   
    13    6   16 1   
    14    6   17 1   
    15    7    8 1   
    16    7   18 1   
    17    7   19 1   
    18    8    9 1   
    19    8   20 1   
    20    8   21 1   
    21    9   22 1   
    22    9   23 1   
@<TRIPOS>SUBSTRUCTURE
     1 DLY         1 TEMP              0 ****  ****    0 ROOT
