@<TRIPOS>MOLECULE
DLZ
   41    42     1     0     0
SMALL
bcc


@<TRIPOS>ATOM
      1 C7          0.0890   -0.2460   -0.0480 c3        1 DLZ     -0.076800
      2 C7A         1.5770   -0.1140   -0.0560 cc        1 DLZ     -0.037900
      3 C5A         2.2430   -0.1320    1.1800 cd        1 DLZ      0.269600
      4 C6          1.4590   -0.2650    2.4430 c3        1 DLZ     -0.128400
      5 N5          3.6140   -0.0360    1.2770 nd        1 DLZ     -0.511000
      6 C4A         4.3010    0.1180    0.1660 cc        1 DLZ      0.270800
      7 C4          5.8000    0.2220    0.2230 c         1 DLZ      0.615000
      8 O4          6.4570    0.1030    1.2690 o         1 DLZ     -0.581500
      9 N3          6.4490    0.4730   -0.9810 n         1 DLZ     -0.614500
     10 C2          5.7740    0.5950   -2.2230 c         1 DLZ      0.852900
     11 O2          6.4580    0.8450   -3.2320 o         1 DLZ     -0.594500
     12 N1          4.3720    0.4300   -2.3010 nd        1 DLZ     -0.417400
     13 C8          3.6870    0.1930   -1.1920 cc        1 DLZ      0.085400
     14 N8          2.2830    0.0280   -1.2410 na        1 DLZ     -0.068100
     15 C1'         1.6070   -0.0870   -2.5250 c3        1 DLZ      0.015300
     16 C2'         1.1030   -1.5110   -2.8500 c3        1 DLZ      0.150100
     17 O2'         2.2520   -2.3180   -3.0140 oh        1 DLZ     -0.589800
     18 C3'         0.2950   -1.4830   -4.1660 c3        1 DLZ      0.104100
     19 O3'        -0.5110   -0.3150   -4.1430 oh        1 DLZ     -0.600800
     20 C4'        -0.6230   -2.7140   -4.3010 c3        1 DLZ      0.109100
     21 O4'         0.0230   -3.8200   -3.6940 oh        1 DLZ     -0.617800
     22 C5'        -0.9070   -3.0030   -5.7800 c3        1 DLZ      0.089400
     23 O5'        -1.7800   -4.1200   -5.7970 oh        1 DLZ     -0.609800
     24 H7         -0.3340    0.4660    0.7070 hc        1 DLZ      0.071700
     25 H7A        -0.3990   -0.0340   -1.0290 hc        1 DLZ      0.071700
     26 H7B        -0.1790   -1.2900    0.2610 hc        1 DLZ      0.071700
     27 H6          0.8390    0.6530    2.6020 hc        1 DLZ      0.054033
     28 H6A         2.1250   -0.3970    3.3320 hc        1 DLZ      0.054033
     29 H6B         0.7800   -1.1520    2.3770 hc        1 DLZ      0.054033
     30 HN3         7.4430    0.5620   -0.9770 hn        1 DLZ      0.345500
     31 H1'         2.3040    0.2230   -3.3560 h1        1 DLZ      0.106700
     32 H1'A        0.7300    0.6210   -2.5310 h1        1 DLZ      0.106700
     33 H2'         0.4520   -1.9140   -2.0260 h1        1 DLZ      0.051700
     34 HO2'        1.9580   -3.2350   -3.1000 ho        1 DLZ      0.430000
     35 H3'         1.0180   -1.4450   -5.0290 h1        1 DLZ      0.066700
     36 HO3'       -0.9300   -0.2450   -5.0100 ho        1 DLZ      0.410000
     37 H4'        -1.5960   -2.5180   -3.7650 h1        1 DLZ      0.065700
     38 HO4'       -0.4950   -4.6050   -3.9190 ho        1 DLZ      0.436000
     39 H5'         0.0450   -3.2440   -6.3220 h1        1 DLZ      0.038200
     40 H5'A       -1.4010   -2.1170   -6.2590 h1        1 DLZ      0.038200
     41 HO5'       -1.8930   -4.3760   -6.7200 ho        1 DLZ      0.416000
@<TRIPOS>BOND
     1    1    2 1   
     2    1   24 1   
     3    1   25 1   
     4    1   26 1   
     5    2    3 2   
     6    2   14 1   
     7    3    4 1   
     8    3    5 1   
     9    4   27 1   
    10    4   28 1   
    11    4   29 1   
    12    5    6 2   
    13    6    7 1   
    14    6   13 1   
    15    7    8 2   
    16    7    9 1   
    17    9   10 1   
    18    9   30 1   
    19   10   11 2   
    20   10   12 1   
    21   12   13 2   
    22   13   14 1   
    23   14   15 1   
    24   15   16 1   
    25   15   31 1   
    26   15   32 1   
    27   16   17 1   
    28   16   18 1   
    29   16   33 1   
    30   17   34 1   
    31   18   19 1   
    32   18   20 1   
    33   18   35 1   
    34   19   36 1   
    35   20   21 1   
    36   20   22 1   
    37   20   37 1   
    38   21   38 1   
    39   22   23 1   
    40   22   39 1   
    41   22   40 1   
    42   23   41 1   
@<TRIPOS>SUBSTRUCTURE
     1 DLZ         1 TEMP              0 ****  ****    0 ROOT
