@<TRIPOS>MOLECULE
DLZ
   41    40     1     0     0
SMALL
bcc


@<TRIPOS>ATOM
      1 C7         -1.8800    0.9180    2.1740 c3        1 DLZ     -0.207000
      2 C7A        -0.3800    0.8080    2.1810 c2        1 DLZ      0.060000
      3 C5A         0.3750    0.9010    3.4880 c1        1 DLZ     -0.155000
      4 C6         -0.3790    0.9710    4.7870 c2        1 DLZ     -0.151000
      5 N5          1.8040    0.9940    3.4850 n2        1 DLZ      0.016000
      6 C4A         2.5300    1.0030    2.2300 c1        1 DLZ     -0.148000
      7 C4          4.0150    1.1000    2.2270 c1        1 DLZ      0.362000
      8 O4          4.6420    1.1190    3.3050 o         1 DLZ     -0.306000
      9 N3          4.7290    1.1090    0.9830 n         1 DLZ     -0.395000
     10 C2          3.9940    1.0230   -0.2930 c2        1 DLZ      0.370000
     11 O2          4.5900    1.1450   -1.3390 o         1 DLZ     -0.318000
     12 N1          2.5150    0.9260   -0.2950 n2        1 DLZ     -0.277000
     13 C8          1.7940    0.9170    0.9460 c2        1 DLZ      0.171000
     14 N8          0.3370    0.8120    0.9430 n3        1 DLZ     -0.140000
     15 C1'        -0.4030    0.8780   -0.3350 c3        1 DLZ     -0.049000
     16 C2'        -0.6090   -0.5460   -0.8890 c3        1 DLZ      0.040000
     17 O2'         0.6130   -1.2400   -0.8640 oh        1 DLZ     -0.317000
     18 C3'        -1.1120   -0.4660   -2.3070 c3        1 DLZ     -0.007000
     19 O3'        -2.1950    0.4370   -2.3740 oh        1 DLZ     -0.332000
     20 C4'        -1.5720   -1.8430   -2.7630 c3        1 DLZ     -0.001000
     21 O4'        -0.4170   -2.6730   -3.0370 oh        1 DLZ     -0.343000
     22 C5'        -2.3790   -1.7060   -3.9850 c3        1 DLZ     -0.062000
     23 O5'        -2.6140   -2.9700   -4.5340 oh        1 DLZ     -0.337000
     24 H7         -2.2110    0.9890    3.1040 hc        1 DLZ      0.114000
     25 H7A        -2.2610    0.1300    1.7540 hc        1 DLZ      0.114000
     26 H7B        -2.1430    1.7080    1.6760 hc        1 DLZ      0.114000
     27 H6         -0.8640    1.8310    4.8400 ha        1 DLZ      0.093333
     28 H6A        -1.0140    0.2380    4.8320 ha        1 DLZ      0.093333
     29 H6B         0.2410    0.9050    5.5220 ha        1 DLZ      0.093333
     30 HN3         5.6720    1.1650    0.9810 hn        1 DLZ      0.259000
     31 H1'         0.1120    1.4110   -0.9860 h1        1 DLZ      0.148500
     32 H1'A       -1.2740    1.2990   -0.1860 h1        1 DLZ      0.148500
     33 H2'        -1.2550   -1.0120   -0.3450 h1        1 DLZ      0.096000
     34 HO2'        0.4960   -2.0310   -0.4850 ho        1 DLZ      0.228000
     35 H3'        -0.3810   -0.1490   -2.8990 h1        1 DLZ      0.104000
     36 HO3'       -2.0450    1.0350   -3.0280 ho        1 DLZ      0.210000
     37 H4'        -2.1130   -2.2560   -2.0610 h1        1 DLZ      0.104000
     38 HO4'       -0.6260   -3.5350   -2.8920 ho        1 DLZ      0.235000
     39 H5'        -3.2310   -1.2830   -3.7660 h1        1 DLZ      0.078000
     40 H5'A       -1.9020   -1.1590   -4.6270 h1        1 DLZ      0.078000
     41 HO5'       -3.1990   -2.9030   -5.1700 ho        1 DLZ      0.215000
@<TRIPOS>BOND
     1    1    2 1   
     2    1   24 1   
     3    1   25 1   
     4    1   26 1   
     5    2    3 1   
     6    2   14 1   
     7    3    5 1   
     8    4   27 1   
     9    4   28 1   
    10    4   29 1   
    11    5    6 1   
    12    6   13 1   
    13    7    8 1   
    14    7    9 1   
    15    9   10 1   
    16    9   30 1   
    17   10   11 1   
    18   10   12 1   
    19   12   13 1   
    20   13   14 1   
    21   14   15 1   
    22   15   16 1   
    23   15   31 1   
    24   15   32 1   
    25   16   17 1   
    26   16   18 1   
    27   16   33 1   
    28   17   34 1   
    29   18   19 1   
    30   18   20 1   
    31   18   35 1   
    32   19   36 1   
    33   20   21 1   
    34   20   22 1   
    35   20   37 1   
    36   21   38 1   
    37   22   23 1   
    38   22   39 1   
    39   22   40 1   
    40   23   41 1   
@<TRIPOS>SUBSTRUCTURE
     1 DLZ         1 TEMP              0 ****  ****    0 ROOT
