@<TRIPOS>MOLECULE
DLZ
   41    42     1     0     0
SMALL
bcc


@<TRIPOS>ATOM
      1 C7          0.0880   -0.2240   -0.0480 c3        1 DLZ     -0.076800
      2 C7A         1.5760   -0.0990   -0.0560 cc        1 DLZ     -0.037900
      3 C5A         2.2420   -0.1090    1.1810 cd        1 DLZ      0.269600
      4 C6          1.4560   -0.2290    2.4440 c3        1 DLZ     -0.128400
      5 N5          3.6130   -0.0200    1.2780 nd        1 DLZ     -0.511000
      6 C4A         4.3020    0.1210    0.1660 cc        1 DLZ      0.270800
      7 C4          5.8010    0.2180    0.2230 c         1 DLZ      0.615000
      8 O4          6.4560    0.1050    1.2700 o         1 DLZ     -0.581500
      9 N3          6.4520    0.4550   -0.9820 ns        1 DLZ     -0.614500
     10 C2          5.7780    0.5690   -2.2260 c         1 DLZ      0.852900
     11 O2          6.4650    0.8080   -3.2370 o         1 DLZ     -0.594500
     12 N1          4.3760    0.4110   -2.3030 nd        1 DLZ     -0.417400
     13 C8          3.6880    0.1880   -1.1930 cc        1 DLZ      0.085400
     14 N8          2.2840    0.0300   -1.2410 na        1 DLZ     -0.068100
     15 C1'         1.6090   -0.0920   -2.5250 c3        1 DLZ      0.015300
     16 C2'         1.0970   -1.5160   -2.8390 c3        1 DLZ      0.150100
     17 O2'         2.2420   -2.3320   -2.9890 oh        1 DLZ     -0.589800
     18 C3'         0.2970   -1.4960   -4.1600 c3        1 DLZ      0.104100
     19 O3'        -0.5020   -0.3220   -4.1530 oh        1 DLZ     -0.600800
     20 C4'        -0.6300   -2.7220   -4.2870 c3        1 DLZ      0.109100
     21 O4'         0.0060   -3.8260   -3.6660 oh        1 DLZ     -0.617800
     22 C5'        -0.9080   -3.0230   -5.7640 c3        1 DLZ      0.089400
     23 O5'        -1.7890   -4.1340   -5.7760 oh        1 DLZ     -0.609800
     24 H7         -0.3320    0.4960    0.7020 hc        1 DLZ      0.071700
     25 H7A        -0.1860   -1.2640    0.2680 hc        1 DLZ      0.071700
     26 H7B        -0.3980   -0.0150   -1.0310 hc        1 DLZ      0.071700
     27 H6          0.8410    0.6940    2.5950 hc        1 DLZ      0.054033
     28 H6A         0.7720   -1.1120    2.3840 hc        1 DLZ      0.054033
     29 H6B         2.1210   -0.3570    3.3340 hc        1 DLZ      0.054033
     30 HN3         7.4460    0.5390   -0.9790 hn        1 DLZ      0.345500
     31 H1'         0.7340    0.6200   -2.5380 h1        1 DLZ      0.106700
     32 H1'A        2.3070    0.2080   -3.3580 h1        1 DLZ      0.106700
     33 H2'         0.4390   -1.9070   -2.0150 h1        1 DLZ      0.051700
     34 HO2'        1.9420   -3.2480   -3.0690 ho        1 DLZ      0.430000
     35 H3'         1.0240   -1.4720   -5.0190 h1        1 DLZ      0.066700
     36 HO3'       -0.9150   -0.2580   -5.0230 ho        1 DLZ      0.410000
     37 H4'        -1.6040   -2.5140   -3.7580 h1        1 DLZ      0.065700
     38 HO4'       -0.5160   -4.6100   -3.8860 ho        1 DLZ      0.436000
     39 H5'         0.0450   -3.2760   -6.2990 h1        1 DLZ      0.038200
     40 H5'A       -1.3930   -2.1390   -6.2550 h1        1 DLZ      0.038200
     41 HO5'       -1.8990   -4.3980   -6.6970 ho        1 DLZ      0.416000
@<TRIPOS>BOND
     1    1    2 1   
     2    1   24 1   
     3    1   25 1   
     4    1   26 1   
     5    2    3 2   
     6    2   14 1   
     7    3    4 1   
     8    3    5 1   
     9    4   27 1   
    10    4   28 1   
    11    4   29 1   
    12    5    6 2   
    13    6    7 1   
    14    6   13 1   
    15    7    8 2   
    16    7    9 1   
    17    9   10 1   
    18    9   30 1   
    19   10   11 2   
    20   10   12 1   
    21   12   13 2   
    22   13   14 1   
    23   14   15 1   
    24   15   16 1   
    25   15   31 1   
    26   15   32 1   
    27   16   17 1   
    28   16   18 1   
    29   16   33 1   
    30   17   34 1   
    31   18   19 1   
    32   18   20 1   
    33   18   35 1   
    34   19   36 1   
    35   20   21 1   
    36   20   22 1   
    37   20   37 1   
    38   21   38 1   
    39   22   23 1   
    40   22   39 1   
    41   22   40 1   
    42   23   41 1   
@<TRIPOS>SUBSTRUCTURE
     1 DLZ         1 TEMP              0 ****  ****    0 ROOT
