@<TRIPOS>MOLECULE
DLZ
   41    42     1     0     0
SMALL
bcc


@<TRIPOS>ATOM
      1 C7          0.1160    3.2680   -0.2080 c3        1 DLZ     -0.077800
      2 C7A         1.0270    2.0890   -0.1040 cc        1 DLZ     -0.040900
      3 C5A         2.3210    2.2640    0.4090 cd        1 DLZ      0.282600
      4 C6          2.7860    3.6200    0.8250 c3        1 DLZ     -0.131400
      5 N5          3.2030    1.2120    0.5520 nd        1 DLZ     -0.510000
      6 C4A         2.8030    0.0140    0.1890 cc        1 DLZ      0.278800
      7 C4          3.7260   -1.1650    0.3360 c         1 DLZ      0.614000
      8 O4          4.8790   -1.0790    0.7820 o         1 DLZ     -0.572500
      9 N3          3.2240   -2.3990   -0.0630 n         1 DLZ     -0.612500
     10 C2          1.9180   -2.5840   -0.5810 c         1 DLZ      0.853900
     11 O2          1.5690   -3.7360   -0.8980 o         1 DLZ     -0.592500
     12 N1          1.0390   -1.4850   -0.7270 nd        1 DLZ     -0.444400
     13 C8          1.4540   -0.2770   -0.3760 cc        1 DLZ      0.081400
     14 N8          0.6050    0.8390   -0.5400 na        1 DLZ     -0.077100
     15 C1'        -0.7130    0.6670   -1.1260 c3        1 DLZ     -0.015700
     16 C2'        -1.8370    0.3950   -0.1070 c3        1 DLZ      0.097100
     17 O2'        -1.7270   -0.8620    0.5200 oh        1 DLZ     -0.597800
     18 C3'        -3.1890    0.5560   -0.8370 c3        1 DLZ      0.081100
     19 O3'        -3.3460    1.9220   -1.1860 oh        1 DLZ     -0.598800
     20 C4'        -4.3830    0.0710   -0.0010 c3        1 DLZ      0.073100
     21 O4'        -4.2160    0.3650    1.3730 oh        1 DLZ     -0.607800
     22 C5'        -4.6550   -1.4210   -0.2110 c3        1 DLZ      0.101400
     23 O5'        -5.8370   -1.8130    0.4540 oh        1 DLZ     -0.588800
     24 H7          0.2950    3.7880   -1.1850 hc        1 DLZ      0.073033
     25 H7A        -0.9670    2.9950   -0.1420 hc        1 DLZ      0.073033
     26 H7B         0.3320    3.9860    0.6230 hc        1 DLZ      0.073033
     27 H6          2.2500    3.9370    1.7540 hc        1 DLZ      0.057700
     28 H6A         3.8850    3.6320    1.0360 hc        1 DLZ      0.057700
     29 H6B         2.5750    4.3590    0.0120 hc        1 DLZ      0.057700
     30 HN3         3.8100   -3.2030    0.0250 hn        1 DLZ      0.349500
     31 H1'        -0.9800    1.6000   -1.7050 h1        1 DLZ      0.097200
     32 H1'A       -0.6810   -0.1840   -1.8670 h1        1 DLZ      0.097200
     33 H2'        -1.7980    1.1320    0.7480 h1        1 DLZ      0.084700
     34 HO2'       -1.5270   -1.5270   -0.1540 ho        1 DLZ      0.433000
     35 H3'        -3.1700    0.0120   -1.8230 h1        1 DLZ      0.085700
     36 HO3'       -3.6090    2.3940   -0.3840 ho        1 DLZ      0.414000
     37 H4'        -5.2990    0.6640   -0.2960 h1        1 DLZ      0.100700
     38 HO4'       -3.5170   -0.2110    1.7160 ho        1 DLZ      0.423000
     39 H5'        -4.8430   -1.6430   -1.2940 h1        1 DLZ      0.058200
     40 H5'A       -3.7840   -2.0270    0.1600 h1        1 DLZ      0.058200
     41 HO5'       -5.7670   -1.5040    1.3680 ho        1 DLZ      0.411000
@<TRIPOS>BOND
     1    1    2 1   
     2    1   24 1   
     3    1   25 1   
     4    1   26 1   
     5    2    3 2   
     6    2   14 1   
     7    3    4 1   
     8    3    5 1   
     9    4   27 1   
    10    4   28 1   
    11    4   29 1   
    12    5    6 2   
    13    6    7 1   
    14    6   13 1   
    15    7    8 2   
    16    7    9 1   
    17    9   10 1   
    18    9   30 1   
    19   10   11 2   
    20   10   12 1   
    21   12   13 2   
    22   13   14 1   
    23   14   15 1   
    24   15   16 1   
    25   15   31 1   
    26   15   32 1   
    27   16   17 1   
    28   16   18 1   
    29   16   33 1   
    30   17   34 1   
    31   18   19 1   
    32   18   20 1   
    33   18   35 1   
    34   19   36 1   
    35   20   21 1   
    36   20   22 1   
    37   20   37 1   
    38   21   38 1   
    39   22   23 1   
    40   22   39 1   
    41   22   40 1   
    42   23   41 1   
@<TRIPOS>SUBSTRUCTURE
     1 DLZ         1 TEMP              0 ****  ****    0 ROOT
