@<TRIPOS>MOLECULE
DLZ
   41    42     1     0     0
SMALL
bcc


@<TRIPOS>ATOM
      1 C7          0.0870   -0.2380   -0.0950 c3        1 DLZ     -0.077800
      2 C7A         1.5750   -0.1100   -0.0810 cc        1 DLZ     -0.037900
      3 C5A         2.2230   -0.1240    1.1660 cd        1 DLZ      0.268600
      4 C6          1.4180   -0.2490    2.4160 c3        1 DLZ     -0.127400
      5 N5          3.5920   -0.0310    1.2830 nd        1 DLZ     -0.511000
      6 C4A         4.2960    0.1170    0.1830 cc        1 DLZ      0.270800
      7 C4          5.7950    0.2180    0.2620 c         1 DLZ      0.615000
      8 O4          6.4350    0.0970    1.3170 o         1 DLZ     -0.581500
      9 N3          6.4620    0.4680   -0.9320 n         1 DLZ     -0.614500
     10 C2          5.8060    0.5910   -2.1840 c         1 DLZ      0.852900
     11 O2          6.5050    0.8420   -3.1830 o         1 DLZ     -0.594500
     12 N1          4.4050    0.4260   -2.2840 nd        1 DLZ     -0.417400
     13 C8          3.7030    0.1910   -1.1850 cc        1 DLZ      0.084400
     14 N8          2.3000    0.0250   -1.2550 na        1 DLZ     -0.069100
     15 C1'         1.6420   -0.0910   -2.5480 c3        1 DLZ      0.014300
     16 C2'         1.1340   -1.5140   -2.8710 c3        1 DLZ      0.150100
     17 O2'         2.2850   -2.3070   -3.0860 oh        1 DLZ     -0.589800
     18 C3'         0.2790   -1.4790   -4.1560 c3        1 DLZ      0.104100
     19 O3'        -0.5530   -0.3300   -4.0800 oh        1 DLZ     -0.601800
     20 C4'        -0.6190   -2.7260   -4.2850 c3        1 DLZ      0.109100
     21 O4'         0.0580   -3.8260   -3.7020 oh        1 DLZ     -0.616800
     22 C5'        -0.9260   -3.0060   -5.7610 c3        1 DLZ      0.089400
     23 O5'        -1.7820   -4.1360   -5.7730 oh        1 DLZ     -0.609800
     24 H7         -0.3450    0.4910    0.6380 hc        1 DLZ      0.072367
     25 H7A        -0.1900   -1.2740    0.2320 hc        1 DLZ      0.072367
     26 H7B        -0.3840   -0.0460   -1.0890 hc        1 DLZ      0.072367
     27 H6          0.7920    0.6680    2.5570 hc        1 DLZ      0.054033
     28 H6A         0.7430   -1.1390    2.3460 hc        1 DLZ      0.054033
     29 H6B         2.0690   -0.3710    3.3170 hc        1 DLZ      0.054033
     30 HN3         7.4560    0.5550   -0.9130 hn        1 DLZ      0.345500
     31 H1'         2.3530    0.2090   -3.3720 h1        1 DLZ      0.106700
     32 H1'A        0.7710    0.6250   -2.5690 h1        1 DLZ      0.106700
     33 H2'         0.5160   -1.9330   -2.0300 h1        1 DLZ      0.052700
     34 HO2'        1.9990   -3.2270   -3.1600 ho        1 DLZ      0.430000
     35 H3'         0.9680   -1.4060   -5.0440 h1        1 DLZ      0.066700
     36 HO3'       -1.0090   -0.2560   -4.9260 ho        1 DLZ      0.410000
     37 H4'        -1.5850   -2.5530   -3.7290 h1        1 DLZ      0.064700
     38 HO4'       -0.4500   -4.6180   -3.9250 ho        1 DLZ      0.436000
     39 H5'        -1.4420   -2.1230   -6.2230 h1        1 DLZ      0.038700
     40 H5'A        0.0200   -3.2270   -6.3230 h1        1 DLZ      0.038700
     41 HO5'       -1.9070   -4.3860   -6.6960 ho        1 DLZ      0.416000
@<TRIPOS>BOND
     1    1    2 1   
     2    1   24 1   
     3    1   25 1   
     4    1   26 1   
     5    2    3 2   
     6    2   14 1   
     7    3    4 1   
     8    3    5 1   
     9    4   27 1   
    10    4   28 1   
    11    4   29 1   
    12    5    6 2   
    13    6    7 1   
    14    6   13 1   
    15    7    8 2   
    16    7    9 1   
    17    9   10 1   
    18    9   30 1   
    19   10   11 2   
    20   10   12 1   
    21   12   13 2   
    22   13   14 1   
    23   14   15 1   
    24   15   16 1   
    25   15   31 1   
    26   15   32 1   
    27   16   17 1   
    28   16   18 1   
    29   16   33 1   
    30   17   34 1   
    31   18   19 1   
    32   18   20 1   
    33   18   35 1   
    34   19   36 1   
    35   20   21 1   
    36   20   22 1   
    37   20   37 1   
    38   21   38 1   
    39   22   23 1   
    40   22   39 1   
    41   22   40 1   
    42   23   41 1   
@<TRIPOS>SUBSTRUCTURE
     1 DLZ         1 TEMP              0 ****  ****    0 ROOT
