@<TRIPOS>MOLECULE
DM0
   35    34     1     0     0
SMALL
bcc


@<TRIPOS>ATOM
      1 OXT        -3.2600   -1.4120   -1.4660 o         1 DM0     -0.840800
      2 N          -2.3580    1.6250    0.0080 n3        1 DM0     -0.734600
      3 CA         -2.0170    0.5850   -0.9710 c3        1 DM0      0.053500
      4 CB         -0.5230    0.5710   -1.3200 c3        1 DM0     -0.042400
      5 CG          0.3900    0.2590   -0.1570 c3        1 DM0     -0.093400
      6 CD          1.8190    0.0670   -0.6230 c3        1 DM0     -0.076400
      7 CE          2.7170   -0.2210    0.5770 c3        1 DM0      0.166800
      8 NZ          4.1030   -0.5410    0.2490 n3        1 DM0     -0.738600
      9 CH1         4.7590    0.4640   -0.5530 c3        1 DM0      0.161100
     10 CH2         4.8630   -0.9000    1.4250 c3        1 DM0      0.161100
     11 C          -2.4910   -0.8660   -0.6260 c         1 DM0      0.898600
     12 O          -2.0910   -1.4240    0.4350 o         1 DM0     -0.840800
     13 HA         -2.5450    0.8460   -1.9410 h1        1 DM0      0.036700
     14 HB         -0.3910   -0.2140   -2.1130 hc        1 DM0      0.018700
     15 HBA        -0.2300    1.5580   -1.7670 hc        1 DM0      0.018700
     16 HG          0.3540    1.0960    0.5890 hc        1 DM0      0.066200
     17 HGA         0.0150   -0.6710    0.3560 hc        1 DM0      0.066200
     18 HD          1.8710   -0.7810   -1.3540 hc        1 DM0      0.033700
     19 HDA         2.1670    0.9930   -1.1530 hc        1 DM0      0.033700
     20 HE          2.6640    0.6640    1.2800 h1        1 DM0      0.031700
     21 HEA         2.2940   -1.1120    1.1230 h1        1 DM0      0.031700
     22 HH1         4.7610    1.4840   -0.0780 h1        1 DM0      0.022700
     23 HH1A        5.8230    0.1590   -0.7350 h1        1 DM0      0.022700
     24 HH1B        4.2340    0.5330   -1.5410 h1        1 DM0      0.022700
     25 HH2         4.3470   -1.7470    1.9480 h1        1 DM0      0.022700
     26 HH2A        5.8840   -1.2400    1.1100 h1        1 DM0      0.022700
     27 HH2B        4.9830   -0.0530    2.1560 h1        1 DM0      0.022700
     28 HM1        -4.4760    1.7080   -0.4060 h1        1 DM0      0.019367
     29 HM1A       -3.7350    3.1590    0.4050 h1        1 DM0      0.019367
     30 HM1B       -3.4050    2.8320   -1.3550 h1        1 DM0      0.019367
     31 HM2        -1.5260    0.5060    1.5830 h1        1 DM0      0.019367
     32 HM2A       -2.3700    2.0670    2.0510 h1        1 DM0      0.019367
     33 HM2B       -3.3340    0.5780    1.6170 h1        1 DM0      0.019367
     34 CM1        -3.5550    2.3520   -0.3530 c3        1 DM0      0.167600
     35 CM2        -2.4070    1.1690    1.3790 c3        1 DM0      0.167600
@<TRIPOS>BOND
     1    1   11 1   
     2    2    3 1   
     3    2   34 1   
     4    2   35 1   
     5    3    4 1   
     6    3   11 1   
     7    3   13 1   
     8    4    5 1   
     9    4   14 1   
    10    4   15 1   
    11    5    6 1   
    12    5   16 1   
    13    5   17 1   
    14    6    7 1   
    15    6   18 1   
    16    6   19 1   
    17    7    8 1   
    18    7   20 1   
    19    7   21 1   
    20    8    9 1   
    21    8   10 1   
    22    9   22 1   
    23    9   23 1   
    24    9   24 1   
    25   10   25 1   
    26   10   26 1   
    27   10   27 1   
    28   11   12 1   
    29   28   34 1   
    30   29   34 1   
    31   30   34 1   
    32   31   35 1   
    33   32   35 1   
    34   33   35 1   
@<TRIPOS>SUBSTRUCTURE
     1 DM0         1 TEMP              0 ****  ****    0 ROOT
