@<TRIPOS>MOLECULE
DM1
   68    72     1     0     0
SMALL
bcc


@<TRIPOS>ATOM
      1 C1         -0.0130    0.4320    0.2650 ca        1 DM1     -0.114000
      2 C2          1.3800    0.3130    0.2500 ca        1 DM1     -0.067000
      3 C3          2.0790    0.0650    1.4230 ca        1 DM1     -0.189000
      4 C4          1.3800   -0.0570    2.6390 ca        1 DM1      0.180100
      5 O4          1.9860   -0.3140    3.8450 os        1 DM1     -0.304900
      6 C5         -0.0260    0.0670    2.6710 ca        1 DM1     -0.172600
      7 C6         -0.7750   -0.0310    3.9300 c         1 DM1      0.610300
      8 O6         -0.2540    0.1630    5.0410 o         1 DM1     -0.554100
      9 C7         -2.2130   -0.3670    3.8250 ca        1 DM1     -0.179600
     10 C8         -2.8990   -0.8890    4.9260 ca        1 DM1      0.155100
     11 O8         -2.2960   -1.1830    6.1280 oh        1 DM1     -0.539100
     12 C9         -4.2960   -1.1440    4.8760 ca        1 DM1     -0.095300
     13 C10        -4.9960   -1.6330    6.1120 c3        1 DM1      0.219400
     14 O10        -4.7300   -0.6990    7.1810 os        1 DM1     -0.454600
     15 C11        -6.5150   -1.6680    5.9920 c3        1 DM1     -0.084400
     16 C12        -6.9950   -2.1570    4.6270 c3        1 DM1      0.063800
     17 O12        -8.4140   -1.9860    4.6610 oh        1 DM1     -0.586800
     18 C13        -6.6870   -3.6500    4.4400 c         1 DM1      0.535100
     19 O13        -5.8930   -4.0400    3.5820 o         1 DM1     -0.504100
     20 C14        -7.4160   -4.5800    5.3510 c3        1 DM1     -0.202100
     21 C15        -6.4110   -1.2940    3.5080 c3        1 DM1     -0.065100
     22 C16        -4.9760   -0.9570    3.6840 ca        1 DM1     -0.022300
     23 C17        -4.2790   -0.4300    2.5520 ca        1 DM1      0.176100
     24 O17        -5.0780   -0.2470    1.4590 oh        1 DM1     -0.494100
     25 C18        -2.9120   -0.1360    2.6160 ca        1 DM1     -0.184600
     26 C19        -2.1850    0.4050    1.4520 c         1 DM1      0.596300
     27 O19        -2.7790    0.9100    0.4850 o         1 DM1     -0.539100
     28 C20        -0.7100    0.2990    1.4650 ca        1 DM1     -0.095600
     29 C21         3.4070   -0.4440    3.8310 c3        1 DM1      0.106700
     30 C1'        -3.9750   -1.1900    8.2630 c3        1 DM1      0.349900
     31 C2'        -3.0720   -0.0520    8.7610 c3        1 DM1     -0.139400
     32 C3'        -3.9460    1.1120    9.2230 c3        1 DM1      0.086500
     33 N3'        -3.1070    2.2260    9.7810 n4        1 DM1     -0.835600
     34 C4'        -4.9580    0.6150   10.2940 c3        1 DM1      0.096100
     35 O4'        -4.2370    0.2570   11.4530 oh        1 DM1     -0.610800
     36 C5'        -5.7840   -0.5320    9.6810 c3        1 DM1      0.120100
     37 O5'        -4.9120   -1.5790    9.2540 os        1 DM1     -0.430600
     38 C6'        -6.7340   -1.1360   10.6950 c3        1 DM1     -0.098100
     39 H1         -0.5670    0.6340   -0.6670 ha        1 DM1      0.168000
     40 H2          1.9260    0.4160   -0.7020 ha        1 DM1      0.154000
     41 H3          3.1740   -0.0310    1.3970 ha        1 DM1      0.154000
     42 HO8        -1.3360   -1.2580    5.9980 ho        1 DM1      0.457000
     43 H10        -4.5950   -2.6540    6.3720 h1        1 DM1      0.074700
     44 H111       -6.9350   -2.3270    6.7960 hc        1 DM1      0.075200
     45 H112       -6.9260   -0.6360    6.1560 hc        1 DM1      0.075200
     46 HO12       -8.7430   -2.1770    3.7730 ho        1 DM1      0.418000
     47 H141       -8.4510   -4.2040    5.5430 hc        1 DM1      0.075033
     48 H142       -6.8710   -4.6440    6.3260 hc        1 DM1      0.075033
     49 H143       -7.4670   -5.6040    4.9050 hc        1 DM1      0.075033
     50 H151       -7.0020   -0.3390    3.4400 hc        1 DM1      0.092700
     51 H152       -6.5340   -1.8330    2.5250 hc        1 DM1      0.092700
     52 HO17       -4.5560    0.0430    0.6920 ho        1 DM1      0.466000
     53 H211        3.6530   -0.6410    4.9050 h1        1 DM1      0.054033
     54 H212        3.7170   -1.3050    3.1900 h1        1 DM1      0.054033
     55 H213        3.8860    0.5030    3.4830 h1        1 DM1      0.054033
     56 H1'        -3.3770   -2.1150    8.0300 h2        1 DM1      0.126700
     57 H2'1       -2.4000    0.2490    7.9130 hc        1 DM1      0.093700
     58 H2'2       -2.4530   -0.4460    9.6080 hc        1 DM1      0.093700
     59 H3'        -4.5180    1.5200    8.3350 hx        1 DM1      0.133700
     60 HN'1       -2.7280    1.9250   10.6890 hn        1 DM1      0.461800
     61 HN'2       -3.6810    3.0590    9.9210 hn        1 DM1      0.461800
     62 H4'        -5.6460    1.4510   10.6070 h1        1 DM1      0.092700
     63 HO4'       -4.1130   -0.7050   11.4490 ho        1 DM1      0.446000
     64 H5'        -6.3500   -0.1340    8.7910 h1        1 DM1      0.083700
     65 H6'1       -7.2620   -2.0080   10.2380 hc        1 DM1      0.065033
     66 H6'2       -6.1830   -1.4910   11.5980 hc        1 DM1      0.065033
     67 H6'3       -7.4850   -0.3690   11.0020 hc        1 DM1      0.065033
     68 H3'3       -2.3360    2.4390    9.1420 hn        1 DM1      0.461800
@<TRIPOS>BOND
     1    1    2 ar  
     2    1   28 ar  
     3    1   39 1   
     4    2    3 ar  
     5    2   40 1   
     6    3    4 ar  
     7    3   41 1   
     8    4    5 1   
     9    4    6 ar  
    10    5   29 1   
    11    6    7 1   
    12    6   28 ar  
    13    7    8 2   
    14    7    9 1   
    15    9   10 ar  
    16    9   25 ar  
    17   10   11 1   
    18   10   12 ar  
    19   11   42 1   
    20   12   13 1   
    21   12   22 ar  
    22   13   14 1   
    23   13   15 1   
    24   13   43 1   
    25   14   30 1   
    26   15   16 1   
    27   15   44 1   
    28   15   45 1   
    29   16   17 1   
    30   16   18 1   
    31   16   21 1   
    32   17   46 1   
    33   18   19 2   
    34   18   20 1   
    35   20   47 1   
    36   20   48 1   
    37   20   49 1   
    38   21   22 1   
    39   21   50 1   
    40   21   51 1   
    41   22   23 ar  
    42   23   24 1   
    43   23   25 ar  
    44   24   52 1   
    45   25   26 1   
    46   26   27 2   
    47   26   28 1   
    48   29   53 1   
    49   29   54 1   
    50   29   55 1   
    51   30   31 1   
    52   30   37 1   
    53   30   56 1   
    54   31   32 1   
    55   31   57 1   
    56   31   58 1   
    57   32   33 1   
    58   32   34 1   
    59   32   59 1   
    60   33   60 1   
    61   33   61 1   
    62   33   68 1   
    63   34   35 1   
    64   34   36 1   
    65   34   62 1   
    66   35   63 1   
    67   36   37 1   
    68   36   38 1   
    69   36   64 1   
    70   38   65 1   
    71   38   66 1   
    72   38   67 1   
@<TRIPOS>SUBSTRUCTURE
     1 DM1         1 TEMP              0 ****  ****    0 ROOT
