@<TRIPOS>MOLECULE
DM1
   68    72     1     0     0
SMALL
bcc


@<TRIPOS>ATOM
      1 C1         -0.1250    0.1780    0.2130 ca        1 DM1     -0.114000
      2 C2          1.2710    0.1010    0.1810 ca        1 DM1     -0.068000
      3 C3          1.9960   -0.0340    1.3560 ca        1 DM1     -0.188000
      4 C4          1.3220   -0.0820    2.5910 ca        1 DM1      0.180100
      5 O4          1.9560   -0.2270    3.8010 os        1 DM1     -0.304900
      6 C5         -0.0870    0.0010    2.6400 ca        1 DM1     -0.172600
      7 C6         -0.8100   -0.0190    3.9170 c         1 DM1      0.608300
      8 O6         -0.2750    0.2770    4.9980 o         1 DM1     -0.550100
      9 C7         -2.2400   -0.4040    3.8670 ca        1 DM1     -0.176600
     10 C8         -2.8890   -0.8580    5.0190 ca        1 DM1      0.155100
     11 O8         -2.2580   -1.0340    6.2290 oh        1 DM1     -0.533100
     12 C9         -4.2780   -1.1610    5.0170 ca        1 DM1     -0.076300
     13 C10        -4.9360   -1.6050    6.2930 c3        1 DM1      0.211400
     14 O10        -4.6500   -0.6270    7.3160 os        1 DM1     -0.455600
     15 C11        -6.4570   -1.6710    6.2210 c3        1 DM1     -0.074400
     16 C12        -6.9630   -2.2460    4.8990 c3        1 DM1      0.063800
     17 O12        -8.3810   -2.0990    4.9670 oh        1 DM1     -0.584800
     18 C13        -6.6140   -3.7320    4.7430 c         1 DM1      0.554100
     19 O13        -5.6570   -4.2330    5.3370 o         1 DM1     -0.523100
     20 C14        -7.5090   -4.5260    3.8500 c3        1 DM1     -0.209100
     21 C15        -6.4220   -1.4340    3.7180 c3        1 DM1     -0.065100
     22 C16        -4.9840   -1.0790    3.8290 ca        1 DM1     -0.047300
     23 C17        -4.3250   -0.6270    2.6450 ca        1 DM1      0.174100
     24 O17        -5.1460   -0.5670    1.5540 oh        1 DM1     -0.500100
     25 C18        -2.9660   -0.2900    2.6580 ca        1 DM1     -0.186600
     26 C19        -2.2750    0.1770    1.4390 c         1 DM1      0.597300
     27 O19        -2.9000    0.5830    0.4460 o         1 DM1     -0.541100
     28 C20        -0.7980    0.1170    1.4330 ca        1 DM1     -0.096600
     29 C21         3.3800   -0.3060    3.7710 c3        1 DM1      0.106700
     30 C1'        -3.8880   -1.0840    8.4080 c3        1 DM1      0.350900
     31 C2'        -3.0140    0.0850    8.8870 c3        1 DM1     -0.138400
     32 C3'        -3.9190    1.2330    9.3320 c3        1 DM1      0.086500
     33 N3'        -3.1080    2.3750    9.8760 n4        1 DM1     -0.835600
     34 C4'        -4.9210    0.7290   10.4080 c3        1 DM1      0.096100
     35 O4'        -4.1950    0.4050   11.5740 oh        1 DM1     -0.611800
     36 C5'        -5.7160   -0.4480    9.8100 c3        1 DM1      0.120100
     37 O5'        -4.8150   -1.4790    9.4050 os        1 DM1     -0.428600
     38 C6'        -6.6560   -1.0600   10.8300 c3        1 DM1     -0.098100
     39 H1         -0.7010    0.2900   -0.7210 ha        1 DM1      0.168000
     40 H2          1.7970    0.1470   -0.7860 ha        1 DM1      0.154000
     41 H3          3.0940   -0.0980    1.3160 ha        1 DM1      0.154000
     42 HO8        -1.2980   -1.0900    6.0870 ho        1 DM1      0.455000
     43 H10        -4.5170   -2.6150    6.5740 h1        1 DM1      0.103700
     44 H111       -6.8330   -2.3030    7.0670 hc        1 DM1      0.074700
     45 H112       -6.8880   -0.6420    6.3460 hc        1 DM1      0.074700
     46 HO12       -8.7350   -2.3010    4.0910 ho        1 DM1      0.414000
     47 H141       -8.5080   -4.6410    4.3410 hc        1 DM1      0.076033
     48 H142       -7.6450   -4.0080    2.8700 hc        1 DM1      0.076033
     49 H143       -7.0800   -5.5420    3.6680 hc        1 DM1      0.076033
     50 H151       -6.5910   -2.0020    2.7610 hc        1 DM1      0.085700
     51 H152       -7.0190   -0.4820    3.6400 hc        1 DM1      0.085700
     52 HO17       -4.6610   -0.2580    0.7700 ho        1 DM1      0.467000
     53 H211        3.7120   -1.2030    3.1930 h1        1 DM1      0.054367
     54 H212        3.6500   -0.4090    4.8530 h1        1 DM1      0.054367
     55 H213        3.8180    0.6280    3.3420 h1        1 DM1      0.054367
     56 H1'        -3.2690   -1.9980    8.1890 h2        1 DM1      0.127700
     57 H2'1       -2.3860   -0.2800    9.7410 hc        1 DM1      0.092700
     58 H2'2       -2.3510    0.3910    8.0350 hc        1 DM1      0.092700
     59 H3'        -4.4980    1.6140    8.4370 hx        1 DM1      0.132700
     60 HN'1       -2.7240    2.0960   10.7890 hn        1 DM1      0.461133
     61 HN'2       -3.7040    3.1960   10.0050 hn        1 DM1      0.461133
     62 H4'        -5.6300    1.5520   10.7060 h1        1 DM1      0.091700
     63 HO4'       -4.0500   -0.5540   11.5860 ho        1 DM1      0.447000
     64 H5'        -6.2880   -0.0800    8.9120 h1        1 DM1      0.083700
     65 H6'1       -7.1550   -1.9550   10.3860 hc        1 DM1      0.065367
     66 H6'2       -7.4300   -0.3100   11.1180 hc        1 DM1      0.065367
     67 H6'3       -6.1010   -1.3830   11.7430 hc        1 DM1      0.065367
     68 H3'3       -2.3420    2.5990    9.2360 hn        1 DM1      0.461133
@<TRIPOS>BOND
     1    1    2 ar  
     2    1   28 ar  
     3    1   39 1   
     4    2    3 ar  
     5    2   40 1   
     6    3    4 ar  
     7    3   41 1   
     8    4    5 1   
     9    4    6 ar  
    10    5   29 1   
    11    6    7 1   
    12    6   28 ar  
    13    7    8 2   
    14    7    9 1   
    15    9   10 ar  
    16    9   25 ar  
    17   10   11 1   
    18   10   12 ar  
    19   11   42 1   
    20   12   13 1   
    21   12   22 ar  
    22   13   14 1   
    23   13   15 1   
    24   13   43 1   
    25   14   30 1   
    26   15   16 1   
    27   15   44 1   
    28   15   45 1   
    29   16   17 1   
    30   16   18 1   
    31   16   21 1   
    32   17   46 1   
    33   18   19 2   
    34   18   20 1   
    35   20   47 1   
    36   20   48 1   
    37   20   49 1   
    38   21   22 1   
    39   21   50 1   
    40   21   51 1   
    41   22   23 ar  
    42   23   24 1   
    43   23   25 ar  
    44   24   52 1   
    45   25   26 1   
    46   26   27 2   
    47   26   28 1   
    48   29   53 1   
    49   29   54 1   
    50   29   55 1   
    51   30   31 1   
    52   30   37 1   
    53   30   56 1   
    54   31   32 1   
    55   31   57 1   
    56   31   58 1   
    57   32   33 1   
    58   32   34 1   
    59   32   59 1   
    60   33   60 1   
    61   33   61 1   
    62   33   68 1   
    63   34   35 1   
    64   34   36 1   
    65   34   62 1   
    66   35   63 1   
    67   36   37 1   
    68   36   38 1   
    69   36   64 1   
    70   38   65 1   
    71   38   66 1   
    72   38   67 1   
@<TRIPOS>SUBSTRUCTURE
     1 DM1         1 TEMP              0 ****  ****    0 ROOT
