@<TRIPOS>MOLECULE
DM1
   67    71     1     0     0
SMALL
bcc


@<TRIPOS>ATOM
      1 C1         -0.7610   -0.2490    6.1150 ca        1 DM1     -0.121000
      2 C2          0.1480    0.3280    7.0030 ca        1 DM1     -0.079000
      3 C3          1.3800    0.7870    6.5530 ca        1 DM1     -0.194000
      4 C4          1.7170    0.6590    5.1940 ca        1 DM1      0.173100
      5 O4          2.9020    1.1010    4.6560 os        1 DM1     -0.295900
      6 C5          0.8110    0.0700    4.2850 ca        1 DM1     -0.157600
      7 C6          1.1570   -0.1100    2.8640 c         1 DM1      0.607300
      8 O6          2.3370   -0.1500    2.4810 o         1 DM1     -0.534100
      9 C7          0.0280   -0.2460    1.9190 ca        1 DM1     -0.187600
     10 C8          0.1960    0.0160    0.5560 ca        1 DM1      0.181100
     11 O8          1.3580    0.4830   -0.0020 oh        1 DM1     -0.515100
     12 C9         -0.8870   -0.1140   -0.3610 ca        1 DM1     -0.077300
     13 C10        -0.6650    0.1810   -1.8180 c3        1 DM1      0.207400
     14 O10         0.5350   -0.4660   -2.2600 os        1 DM1     -0.427600
     15 C11        -1.7840   -0.3590   -2.7040 c3        1 DM1     -0.088400
     16 C12        -3.1610    0.0060   -2.1600 c3        1 DM1      0.063800
     17 O12        -4.0950   -0.6020   -3.0560 oh        1 DM1     -0.586800
     18 C13        -3.4120    1.5210   -2.1990 c         1 DM1      0.542100
     19 O13        -3.8720    2.1250   -1.2270 o         1 DM1     -0.518100
     20 C14        -3.1160    2.1930   -3.4980 c3        1 DM1     -0.202100
     21 C15        -3.3410   -0.5750   -0.7560 c3        1 DM1     -0.063100
     22 C16        -2.1370   -0.4760    0.1090 ca        1 DM1     -0.038300
     23 C17        -2.3040   -0.7830    1.4940 ca        1 DM1      0.169100
     24 O17        -3.5730   -1.1870    1.8130 oh        1 DM1     -0.501100
     25 C18        -1.2420   -0.6640    2.3960 ca        1 DM1     -0.192600
     26 C19        -1.4200   -0.9540    3.8300 c         1 DM1      0.600300
     27 O19        -2.3670   -1.6340    4.2580 o         1 DM1     -0.554100
     28 C20        -0.4330   -0.3660    4.7630 ca        1 DM1     -0.094600
     29 C21         3.8570    1.6360    5.5690 c3        1 DM1      0.108700
     30 C1'         1.5220    0.4100   -2.7810 c3        1 DM1      0.328900
     31 C2'         2.8360   -0.3580   -2.8790 c3        1 DM1     -0.092400
     32 C3'         2.8000   -1.4250   -3.9790 c3        1 DM1      0.138500
     33 N3'         4.0800   -2.0900   -4.1190 n3        1 DM1     -0.889800
     34 C4'         2.2730   -0.7830   -5.2920 c3        1 DM1      0.071100
     35 O4'         3.2100    0.1430   -5.8100 oh        1 DM1     -0.596800
     36 C5'         0.9040   -0.1430   -5.0270 c3        1 DM1      0.109100
     37 O5'         1.0220    0.8720   -4.0220 os        1 DM1     -0.456600
     38 C6'         0.3430    0.5380   -6.2580 c3        1 DM1     -0.091100
     39 H1         -1.7360   -0.6190    6.4700 ha        1 DM1      0.161000
     40 H2         -0.1140    0.4210    8.0690 ha        1 DM1      0.144000
     41 H3          2.0840    1.2450    7.2630 ha        1 DM1      0.147000
     42 HO8         2.1180    0.2250    0.5450 ho        1 DM1      0.461000
     43 H10        -0.5820    1.3000   -1.9420 h1        1 DM1      0.068700
     44 H111       -1.7070   -1.4760   -2.7670 hc        1 DM1      0.077200
     45 H112       -1.6550    0.0450   -3.7420 hc        1 DM1      0.077200
     46 HO12       -4.9650   -0.5370   -2.6410 ho        1 DM1      0.410000
     47 H141       -3.5950    3.2020   -3.5380 hc        1 DM1      0.072700
     48 H142       -2.0100    2.3160   -3.6130 hc        1 DM1      0.072700
     49 H143       -3.4980    1.5640   -4.3400 hc        1 DM1      0.072700
     50 H151       -3.6240   -1.6610   -0.8500 hc        1 DM1      0.087700
     51 H152       -4.1960   -0.0500   -0.2430 hc        1 DM1      0.087700
     52 HO17       -3.6440   -1.3750    2.7630 ho        1 DM1      0.458000
     53 H211        4.7290    1.8780    4.9080 h1        1 DM1      0.050033
     54 H212        3.4620    2.5610    6.0540 h1        1 DM1      0.050033
     55 H213        4.1420    0.8760    6.3360 h1        1 DM1      0.050033
     56 H1'         1.6340    1.3410   -2.1530 h2        1 DM1      0.093700
     57 H2'1        3.6490    0.3860   -3.0850 hc        1 DM1      0.070700
     58 H2'2        3.0370   -0.8400   -1.8870 hc        1 DM1      0.070700
     59 H3'         2.0440   -2.2090   -3.6700 h1        1 DM1      0.077700
     60 HN'1        4.0150   -2.8040   -4.8190 hn        1 DM1      0.350800
     61 HN'2        4.7810   -1.4300   -4.4010 hn        1 DM1      0.350800
     62 H4'         2.1750   -1.5620   -6.0980 h1        1 DM1      0.077700
     63 HO4'        3.1500    0.9400   -5.2650 ho        1 DM1      0.410000
     64 H5'         0.1970   -0.9370   -4.6520 h1        1 DM1      0.061700
     65 H6'1       -0.5950    1.0830   -5.9980 hc        1 DM1      0.048700
     66 H6'2        1.0830    1.2680   -6.6660 hc        1 DM1      0.048700
     67 H6'3        0.1220   -0.2300   -7.0370 hc        1 DM1      0.048700
@<TRIPOS>BOND
     1    1    2 ar  
     2    1   28 ar  
     3    1   39 1   
     4    2    3 ar  
     5    2   40 1   
     6    3    4 ar  
     7    3   41 1   
     8    4    5 1   
     9    4    6 ar  
    10    5   29 1   
    11    6    7 1   
    12    6   28 ar  
    13    7    8 2   
    14    7    9 1   
    15    9   10 ar  
    16    9   25 ar  
    17   10   11 1   
    18   10   12 ar  
    19   11   42 1   
    20   12   13 1   
    21   12   22 ar  
    22   13   14 1   
    23   13   15 1   
    24   13   43 1   
    25   14   30 1   
    26   15   16 1   
    27   15   44 1   
    28   15   45 1   
    29   16   17 1   
    30   16   18 1   
    31   16   21 1   
    32   17   46 1   
    33   18   19 2   
    34   18   20 1   
    35   20   47 1   
    36   20   48 1   
    37   20   49 1   
    38   21   22 1   
    39   21   50 1   
    40   21   51 1   
    41   22   23 ar  
    42   23   24 1   
    43   23   25 ar  
    44   24   52 1   
    45   25   26 1   
    46   26   27 2   
    47   26   28 1   
    48   29   53 1   
    49   29   54 1   
    50   29   55 1   
    51   30   31 1   
    52   30   37 1   
    53   30   56 1   
    54   31   32 1   
    55   31   57 1   
    56   31   58 1   
    57   32   33 1   
    58   32   34 1   
    59   32   59 1   
    60   33   60 1   
    61   33   61 1   
    62   34   35 1   
    63   34   36 1   
    64   34   62 1   
    65   35   63 1   
    66   36   37 1   
    67   36   38 1   
    68   36   64 1   
    69   38   65 1   
    70   38   66 1   
    71   38   67 1   
@<TRIPOS>SUBSTRUCTURE
     1 DM1         1 TEMP              0 ****  ****    0 ROOT
