@<TRIPOS>MOLECULE
DM1
   68    72     1     0     0
SMALL
bcc


@<TRIPOS>ATOM
      1 C1         -0.1620    0.2600    0.2050 ca        1 DM1     -0.114000
      2 C2          1.2340    0.1790    0.1630 ca        1 DM1     -0.068000
      3 C3          1.9660    0.0280    1.3320 ca        1 DM1     -0.188000
      4 C4          1.3000   -0.0330    2.5710 ca        1 DM1      0.180100
      5 O4          1.9420   -0.1950    3.7750 os        1 DM1     -0.304900
      6 C5         -0.1080    0.0530    2.6300 ca        1 DM1     -0.172600
      7 C6         -0.8240    0.0210    3.9110 c         1 DM1      0.608300
      8 O6         -0.2800    0.3010    4.9920 o         1 DM1     -0.550100
      9 C7         -2.2550   -0.3590    3.8660 ca        1 DM1     -0.176600
     10 C8         -2.8980   -0.8260    5.0160 ca        1 DM1      0.155100
     11 O8         -2.2590   -1.0200    6.2190 oh        1 DM1     -0.533100
     12 C9         -4.2880   -1.1250    5.0200 ca        1 DM1     -0.076300
     13 C10        -4.9380   -1.5820    6.2940 c3        1 DM1      0.211400
     14 O10        -4.6430   -0.6190    7.3270 os        1 DM1     -0.455600
     15 C11        -6.4610   -1.6430    6.2310 c3        1 DM1     -0.074400
     16 C12        -6.9760   -2.1990    4.9050 c3        1 DM1      0.063800
     17 O12        -8.3940   -2.0490    4.9840 oh        1 DM1     -0.584800
     18 C13        -6.6340   -3.6840    4.7280 c         1 DM1      0.554100
     19 O13        -5.6750   -4.1960    5.3090 o         1 DM1     -0.523100
     20 C14        -7.5370   -4.4630    3.8300 c3        1 DM1     -0.209100
     21 C15        -6.4410   -1.3740    3.7310 c3        1 DM1     -0.065100
     22 C16        -5.0010   -1.0250    3.8370 ca        1 DM1     -0.047300
     23 C17        -4.3480   -0.5600    2.6550 ca        1 DM1      0.174100
     24 O17        -5.1760   -0.4840    1.5700 oh        1 DM1     -0.500100
     25 C18        -2.9870   -0.2280    2.6630 ca        1 DM1     -0.186600
     26 C19        -2.3030    0.2510    1.4460 c         1 DM1      0.597300
     27 O19        -2.9330    0.6720    0.4620 o         1 DM1     -0.541100
     28 C20        -0.8270    0.1870    1.4290 ca        1 DM1     -0.096600
     29 C21         3.3650   -0.2780    3.7340 c3        1 DM1      0.106700
     30 C1'        -3.8750   -1.0920    8.4080 c3        1 DM1      0.350900
     31 C2'        -2.9940    0.0680    8.8970 c3        1 DM1     -0.138400
     32 C3'        -3.8920    1.2120    9.3620 c3        1 DM1      0.086500
     33 N3'        -3.0740    2.3450    9.9160 nz        1 DM1     -0.835600
     34 C4'        -4.8890    0.6970   10.4390 c3        1 DM1      0.096100
     35 O4'        -4.1560    0.3560   11.5950 oh        1 DM1     -0.611800
     36 C5'        -5.6920   -0.4700    9.8310 c3        1 DM1      0.120100
     37 O5'        -4.7960   -1.4980    9.4070 os        1 DM1     -0.428600
     38 C6'        -6.6260   -1.0920   10.8490 c3        1 DM1     -0.098100
     39 H1         -0.7430    0.3860   -0.7230 ha        1 DM1      0.168000
     40 H2          1.7540    0.2350   -0.8070 ha        1 DM1      0.154000
     41 H3          3.0630   -0.0390    1.2840 ha        1 DM1      0.154000
     42 HO8        -1.3000   -1.0760    6.0710 ho        1 DM1      0.455000
     43 H10        -4.5220   -2.5980    6.5590 h1        1 DM1      0.103700
     44 H111       -6.8330   -2.2850    7.0710 hc        1 DM1      0.074700
     45 H112       -6.8870   -0.6140    6.3720 hc        1 DM1      0.074700
     46 HO12       -8.7550   -2.2390    4.1080 ho        1 DM1      0.414000
     47 H141       -8.5340   -4.5820    4.3270 hc        1 DM1      0.076033
     48 H142       -7.1130   -5.4790    3.6320 hc        1 DM1      0.076033
     49 H143       -7.6780   -3.9320    2.8580 hc        1 DM1      0.076033
     50 H151       -6.6180   -1.9290    2.7680 hc        1 DM1      0.085700
     51 H152       -7.0350   -0.4190    3.6690 hc        1 DM1      0.085700
     52 HO17       -4.6950   -0.1670    0.7870 ho        1 DM1      0.467000
     53 H211        3.8030    0.6600    3.3140 h1        1 DM1      0.054367
     54 H212        3.6420   -0.3950    4.8130 h1        1 DM1      0.054367
     55 H213        3.6910   -1.1690    3.1440 h1        1 DM1      0.054367
     56 H1'        -3.2600   -2.0060    8.1730 h2        1 DM1      0.127700
     57 H2'1       -2.3610   -0.3100    9.7410 hc        1 DM1      0.092700
     58 H2'2       -2.3360    0.3830    8.0440 hc        1 DM1      0.092700
     59 H3'        -4.4760    1.6070    8.4760 hx        1 DM1      0.132700
     60 HN'1       -2.6850    2.0530   10.8230 hn        1 DM1      0.461133
     61 HN'2       -3.6670    3.1660   10.0590 hn        1 DM1      0.461133
     62 H4'        -5.5930    1.5180   10.7520 h1        1 DM1      0.091700
     63 HO4'       -4.0130   -0.6030   11.5940 ho        1 DM1      0.447000
     64 H5'        -6.2680   -0.0880    8.9410 h1        1 DM1      0.083700
     65 H6'1       -7.1310   -1.9800   10.3970 hc        1 DM1      0.065367
     66 H6'2       -7.3970   -0.3430   11.1510 hc        1 DM1      0.065367
     67 H6'3       -6.0660   -1.4280   11.7540 hc        1 DM1      0.065367
     68 H3'3       -2.3120    2.5750    9.2730 hn        1 DM1      0.461133
@<TRIPOS>BOND
     1    1    2 ar  
     2    1   28 ar  
     3    1   39 1   
     4    2    3 ar  
     5    2   40 1   
     6    3    4 ar  
     7    3   41 1   
     8    4    5 1   
     9    4    6 ar  
    10    5   29 1   
    11    6    7 1   
    12    6   28 ar  
    13    7    8 2   
    14    7    9 1   
    15    9   10 ar  
    16    9   25 ar  
    17   10   11 1   
    18   10   12 ar  
    19   11   42 1   
    20   12   13 1   
    21   12   22 ar  
    22   13   14 1   
    23   13   15 1   
    24   13   43 1   
    25   14   30 1   
    26   15   16 1   
    27   15   44 1   
    28   15   45 1   
    29   16   17 1   
    30   16   18 1   
    31   16   21 1   
    32   17   46 1   
    33   18   19 2   
    34   18   20 1   
    35   20   47 1   
    36   20   48 1   
    37   20   49 1   
    38   21   22 1   
    39   21   50 1   
    40   21   51 1   
    41   22   23 ar  
    42   23   24 1   
    43   23   25 ar  
    44   24   52 1   
    45   25   26 1   
    46   26   27 2   
    47   26   28 1   
    48   29   53 1   
    49   29   54 1   
    50   29   55 1   
    51   30   31 1   
    52   30   37 1   
    53   30   56 1   
    54   31   32 1   
    55   31   57 1   
    56   31   58 1   
    57   32   33 1   
    58   32   34 1   
    59   32   59 1   
    60   33   60 1   
    61   33   61 1   
    62   33   68 1   
    63   34   35 1   
    64   34   36 1   
    65   34   62 1   
    66   35   63 1   
    67   36   37 1   
    68   36   38 1   
    69   36   64 1   
    70   38   65 1   
    71   38   66 1   
    72   38   67 1   
@<TRIPOS>SUBSTRUCTURE
     1 DM1         1 TEMP              0 ****  ****    0 ROOT
