@<TRIPOS>MOLECULE
DM2
   68    72     1     0     0
SMALL
bcc


@<TRIPOS>ATOM
      1 C1         -0.8190   -0.2820    6.2020 ca        1 DM2     -0.121000
      2 C2          0.0280    0.3650    7.1020 ca        1 DM2     -0.079000
      3 C3          1.2440    0.8860    6.6770 ca        1 DM2     -0.194000
      4 C4          1.6280    0.7500    5.3320 ca        1 DM2      0.173100
      5 O4          2.8020    1.2490    4.8180 os        1 DM2     -0.295900
      6 C5          0.7850    0.0910    4.4100 ca        1 DM2     -0.157600
      7 C6          1.1830   -0.0970    3.0040 c         1 DM2      0.608300
      8 O6          2.3730   -0.0770    2.6550 o         1 DM2     -0.534100
      9 C7          0.0900   -0.3150    2.0310 ca        1 DM2     -0.186600
     10 C8          0.2820   -0.0680    0.6680 ca        1 DM2      0.181100
     11 O8          1.4310    0.4560    0.1330 oh        1 DM2     -0.515100
     12 C9         -0.7650   -0.2770   -0.2750 ca        1 DM2     -0.077300
     13 C10        -0.5220    0.0060   -1.7310 c3        1 DM2      0.206400
     14 O10         0.7390   -0.5480   -2.1260 os        1 DM2     -0.426600
     15 C11        -1.5680   -0.6440   -2.6320 c3        1 DM2     -0.089400
     16 C12        -2.9840   -0.3490   -2.1470 c3        1 DM2      0.062800
     17 O12        -3.8460   -1.0470   -3.0490 oh        1 DM2     -0.587800
     18 C13        -3.3150    1.1470   -2.2480 c         1 DM2      0.535100
     19 O13        -3.7300    1.7940   -1.2890 o         1 DM2     -0.478100
     20 C14        -3.1090    1.7300   -3.6250 c3        1 DM2      0.028400
     21 O14        -3.8720    2.9180   -3.7250 oh        1 DM2     -0.576800
     22 C15        -3.1780   -0.8870   -0.7280 c3        1 DM2     -0.061100
     23 C16        -2.0050   -0.7030    0.1660 ca        1 DM2     -0.039300
     24 C17        -2.1940   -0.9940    1.5530 ca        1 DM2      0.169100
     25 O17        -3.4460   -1.4640    1.8440 oh        1 DM2     -0.502100
     26 C18        -1.1660   -0.7960    2.4800 ca        1 DM2     -0.191600
     27 C19        -1.3690   -1.0690    3.9140 c         1 DM2      0.600300
     28 O19        -2.2870   -1.7960    4.3300 o         1 DM2     -0.554100
     29 C20        -0.4460   -0.4070    4.8620 ca        1 DM2     -0.094600
     30 C21         3.6950    1.8610    5.7450 c3        1 DM2      0.108700
     31 C1'         1.6660    0.3980   -2.6350 c3        1 DM2      0.328900
     32 C2'         3.0430   -0.2550   -2.6690 c3        1 DM2     -0.092400
     33 C3'         3.1400   -1.3450   -3.7420 c3        1 DM2      0.138500
     34 N3'         4.4770   -1.8980   -3.8220 n3        1 DM2     -0.889800
     35 C4'         2.6060   -0.7810   -5.0880 c3        1 DM2      0.071100
     36 O4'         3.4770    0.2120   -5.5980 oh        1 DM2     -0.596800
     37 C5'         1.1790   -0.2590   -4.8860 c3        1 DM2      0.109100
     38 O5'         1.1710    0.7860   -3.9040 os        1 DM2     -0.457600
     39 C6'         0.6060    0.3430   -6.1530 c3        1 DM2     -0.090100
     40 H1         -1.7820   -0.7010    6.5370 ha        1 DM2      0.161000
     41 H2         -0.2700    0.4640    8.1580 ha        1 DM2      0.144000
     42 H3          1.9000    1.3980    7.3960 ha        1 DM2      0.147000
     43 HO8         2.1880    0.2550    0.7070 ho        1 DM2      0.461000
     44 H10        -0.5300    1.1250   -1.8800 h1        1 DM2      0.068700
     45 H111       -1.4160   -1.7560   -2.6440 hc        1 DM2      0.076200
     46 H112       -1.4280   -0.2760   -3.6820 hc        1 DM2      0.076200
     47 HO12       -4.7360   -1.0060   -2.6760 ho        1 DM2      0.413000
     48 H141       -2.0140    1.9440   -3.7650 h1        1 DM2      0.059700
     49 H142       -3.4500    0.9860   -4.3970 h1        1 DM2      0.059700
     50 HO14       -3.6120    3.3390   -4.5530 ho        1 DM2      0.405000
     51 H151       -3.4090   -1.9880   -0.7900 hc        1 DM2      0.088700
     52 H152       -4.0690   -0.3850   -0.2580 hc        1 DM2      0.088700
     53 HO17       -3.5350   -1.6350    2.7960 ho        1 DM2      0.458000
     54 H211        4.5700    2.1400    5.1040 h1        1 DM2      0.050033
     55 H212        3.2310    2.7700    6.1970 h1        1 DM2      0.050033
     56 H213        4.0010    1.1360    6.5370 h1        1 DM2      0.050033
     57 H1'         1.6750    1.3500   -2.0280 h2        1 DM2      0.093700
     58 H2'1        3.7960    0.5520   -2.8650 hc        1 DM2      0.071200
     59 H2'2        3.2480   -0.6950   -1.6590 hc        1 DM2      0.071200
     60 H3'         2.4440   -2.1850   -3.4390 h1        1 DM2      0.077700
     61 HN'1        4.5000   -2.6310   -4.5040 hn        1 DM2      0.351800
     62 HN'2        5.1280   -1.1850   -4.0960 hn        1 DM2      0.351800
     63 H4'         2.6060   -1.5840   -5.8770 h1        1 DM2      0.077700
     64 HO4'        3.3340    1.0100   -5.0710 ho        1 DM2      0.410000
     65 H5'         0.5300   -1.1030   -4.5160 h1        1 DM2      0.061700
     66 H6'1       -0.3860    0.8090   -5.9390 hc        1 DM2      0.048033
     67 H6'2        1.2940    1.1250   -6.5540 hc        1 DM2      0.048033
     68 H6'3        0.4810   -0.4590   -6.9180 hc        1 DM2      0.048033
@<TRIPOS>BOND
     1    1    2 ar  
     2    1   29 ar  
     3    1   40 1   
     4    2    3 ar  
     5    2   41 1   
     6    3    4 ar  
     7    3   42 1   
     8    4    5 1   
     9    4    6 ar  
    10    5   30 1   
    11    6    7 1   
    12    6   29 ar  
    13    7    8 2   
    14    7    9 1   
    15    9   10 ar  
    16    9   26 ar  
    17   10   11 1   
    18   10   12 ar  
    19   11   43 1   
    20   12   13 1   
    21   12   23 ar  
    22   13   14 1   
    23   13   15 1   
    24   13   44 1   
    25   14   31 1   
    26   15   16 1   
    27   15   45 1   
    28   15   46 1   
    29   16   17 1   
    30   16   18 1   
    31   16   22 1   
    32   17   47 1   
    33   18   19 2   
    34   18   20 1   
    35   20   21 1   
    36   20   48 1   
    37   20   49 1   
    38   21   50 1   
    39   22   23 1   
    40   22   51 1   
    41   22   52 1   
    42   23   24 ar  
    43   24   25 1   
    44   24   26 ar  
    45   25   53 1   
    46   26   27 1   
    47   27   28 2   
    48   27   29 1   
    49   30   54 1   
    50   30   55 1   
    51   30   56 1   
    52   31   32 1   
    53   31   38 1   
    54   31   57 1   
    55   32   33 1   
    56   32   58 1   
    57   32   59 1   
    58   33   34 1   
    59   33   35 1   
    60   33   60 1   
    61   34   61 1   
    62   34   62 1   
    63   35   36 1   
    64   35   37 1   
    65   35   63 1   
    66   36   64 1   
    67   37   38 1   
    68   37   39 1   
    69   37   65 1   
    70   39   66 1   
    71   39   67 1   
    72   39   68 1   
@<TRIPOS>SUBSTRUCTURE
     1 DM2         1 TEMP              0 ****  ****    0 ROOT
