@<TRIPOS>MOLECULE
DM2
   68    68     1     0     0
SMALL
bcc


@<TRIPOS>ATOM
      1 C1          3.7980   -0.3870   -5.5750 c1        1 DM2     -0.121000
      2 C2          5.2000   -0.3930   -5.5780 c1        1 DM2     -0.136000
      3 C3          5.9090   -0.4060   -4.3570 c1        1 DM2     -0.136000
      4 C4          5.2210   -0.4130   -3.1580 c1        1 DM2      0.128000
      5 O4          5.7870   -0.3720   -1.8290 os        1 DM2     -0.181000
      6 C5          3.7990   -0.4070   -3.1550 c1        1 DM2     -0.138000
      7 C6          3.0450   -0.3290   -1.8450 c1        1 DM2      0.326000
      8 O6          3.6380   -0.3620   -0.8200 o         1 DM2     -0.295000
      9 C7          1.5080   -0.3500   -1.8400 c2        1 DM2     -0.174000
     10 C8          0.7940   -0.3070   -0.5870 c1        1 DM2      0.139000
     11 O8          1.7560   -0.1110    0.4780 o         1 DM2     -0.256000
     12 C9         -0.5800   -0.3940   -0.5730 c2        1 DM2     -0.048000
     13 C10        -1.4060   -0.4060    0.7920 c3        1 DM2      0.086000
     14 O10        -1.0160    0.7680    1.5530 os        1 DM2     -0.299000
     15 C11        -2.8760   -0.4070    0.6880 c3        1 DM2     -0.158000
     16 C12        -3.4880   -1.2100   -0.4160 c3        1 DM2      0.049000
     17 O12        -4.9530   -1.0870   -0.3910 oh        1 DM2     -0.313000
     18 C13        -3.3180   -2.7620   -0.1410 c2        1 DM2      0.177000
     19 O13        -2.2120   -3.2330    0.0050 o         1 DM2     -0.274000
     20 C14        -4.5420   -3.6700   -0.0920 c3        1 DM2     -0.071000
     21 O14        -4.1790   -4.9570   -0.5110 oh        1 DM2     -0.314000
     22 C15        -2.9210   -0.8680   -1.7690 c3        1 DM2     -0.144000
     23 C16        -1.3220   -0.5320   -1.8410 c2        1 DM2     -0.050000
     24 C17        -0.6300   -0.5720   -3.0400 c2        1 DM2      0.122000
     25 O17        -1.1220    0.3420   -3.9330 oh        1 DM2     -0.262000
     26 C18         0.8080   -0.4800   -3.0460 c2        1 DM2     -0.172000
     27 C19         1.5620   -0.4440   -4.3620 c2        1 DM2      0.320000
     28 O19         0.9240   -0.5370   -5.4740 o         1 DM2     -0.317000
     29 C20         3.1000   -0.3940   -4.3620 c2        1 DM2     -0.075000
     30 C21         7.1830   -0.5800   -1.7970 c3        1 DM2     -0.081000
     31 C1'        -0.8230    0.4140    2.9120 c3        1 DM2      0.155000
     32 C2'         0.3110    1.2390    3.4730 c3        1 DM2     -0.173000
     33 C3'        -0.0470    2.6740    3.6010 c3        1 DM2     -0.068000
     34 N3'         1.0330    3.3740    4.3250 n3        1 DM2     -0.356000
     35 C4'        -1.3380    2.8730    4.3460 c3        1 DM2      0.014000
     36 O4'        -1.1380    2.5210    5.7460 oh        1 DM2     -0.319000
     37 C5'        -2.4670    2.0340    3.7820 c3        1 DM2      0.038000
     38 O5'        -2.1070    0.6220    3.6530 os        1 DM2     -0.287000
     39 C6'        -3.6940    2.1580    4.7160 c3        1 DM2     -0.205000
     40 H1          3.3290   -0.3760   -6.3830 ha        1 DM2      0.161000
     41 H2          5.7020   -0.3910   -6.4510 ha        1 DM2      0.145500
     42 H3          6.8840   -0.4080   -4.3600 ha        1 DM2      0.145500
     43 HO8         1.9330   -0.8930    0.8680 ho        1 DM2      0.256000
     44 H10        -1.1330   -1.2140    1.3090 h1        1 DM2      0.136000
     45 H111       -3.2300   -0.7380    1.5240 hc        1 DM2      0.117500
     46 H112       -3.1790    0.5560    0.5770 hc        1 DM2      0.117500
     47 HO12       -5.2530   -0.9950   -1.2150 ho        1 DM2      0.204000
     48 H141       -4.8860   -3.7100    0.8280 h1        1 DM2      0.111000
     49 H142       -5.2110   -3.3280   -0.6630 h1        1 DM2      0.111000
     50 HO14       -4.9410   -5.4710   -0.6270 ho        1 DM2      0.221000
     51 H151       -3.4210   -0.0720   -2.1180 hc        1 DM2      0.119000
     52 H152       -3.1000   -1.6400   -2.3840 hc        1 DM2      0.119000
     53 HO17       -1.6620   -0.0630   -4.4970 ho        1 DM2      0.258000
     54 H211        7.4640   -0.8630   -0.8520 h1        1 DM2      0.090000
     55 H212        7.6520    0.2640   -2.0460 h1        1 DM2      0.090000
     56 H213        7.4220   -1.2840   -2.4320 h1        1 DM2      0.090000
     57 H1'        -0.5710   -0.5630    2.9660 h2        1 DM2      0.133000
     58 H2'1        1.0800    1.1580    2.8880 hc        1 DM2      0.110000
     59 H2'2        0.5670    0.8650    4.4270 hc        1 DM2      0.110000
     60 H3'        -0.1310    3.0600    2.7130 h1        1 DM2      0.080000
     61 HN'1        0.9900    4.3050    4.1350 hn        1 DM2      0.151500
     62 HN'2        1.8680    3.0350    4.0520 hn        1 DM2      0.151500
     63 H4'        -1.5990    3.8460    4.2900 h1        1 DM2      0.076000
     64 HO4'       -1.1890    3.2800    6.2600 ho        1 DM2      0.216000
     65 H5'        -2.7150    2.3920    2.8680 h1        1 DM2      0.083000
     66 H6'1       -3.5640    1.6060    5.5010 hc        1 DM2      0.088667
     67 H6'2       -4.4970    1.8630    4.2390 hc        1 DM2      0.088667
     68 H6'3       -3.8050    3.1290    5.0010 hc        1 DM2      0.088667
@<TRIPOS>BOND
     1    1   29 1   
     2    1   40 1   
     3    2    3 1   
     4    2   41 1   
     5    3   42 1   
     6    4    5 1   
     7    4    6 1   
     8    5   30 1   
     9    6   29 1   
    10    7    8 1   
    11    7    9 1   
    12    9   10 1   
    13    9   26 1   
    14   10   12 1   
    15   11   43 1   
    16   12   13 1   
    17   12   23 1   
    18   13   14 1   
    19   13   15 1   
    20   13   44 1   
    21   14   31 1   
    22   15   16 1   
    23   15   45 1   
    24   15   46 1   
    25   16   17 1   
    26   16   18 1   
    27   16   22 1   
    28   17   47 1   
    29   18   19 1   
    30   18   20 1   
    31   20   21 1   
    32   20   48 1   
    33   20   49 1   
    34   21   50 1   
    35   22   23 1   
    36   22   51 1   
    37   22   52 1   
    38   23   24 1   
    39   24   25 1   
    40   24   26 1   
    41   25   53 1   
    42   26   27 1   
    43   27   28 1   
    44   27   29 1   
    45   30   54 1   
    46   30   55 1   
    47   30   56 1   
    48   31   32 1   
    49   31   38 1   
    50   31   57 1   
    51   32   33 1   
    52   32   58 1   
    53   32   59 1   
    54   33   34 1   
    55   33   35 1   
    56   33   60 1   
    57   34   61 1   
    58   34   62 1   
    59   35   36 1   
    60   35   37 1   
    61   35   63 1   
    62   36   64 1   
    63   37   38 1   
    64   37   39 1   
    65   37   65 1   
    66   39   66 1   
    67   39   67 1   
    68   39   68 1   
@<TRIPOS>SUBSTRUCTURE
     1 DM2         1 TEMP              0 ****  ****    0 ROOT
