@<TRIPOS>MOLECULE
DM2
   69    73     1     0     0
SMALL
bcc


@<TRIPOS>ATOM
      1 C1         -0.1700    0.2160    0.1800 ca        1 DM2     -0.113000
      2 C2          1.2270    0.1670    0.1440 ca        1 DM2     -0.067000
      3 C3          1.9600    0.0720    1.3190 ca        1 DM2     -0.188000
      4 C4          1.2910    0.0350    2.5580 ca        1 DM2      0.180100
      5 O4          1.9330   -0.0720    3.7670 os        1 DM2     -0.304900
      6 C5         -0.1180    0.0900    2.6110 ca        1 DM2     -0.172600
      7 C6         -0.8360    0.0830    3.8910 c         1 DM2      0.608300
      8 O6         -0.3020    0.4100    4.9630 o         1 DM2     -0.549100
      9 C7         -2.2590   -0.3310    3.8560 ca        1 DM2     -0.174600
     10 C8         -2.8950   -0.7730    5.0210 ca        1 DM2      0.156100
     11 O8         -2.2560   -0.9120    6.2310 oh        1 DM2     -0.533100
     12 C9         -4.2770   -1.1040    5.0300 ca        1 DM2     -0.074300
     13 C10        -4.9230   -1.5370    6.3150 c3        1 DM2      0.211400
     14 O10        -4.6270   -0.5570    7.3320 os        1 DM2     -0.454600
     15 C11        -6.4460   -1.5970    6.2540 c3        1 DM2     -0.077400
     16 C12        -6.9620   -2.2080    4.9530 c3        1 DM2      0.070800
     17 O12        -8.3790   -2.0510    5.0230 oh        1 DM2     -0.583800
     18 C13        -6.6190   -3.6950    4.8470 c         1 DM2      0.514100
     19 O13        -5.5580   -4.1600    5.2720 o         1 DM2     -0.521100
     20 C14        -7.6410   -4.5800    4.1750 c3        1 DM2      0.032400
     21 O14        -7.3500   -5.9500    4.3110 oh        1 DM2     -0.571800
     22 C15        -6.4200   -1.4440    3.7410 c3        1 DM2     -0.064100
     23 C16        -4.9890   -1.0610    3.8430 ca        1 DM2     -0.049300
     24 C17        -4.3430   -0.6220    2.6470 ca        1 DM2      0.174100
     25 O17        -5.1690   -0.6040    1.5580 oh        1 DM2     -0.501100
     26 C18        -2.9900   -0.2580    2.6470 ca        1 DM2     -0.185600
     27 C19        -2.3140    0.1970    1.4160 c         1 DM2      0.597300
     28 O19        -2.9520    0.5690    0.4180 o         1 DM2     -0.540100
     29 C20        -0.8360    0.1670    1.4040 ca        1 DM2     -0.096600
     30 C21         3.3590   -0.1170    3.7330 c3        1 DM2      0.106700
     31 C1'        -3.8580   -1.0140    8.4190 c3        1 DM2      0.349900
     32 C2'        -3.0070    0.1650    8.9140 c3        1 DM2     -0.137400
     33 C3'        -3.9330    1.2870    9.3800 c3        1 DM2      0.086500
     34 N3'        -3.1440    2.4360    9.9430 n4        1 DM2     -0.835600
     35 C4'        -4.9240    0.7450   10.4490 c3        1 DM2      0.096100
     36 O4'        -4.1890    0.4160   11.6080 oh        1 DM2     -0.611800
     37 C5'        -5.6980   -0.4360    9.8320 c3        1 DM2      0.119100
     38 O5'        -4.7780   -1.4430    9.4090 os        1 DM2     -0.428600
     39 C6'        -6.6250   -1.0820   10.8410 c3        1 DM2     -0.098100
     40 H1         -0.7510    0.2970   -0.7530 ha        1 DM2      0.168000
     41 H2          1.7480    0.2040   -0.8260 ha        1 DM2      0.154000
     42 H3          3.0580    0.0290    1.2760 ha        1 DM2      0.155000
     43 HO8        -1.2950   -0.9430    6.0880 ho        1 DM2      0.456000
     44 H10        -4.5050   -2.5480    6.5970 h1        1 DM2      0.101700
     45 H111       -6.8210   -2.1970    7.1230 hc        1 DM2      0.075700
     46 H112       -6.8680   -0.5610    6.3480 hc        1 DM2      0.075700
     47 HO12       -8.7330   -2.2010    4.1360 ho        1 DM2      0.415000
     48 H141       -7.7010   -4.2990    3.0870 h1        1 DM2      0.078700
     49 H142       -8.6500   -4.4480    4.6580 h1        1 DM2      0.078700
     50 HO14       -6.3980   -6.0690    4.1780 ho        1 DM2      0.419000
     51 H151       -7.0290   -0.5040    3.6130 hc        1 DM2      0.086700
     52 H152       -6.5730   -2.0590    2.8110 hc        1 DM2      0.086700
     53 HO17       -4.6950   -0.2970    0.7670 ho        1 DM2      0.468000
     54 H211        3.7720    0.8180    3.2830 h1        1 DM2      0.054700
     55 H212        3.7110   -1.0180    3.1740 h1        1 DM2      0.054700
     56 H213        3.6350   -0.1910    4.8160 h1        1 DM2      0.054700
     57 H1'        -3.2200   -1.9130    8.1880 h2        1 DM2      0.127700
     58 H2'1       -2.3680   -0.2010    9.7590 hc        1 DM2      0.092700
     59 H2'2       -2.3540    0.4980    8.0640 hc        1 DM2      0.092700
     60 H3'        -4.5210    1.6730    8.4930 hx        1 DM2      0.132700
     61 HN'1       -2.7530    2.1470   10.8510 hn        1 DM2      0.461133
     62 HN'2       -2.3840    2.6860    9.3060 hn        1 DM2      0.461133
     63 H4'        -5.6470    1.5500   10.7620 h1        1 DM2      0.091700
     64 HO4'       -4.0280   -0.5410   11.6040 ho        1 DM2      0.447000
     65 H5'        -6.2770   -0.0630    8.9400 h1        1 DM2      0.082700
     66 H6'1       -6.0630   -1.4100   11.7490 hc        1 DM2      0.065367
     67 H6'2       -7.1080   -1.9790   10.3830 hc        1 DM2      0.065367
     68 H6'3       -7.4130   -0.3510   11.1420 hc        1 DM2      0.065367
     69 H3'3       -3.7550    3.2420   10.0880 hn        1 DM2      0.461133
@<TRIPOS>BOND
     1    1    2 ar  
     2    1   29 ar  
     3    1   40 1   
     4    2    3 ar  
     5    2   41 1   
     6    3    4 ar  
     7    3   42 1   
     8    4    5 1   
     9    4    6 ar  
    10    5   30 1   
    11    6    7 1   
    12    6   29 ar  
    13    7    8 2   
    14    7    9 1   
    15    9   10 ar  
    16    9   26 ar  
    17   10   11 1   
    18   10   12 ar  
    19   11   43 1   
    20   12   13 1   
    21   12   23 ar  
    22   13   14 1   
    23   13   15 1   
    24   13   44 1   
    25   14   31 1   
    26   15   16 1   
    27   15   45 1   
    28   15   46 1   
    29   16   17 1   
    30   16   18 1   
    31   16   22 1   
    32   17   47 1   
    33   18   19 2   
    34   18   20 1   
    35   20   21 1   
    36   20   48 1   
    37   20   49 1   
    38   21   50 1   
    39   22   23 1   
    40   22   51 1   
    41   22   52 1   
    42   23   24 ar  
    43   24   25 1   
    44   24   26 ar  
    45   25   53 1   
    46   26   27 1   
    47   27   28 2   
    48   27   29 1   
    49   30   54 1   
    50   30   55 1   
    51   30   56 1   
    52   31   32 1   
    53   31   38 1   
    54   31   57 1   
    55   32   33 1   
    56   32   58 1   
    57   32   59 1   
    58   33   34 1   
    59   33   35 1   
    60   33   60 1   
    61   34   61 1   
    62   34   62 1   
    63   34   69 1   
    64   35   36 1   
    65   35   37 1   
    66   35   63 1   
    67   36   64 1   
    68   37   38 1   
    69   37   39 1   
    70   37   65 1   
    71   39   66 1   
    72   39   67 1   
    73   39   68 1   
@<TRIPOS>SUBSTRUCTURE
     1 DM2         1 TEMP              0 ****  ****    0 ROOT
