@<TRIPOS>MOLECULE
DM2
   69    73     1     0     0
SMALL
bcc


@<TRIPOS>ATOM
      1 C1         -0.1450    0.1290    0.1730 ca        1 DM2     -0.113000
      2 C2          1.2510    0.0660    0.1380 ca        1 DM2     -0.067000
      3 C3          1.9820   -0.0350    1.3130 ca        1 DM2     -0.188000
      4 C4          1.3120   -0.0630    2.5520 ca        1 DM2      0.180100
      5 O4          1.9520   -0.1760    3.7620 os        1 DM2     -0.304900
      6 C5         -0.0970    0.0050    2.6040 ca        1 DM2     -0.172600
      7 C6         -0.8160    0.0070    3.8830 c         1 DM2      0.608300
      8 O6         -0.2790    0.3310    4.9560 o         1 DM2     -0.549100
      9 C7         -2.2420   -0.3920    3.8480 ca        1 DM2     -0.174600
     10 C8         -2.8830   -0.8270    5.0130 ca        1 DM2      0.156100
     11 O8         -2.2460   -0.9710    6.2240 oh        1 DM2     -0.533100
     12 C9         -4.2690   -1.1440    5.0220 ca        1 DM2     -0.074300
     13 C10        -4.9200   -1.5690    6.3070 c3        1 DM2      0.210400
     14 O10        -4.6150   -0.5910    7.3230 os        1 DM2     -0.454600
     15 C11        -6.4430   -1.6130    6.2450 c3        1 DM2     -0.077400
     16 C12        -6.9640   -2.2210    4.9450 c3        1 DM2      0.070800
     17 O12        -8.3790   -2.0500    5.0130 oh        1 DM2     -0.583800
     18 C13        -6.6370   -3.7120    4.8400 c         1 DM2      0.514100
     19 O13        -5.5810   -4.1870    5.2670 o         1 DM2     -0.521100
     20 C14        -7.6670   -4.5870    4.1680 c3        1 DM2      0.032400
     21 O14        -7.3890   -5.9600    4.3060 oh        1 DM2     -0.571800
     22 C15        -6.4140   -1.4640    3.7320 c3        1 DM2     -0.064100
     23 C16        -4.9790   -1.0950    3.8340 ca        1 DM2     -0.049300
     24 C17        -4.3280   -0.6640    2.6390 ca        1 DM2      0.174100
     25 O17        -5.1540   -0.6390    1.5490 oh        1 DM2     -0.501100
     26 C18        -2.9720   -0.3140    2.6390 ca        1 DM2     -0.185600
     27 C19        -2.2900    0.1330    1.4080 c         1 DM2      0.597300
     28 O19        -2.9240    0.5090    0.4080 o         1 DM2     -0.540100
     29 C20        -0.8130    0.0880    1.3970 ca        1 DM2     -0.096600
     30 C21         3.3770   -0.2350    3.7290 c3        1 DM2      0.106700
     31 C1'        -3.8510   -1.0550    8.4120 c3        1 DM2      0.349900
     32 C2'        -2.9880    0.1160    8.9050 c3        1 DM2     -0.137400
     33 C3'        -3.9020    1.2480    9.3690 c3        1 DM2      0.086500
     34 N3'        -3.1010    2.3890    9.9320 nz        1 DM2     -0.835600
     35 C4'        -4.8990    0.7180   10.4380 c3        1 DM2      0.096100
     36 O4'        -4.1690    0.3820   11.5980 oh        1 DM2     -0.611800
     37 C5'        -5.6850   -0.4560    9.8220 c3        1 DM2      0.119100
     38 O5'        -4.7760   -1.4730    9.4010 os        1 DM2     -0.428600
     39 C6'        -6.6200   -1.0910   10.8320 c3        1 DM2     -0.098100
     40 H1         -0.7250    0.2150   -0.7600 ha        1 DM2      0.168000
     41 H2          1.7730    0.0970   -0.8320 ha        1 DM2      0.154000
     42 H3          3.0800   -0.0880    1.2710 ha        1 DM2      0.155000
     43 HO8        -1.2860   -1.0120    6.0810 ho        1 DM2      0.456000
     44 H10        -4.5130   -2.5840    6.5900 h1        1 DM2      0.101700
     45 H111       -6.8250   -2.2090    7.1150 hc        1 DM2      0.075700
     46 H112       -6.8550   -0.5730    6.3380 hc        1 DM2      0.075700
     47 HO12       -8.7350   -2.1970    4.1270 ho        1 DM2      0.415000
     48 H141       -8.6750   -4.4440    4.6500 h1        1 DM2      0.078700
     49 H142       -7.7220   -4.3060    3.0790 h1        1 DM2      0.078700
     50 HO14       -6.4390   -6.0890    4.1750 ho        1 DM2      0.419000
     51 H151       -7.0140   -0.5190    3.6030 hc        1 DM2      0.086700
     52 H152       -6.5730   -2.0790    2.8020 hc        1 DM2      0.086700
     53 HO17       -4.6760   -0.3380    0.7570 ho        1 DM2      0.468000
     54 H211        3.6520   -0.3100    4.8120 h1        1 DM2      0.054700
     55 H212        3.7210   -1.1390    3.1710 h1        1 DM2      0.054700
     56 H213        3.8000    0.6950    3.2780 h1        1 DM2      0.054700
     57 H1'        -3.2230   -1.9610    8.1810 h2        1 DM2      0.127700
     58 H2'1       -2.3310    0.4410    8.0550 hc        1 DM2      0.092700
     59 H2'2       -2.3530   -0.2550    9.7510 hc        1 DM2      0.092700
     60 H3'        -4.4860    1.6390    8.4820 hx        1 DM2      0.132700
     61 HN'1       -2.3380    2.6310    9.2950 hn        1 DM2      0.461133
     62 HN'2       -2.7140    2.0970   10.8400 hn        1 DM2      0.461133
     63 H4'        -5.6150    1.5300   10.7500 h1        1 DM2      0.091700
     64 HO4'       -4.0180   -0.5760   11.5960 ho        1 DM2      0.447000
     65 H5'        -6.2600   -0.0780    8.9290 h1        1 DM2      0.082700
     66 H6'1       -7.4000   -0.3520   11.1320 hc        1 DM2      0.065367
     67 H6'2       -6.0620   -1.4240   11.7400 hc        1 DM2      0.065367
     68 H6'3       -7.1120   -1.9840   10.3740 hc        1 DM2      0.065367
     69 H3'3       -3.7050    3.2010   10.0750 hn        1 DM2      0.461133
@<TRIPOS>BOND
     1    1    2 ar  
     2    1   29 ar  
     3    1   40 1   
     4    2    3 ar  
     5    2   41 1   
     6    3    4 ar  
     7    3   42 1   
     8    4    5 1   
     9    4    6 ar  
    10    5   30 1   
    11    6    7 1   
    12    6   29 ar  
    13    7    8 2   
    14    7    9 1   
    15    9   10 ar  
    16    9   26 ar  
    17   10   11 1   
    18   10   12 ar  
    19   11   43 1   
    20   12   13 1   
    21   12   23 ar  
    22   13   14 1   
    23   13   15 1   
    24   13   44 1   
    25   14   31 1   
    26   15   16 1   
    27   15   45 1   
    28   15   46 1   
    29   16   17 1   
    30   16   18 1   
    31   16   22 1   
    32   17   47 1   
    33   18   19 2   
    34   18   20 1   
    35   20   21 1   
    36   20   48 1   
    37   20   49 1   
    38   21   50 1   
    39   22   23 1   
    40   22   51 1   
    41   22   52 1   
    42   23   24 ar  
    43   24   25 1   
    44   24   26 ar  
    45   25   53 1   
    46   26   27 1   
    47   27   28 2   
    48   27   29 1   
    49   30   54 1   
    50   30   55 1   
    51   30   56 1   
    52   31   32 1   
    53   31   38 1   
    54   31   57 1   
    55   32   33 1   
    56   32   58 1   
    57   32   59 1   
    58   33   34 1   
    59   33   35 1   
    60   33   60 1   
    61   34   61 1   
    62   34   62 1   
    63   34   69 1   
    64   35   36 1   
    65   35   37 1   
    66   35   63 1   
    67   36   64 1   
    68   37   38 1   
    69   37   39 1   
    70   37   65 1   
    71   39   66 1   
    72   39   67 1   
    73   39   68 1   
@<TRIPOS>SUBSTRUCTURE
     1 DM2         1 TEMP              0 ****  ****    0 ROOT
