@<TRIPOS>MOLECULE
DM2
   69    73     1     0     0
SMALL
bcc


@<TRIPOS>ATOM
      1 C1         -0.1860    0.2060    0.1590 ca        1 DM2     -0.113000
      2 C2          1.2100    0.1310    0.1120 ca        1 DM2     -0.067000
      3 C3          1.9490    0.0050    1.2800 ca        1 DM2     -0.188000
      4 C4          1.2880   -0.0360    2.5220 ca        1 DM2      0.180100
      5 O4          1.9360   -0.1740    3.7260 os        1 DM2     -0.304900
      6 C5         -0.1200    0.0440    2.5860 ca        1 DM2     -0.172600
      7 C6         -0.8290    0.0330    3.8710 c         1 DM2      0.608300
      8 O6         -0.2810    0.3350    4.9450 o         1 DM2     -0.549100
      9 C7         -2.2590   -0.3530    3.8410 ca        1 DM2     -0.174600
     10 C8         -2.8950   -0.7990    5.0030 ca        1 DM2      0.156100
     11 O8         -2.2510   -0.9670    6.2070 oh        1 DM2     -0.533100
     12 C9         -4.2840   -1.1040    5.0190 ca        1 DM2     -0.074300
     13 C10        -4.9290   -1.5430    6.3020 c3        1 DM2      0.211400
     14 O10        -4.6080   -0.5830    7.3300 os        1 DM2     -0.454600
     15 C11        -6.4530   -1.5730    6.2510 c3        1 DM2     -0.077400
     16 C12        -6.9890   -2.1560    4.9450 c3        1 DM2      0.070800
     17 O12        -8.4020   -1.9740    5.0270 oh        1 DM2     -0.583800
     18 C13        -6.6760   -3.6480    4.8150 c         1 DM2      0.514100
     19 O13        -5.6210   -4.1380    5.2260 o         1 DM2     -0.521100
     20 C14        -7.7180   -4.5030    4.1360 c3        1 DM2      0.032400
     21 O14        -7.4510   -5.8800    4.2500 oh        1 DM2     -0.571800
     22 C15        -6.4410   -1.3850    3.7400 c3        1 DM2     -0.064100
     23 C16        -5.0030   -1.0300    3.8370 ca        1 DM2     -0.049300
     24 C17        -4.3560   -0.5870    2.6430 ca        1 DM2      0.174100
     25 O17        -5.1900   -0.5370    1.5600 oh        1 DM2     -0.501100
     26 C18        -2.9980   -0.2490    2.6390 ca        1 DM2     -0.185600
     27 C19        -2.3210    0.2110    1.4090 c         1 DM2      0.597300
     28 O19        -2.9580    0.6090    0.4210 o         1 DM2     -0.540100
     29 C20        -0.8450    0.1530    1.3860 ca        1 DM2     -0.096600
     30 C21         3.3600   -0.2460    3.6800 c3        1 DM2      0.106700
     31 C1'        -3.8400   -1.0700    8.4050 c3        1 DM2      0.349900
     32 C2'        -2.9640    0.0860    8.9100 c3        1 DM2     -0.137400
     33 C3'        -3.8650    1.2190    9.3980 c3        1 DM2      0.086500
     34 N3'        -3.0500    2.3450    9.9710 n4        1 DM2     -0.835600
     35 C4'        -4.8580    0.6810   10.4660 c3        1 DM2      0.096100
     36 O4'        -4.1220    0.3220   11.6150 oh        1 DM2     -0.611800
     37 C5'        -5.6590   -0.4760    9.8390 c3        1 DM2      0.119100
     38 O5'        -4.7610   -1.4940    9.3960 os        1 DM2     -0.428600
     39 C6'        -6.5910   -1.1180   10.8460 c3        1 DM2     -0.098100
     40 H1         -0.7720    0.3120   -0.7690 ha        1 DM2      0.168000
     41 H2          1.7250    0.1720   -0.8620 ha        1 DM2      0.154000
     42 H3          3.0460   -0.0580    1.2280 ha        1 DM2      0.155000
     43 HO8        -1.2920   -1.0160    6.0570 ho        1 DM2      0.456000
     44 H10        -4.5290   -2.5660    6.5660 h1        1 DM2      0.101700
     45 H111       -6.8340   -2.1790    7.1140 hc        1 DM2      0.075700
     46 H112       -6.8550   -0.5310    6.3620 hc        1 DM2      0.075700
     47 HO12       -8.7660   -2.1040    4.1410 ho        1 DM2      0.415000
     48 H141       -8.7210   -4.3590    4.6280 h1        1 DM2      0.078700
     49 H142       -7.7790   -4.2050    3.0530 h1        1 DM2      0.078700
     50 HO14       -6.5030   -6.0150    4.1110 ho        1 DM2      0.419000
     51 H151       -6.6130   -1.9830    2.8020 hc        1 DM2      0.086700
     52 H152       -7.0340   -0.4320    3.6300 hc        1 DM2      0.086700
     53 HO17       -4.7160   -0.2290    0.7700 ho        1 DM2      0.468000
     54 H211        3.6910   -1.1450    3.1060 h1        1 DM2      0.054700
     55 H212        3.7890    0.6870    3.2420 h1        1 DM2      0.054700
     56 H213        3.6420   -0.3410    4.7600 h1        1 DM2      0.054700
     57 H1'        -3.2220   -1.9770    8.1570 h2        1 DM2      0.127700
     58 H2'1       -2.3100    0.4180    8.0600 hc        1 DM2      0.092700
     59 H2'2       -2.3260   -0.3030    9.7460 hc        1 DM2      0.092700
     60 H3'        -4.4520    1.6290    8.5200 hx        1 DM2      0.132700
     61 HN'1       -3.6450    3.1600   10.1310 hn        1 DM2      0.461133
     62 HN'2       -2.6580    2.0370   10.8720 hn        1 DM2      0.461133
     63 H4'        -5.5640    1.4950   10.7960 h1        1 DM2      0.091700
     64 HO4'       -3.9790   -0.6370   11.5980 ho        1 DM2      0.447000
     65 H5'        -6.2370   -0.0800    8.9560 h1        1 DM2      0.082700
     66 H6'1       -7.3630   -0.3770   11.1620 hc        1 DM2      0.065367
     67 H6'2       -6.0290   -1.4690   11.7450 hc        1 DM2      0.065367
     68 H6'3       -7.0940   -2.0000   10.3790 hc        1 DM2      0.065367
     69 H3'3       -2.2890    2.5890    9.3320 hn        1 DM2      0.461133
@<TRIPOS>BOND
     1    1    2 ar  
     2    1   29 ar  
     3    1   40 1   
     4    2    3 ar  
     5    2   41 1   
     6    3    4 ar  
     7    3   42 1   
     8    4    5 1   
     9    4    6 ar  
    10    5   30 1   
    11    6    7 1   
    12    6   29 ar  
    13    7    8 2   
    14    7    9 1   
    15    9   10 ar  
    16    9   26 ar  
    17   10   11 1   
    18   10   12 ar  
    19   11   43 1   
    20   12   13 1   
    21   12   23 ar  
    22   13   14 1   
    23   13   15 1   
    24   13   44 1   
    25   14   31 1   
    26   15   16 1   
    27   15   45 1   
    28   15   46 1   
    29   16   17 1   
    30   16   18 1   
    31   16   22 1   
    32   17   47 1   
    33   18   19 2   
    34   18   20 1   
    35   20   21 1   
    36   20   48 1   
    37   20   49 1   
    38   21   50 1   
    39   22   23 1   
    40   22   51 1   
    41   22   52 1   
    42   23   24 ar  
    43   24   25 1   
    44   24   26 ar  
    45   25   53 1   
    46   26   27 1   
    47   27   28 2   
    48   27   29 1   
    49   30   54 1   
    50   30   55 1   
    51   30   56 1   
    52   31   32 1   
    53   31   38 1   
    54   31   57 1   
    55   32   33 1   
    56   32   58 1   
    57   32   59 1   
    58   33   34 1   
    59   33   35 1   
    60   33   60 1   
    61   34   61 1   
    62   34   62 1   
    63   34   69 1   
    64   35   36 1   
    65   35   37 1   
    66   35   63 1   
    67   36   64 1   
    68   37   38 1   
    69   37   39 1   
    70   37   65 1   
    71   39   66 1   
    72   39   67 1   
    73   39   68 1   
@<TRIPOS>SUBSTRUCTURE
     1 DM2         1 TEMP              0 ****  ****    0 ROOT
