@<TRIPOS>MOLECULE
DM3
   67    71     1     0     0
SMALL
bcc


@<TRIPOS>ATOM
      1 C1         -0.0360    0.4570    0.2400 ca        1 DM3     -0.116000
      2 C2          1.3590    0.3670    0.2110 ca        1 DM3     -0.066000
      3 C3          2.0720    0.1270    1.3770 ca        1 DM3     -0.191000
      4 C4          1.3870   -0.0180    2.5980 ca        1 DM3      0.180100
      5 O4          2.0110   -0.2680    3.7960 os        1 DM3     -0.303900
      6 C5         -0.0220    0.0750    2.6450 ca        1 DM3     -0.174600
      7 C6         -0.7450   -0.0560    3.9180 c         1 DM3      0.612300
      8 O6         -0.1960    0.1000    5.0220 o         1 DM3     -0.559100
      9 C7         -2.1860   -0.3730    3.8350 ca        1 DM3     -0.216600
     10 C8         -2.8920   -0.8790    4.9400 ca        1 DM3      0.192100
     11 O8         -2.2970   -1.1760    6.1420 oh        1 DM3     -0.540100
     12 C9         -4.2900   -1.1100    4.8830 ca        1 DM3     -0.134300
     13 C10        -5.0050   -1.5910    6.1100 c3        1 DM3      0.221400
     14 O10        -4.7430   -0.6610    7.1850 os        1 DM3     -0.455600
     15 C11        -6.5230   -1.6160    5.9760 c3        1 DM3     -0.084400
     16 C12        -6.9940   -2.0890    4.6020 c3        1 DM3      0.063800
     17 O12        -8.4130   -1.9250    4.6300 oh        1 DM3     -0.585800
     18 C13        -6.6860   -3.5770    4.3810 c         1 DM3      0.535100
     19 O13        -6.0000   -3.9560    3.4300 o         1 DM3     -0.502100
     20 C14        -7.2960   -4.5150    5.3670 c3        1 DM3     -0.201100
     21 C15        -6.4040   -1.2020    3.5040 c3        1 DM3     -0.074100
     22 C16        -4.9570   -0.9090    3.6750 ca        1 DM3      0.008700
     23 C17        -4.2530   -0.4230    2.5590 ca        1 DM3     -0.114000
     24 C18        -2.8920   -0.1480    2.6390 ca        1 DM3     -0.078600
     25 C19        -2.1970    0.3820    1.4410 c         1 DM3      0.579300
     26 O19        -2.8280    0.8480    0.4840 o         1 DM3     -0.498100
     27 C20        -0.7210    0.3030    1.4450 ca        1 DM3     -0.096600
     28 C21         3.4330   -0.3800    3.7640 c3        1 DM3      0.106700
     29 C1'        -4.0000   -1.1610    8.2710 c3        1 DM3      0.349900
     30 C2'        -3.0930   -0.0300    8.7810 c3        1 DM3     -0.138400
     31 C3'        -3.9630    1.1370    9.2440 c3        1 DM3      0.086500
     32 N3'        -3.1200    2.2410    9.8170 n4        1 DM3     -0.835600
     33 C4'        -4.9870    0.6400   10.3040 c3        1 DM3      0.096100
     34 O4'        -4.2780    0.2690   11.4670 oh        1 DM3     -0.610800
     35 C5'        -5.8160   -0.4970    9.6770 c3        1 DM3      0.120100
     36 O5'        -4.9470   -1.5480    9.2520 os        1 DM3     -0.430600
     37 C6'        -6.7790   -1.1000   10.6800 c3        1 DM3     -0.098100
     38 H1         -0.6040    0.6520   -0.6850 ha        1 DM3      0.168000
     39 H2          1.8930    0.4870   -0.7450 ha        1 DM3      0.153000
     40 H3          3.1690    0.0530    1.3400 ha        1 DM3      0.154000
     41 HO8        -1.3320   -1.2240    6.0260 ho        1 DM3      0.461000
     42 H10        -4.6170   -2.6150    6.3770 h1        1 DM3      0.071700
     43 H111       -6.9300   -0.5830    6.1460 hc        1 DM3      0.075200
     44 H112       -6.9550   -2.2790    6.7700 hc        1 DM3      0.075200
     45 HO12       -8.7410   -2.1350    3.7470 ho        1 DM3      0.418000
     46 H141       -6.6540   -4.5600    6.2820 hc        1 DM3      0.075033
     47 H142       -8.3150   -4.1580    5.6590 hc        1 DM3      0.075033
     48 H143       -7.3720   -5.5430    4.9360 hc        1 DM3      0.075033
     49 H151       -6.9730   -0.2310    3.4910 hc        1 DM3      0.086200
     50 H152       -6.5610   -1.7050    2.5090 hc        1 DM3      0.086200
     51 H17        -4.7830   -0.2550    1.6060 ha        1 DM3      0.172000
     52 H211        3.7470   -1.2330    3.1150 h1        1 DM3      0.053700
     53 H212        3.8960    0.5760    3.4190 h1        1 DM3      0.053700
     54 H213        3.6930   -0.5820    4.8350 h1        1 DM3      0.053700
     55 H1'        -3.4050   -2.0880    8.0390 h2        1 DM3      0.126700
     56 H2'1       -2.4820   -0.4330    9.6300 hc        1 DM3      0.093200
     57 H2'2       -2.4140    0.2720    7.9390 hc        1 DM3      0.093200
     58 H3'        -4.5250    1.5550    8.3550 hx        1 DM3      0.132700
     59 HN'1       -3.6900    3.0770    9.9590 hn        1 DM3      0.461800
     60 HN'2       -2.7510    1.9310   10.7270 hn        1 DM3      0.461800
     61 H4'        -5.6710    1.4790   10.6170 h1        1 DM3      0.092700
     62 HO4'       -4.1600   -0.6940   11.4580 ho        1 DM3      0.446000
     63 H5'        -6.3710   -0.0900    8.7850 h1        1 DM3      0.083700
     64 H6'1       -7.5270   -0.3300   10.9850 hc        1 DM3      0.065033
     65 H6'2       -6.2380   -1.4640   11.5860 hc        1 DM3      0.065033
     66 H6'3       -7.3090   -1.9660   10.2140 hc        1 DM3      0.065033
     67 H3'3       -2.3430    2.4530    9.1860 hn        1 DM3      0.461800
@<TRIPOS>BOND
     1    1    2 ar  
     2    1   27 ar  
     3    1   38 1   
     4    2    3 ar  
     5    2   39 1   
     6    3    4 ar  
     7    3   40 1   
     8    4    5 1   
     9    4    6 ar  
    10    5   28 1   
    11    6    7 1   
    12    6   27 ar  
    13    7    8 2   
    14    7    9 1   
    15    9   10 ar  
    16    9   24 ar  
    17   10   11 1   
    18   10   12 ar  
    19   11   41 1   
    20   12   13 1   
    21   12   22 ar  
    22   13   14 1   
    23   13   15 1   
    24   13   42 1   
    25   14   29 1   
    26   15   16 1   
    27   15   43 1   
    28   15   44 1   
    29   16   17 1   
    30   16   18 1   
    31   16   21 1   
    32   17   45 1   
    33   18   19 2   
    34   18   20 1   
    35   20   46 1   
    36   20   47 1   
    37   20   48 1   
    38   21   22 1   
    39   21   49 1   
    40   21   50 1   
    41   22   23 ar  
    42   23   24 ar  
    43   23   51 1   
    44   24   25 1   
    45   25   26 2   
    46   25   27 1   
    47   28   52 1   
    48   28   53 1   
    49   28   54 1   
    50   29   30 1   
    51   29   36 1   
    52   29   55 1   
    53   30   31 1   
    54   30   56 1   
    55   30   57 1   
    56   31   32 1   
    57   31   33 1   
    58   31   58 1   
    59   32   59 1   
    60   32   60 1   
    61   32   67 1   
    62   33   34 1   
    63   33   35 1   
    64   33   61 1   
    65   34   62 1   
    66   35   36 1   
    67   35   37 1   
    68   35   63 1   
    69   37   64 1   
    70   37   65 1   
    71   37   66 1   
@<TRIPOS>SUBSTRUCTURE
     1 DM3         1 TEMP              0 ****  ****    0 ROOT
