@<TRIPOS>MOLECULE
DM3
   67    71     1     0     0
SMALL
bcc


@<TRIPOS>ATOM
      1 C1         -0.1920    0.2310    0.1960 ca        1 DM3     -0.116000
      2 C2          1.2050    0.1930    0.1420 ca        1 DM3     -0.067000
      3 C3          1.9510    0.0570    1.3030 ca        1 DM3     -0.191000
      4 C4          1.2960   -0.0340    2.5460 ca        1 DM3      0.180100
      5 O4          1.9540   -0.1800    3.7440 os        1 DM3     -0.302900
      6 C5         -0.1140    0.0080    2.6200 ca        1 DM3     -0.174600
      7 C6         -0.8030   -0.0640    3.9160 c         1 DM3      0.611300
      8 O6         -0.2340    0.1760    4.9940 o         1 DM3     -0.556100
      9 C7         -2.2360   -0.4280    3.8890 ca        1 DM3     -0.212600
     10 C8         -2.9020   -0.8750    5.0450 ca        1 DM3      0.190100
     11 O8         -2.2700   -1.0700    6.2490 oh        1 DM3     -0.535100
     12 C9         -4.2930   -1.1480    5.0390 ca        1 DM3     -0.116300
     13 C10        -4.9630   -1.5910    6.3070 c3        1 DM3      0.215400
     14 O10        -4.6870   -0.6170    7.3380 os        1 DM3     -0.458600
     15 C11        -6.4840   -1.6590    6.2130 c3        1 DM3     -0.108400
     16 C12        -6.9740   -2.2260    4.8820 c3        1 DM3      0.058800
     17 O12        -8.4000   -2.2090    4.8600 oh        1 DM3     -0.582800
     18 C13        -6.6010   -3.7070    4.7040 c         1 DM3      0.594100
     19 O13        -5.6860   -4.2090    5.3600 o         1 DM3     -0.529100
     20 C14        -7.4180   -4.4690    3.7190 c3        1 DM3     -0.192100
     21 C15        -6.4380   -1.3750    3.7270 c3        1 DM3     -0.070100
     22 C16        -4.9920   -1.0490    3.8360 ca        1 DM3     -0.017300
     23 C17        -4.3280   -0.6260    2.6720 ca        1 DM3     -0.116000
     24 C18        -2.9740   -0.3090    2.6980 ca        1 DM3     -0.083600
     25 C19        -2.3230    0.1510    1.4470 c         1 DM3      0.579300
     26 O19        -2.9910    0.5130    0.4710 o         1 DM3     -0.500100
     27 C20        -0.8450    0.1310    1.4240 ca        1 DM3     -0.096600
     28 C21         3.3790   -0.2410    3.6870 c3        1 DM3      0.106700
     29 C1'        -3.9240   -1.0800    8.4270 c3        1 DM3      0.349900
     30 C2'        -3.0150    0.0670    8.8920 c3        1 DM3     -0.139400
     31 C3'        -3.8800    1.2400    9.3510 c3        1 DM3      0.087500
     32 N3'        -3.0280    2.3560    9.8880 nz        1 DM3     -0.835600
     33 C4'        -4.8830    0.7630   10.4390 c3        1 DM3      0.096100
     34 O4'        -4.1520    0.4160   11.5950 oh        1 DM3     -0.610800
     35 C5'        -5.7180   -0.3900    9.8490 c3        1 DM3      0.121100
     36 O5'        -4.8510   -1.4470    9.4360 os        1 DM3     -0.426600
     37 C6'        -6.6650   -0.9740   10.8770 c3        1 DM3     -0.098100
     38 H1         -0.7850    0.3430   -0.7270 ha        1 DM3      0.168000
     39 H2          1.7140    0.2710   -0.8320 ha        1 DM3      0.153000
     40 H3          3.0490    0.0240    1.2470 ha        1 DM3      0.154000
     41 HO8        -1.3080   -1.1120    6.1090 ho        1 DM3      0.460000
     42 H10        -4.5520   -2.6040    6.5910 h1        1 DM3      0.103700
     43 H111       -6.8670   -2.3000    7.0490 hc        1 DM3      0.066200
     44 H112       -6.9090   -0.6290    6.3480 hc        1 DM3      0.066200
     45 HO12       -8.6800   -1.2930    4.9840 ho        1 DM3      0.411000
     46 H141       -8.4910   -4.4450    4.0400 hc        1 DM3      0.078700
     47 H142       -7.0730   -5.5290    3.6550 hc        1 DM3      0.078700
     48 H143       -7.3450   -3.9960    2.7100 hc        1 DM3      0.078700
     49 H151       -6.6380   -1.9050    2.7560 hc        1 DM3      0.077200
     50 H152       -7.0180   -0.4100    3.6960 hc        1 DM3      0.077200
     51 H17        -4.8840   -0.5350    1.7230 ha        1 DM3      0.170000
     52 H211        3.7970    0.7070    3.2710 h1        1 DM3      0.054033
     53 H212        3.7120   -1.1210    3.0860 h1        1 DM3      0.054033
     54 H213        3.6680   -0.3620    4.7620 h1        1 DM3      0.054033
     55 H1'        -3.3280   -2.0110    8.2110 h2        1 DM3      0.128700
     56 H2'1       -2.3830   -0.3140    9.7360 hc        1 DM3      0.092200
     57 H2'2       -2.3570    0.3570    8.0300 hc        1 DM3      0.092200
     58 H3'        -4.4580    1.6410    8.4650 hx        1 DM3      0.130700
     59 HN'1       -2.6420    2.0620   10.7960 hn        1 DM3      0.461467
     60 HN'2       -3.5960    3.1940   10.0270 hn        1 DM3      0.461467
     61 H4'        -5.5640    1.6050   10.7480 h1        1 DM3      0.090700
     62 HO4'       -4.0320   -0.5470   11.6020 ho        1 DM3      0.447000
     63 H5'        -6.2860   -0.0040    8.9560 h1        1 DM3      0.079700
     64 H6'1       -7.1900   -1.8590   10.4410 hc        1 DM3      0.065367
     65 H6'2       -7.4190   -0.2030   11.1680 hc        1 DM3      0.065367
     66 H6'3       -6.1120   -1.3060   11.7880 hc        1 DM3      0.065367
     67 H3'3       -2.2630    2.5580    9.2400 hn        1 DM3      0.461467
@<TRIPOS>BOND
     1    1    2 ar  
     2    1   27 ar  
     3    1   38 1   
     4    2    3 ar  
     5    2   39 1   
     6    3    4 ar  
     7    3   40 1   
     8    4    5 1   
     9    4    6 ar  
    10    5   28 1   
    11    6    7 1   
    12    6   27 ar  
    13    7    8 2   
    14    7    9 1   
    15    9   10 ar  
    16    9   24 ar  
    17   10   11 1   
    18   10   12 ar  
    19   11   41 1   
    20   12   13 1   
    21   12   22 ar  
    22   13   14 1   
    23   13   15 1   
    24   13   42 1   
    25   14   29 1   
    26   15   16 1   
    27   15   43 1   
    28   15   44 1   
    29   16   17 1   
    30   16   18 1   
    31   16   21 1   
    32   17   45 1   
    33   18   19 2   
    34   18   20 1   
    35   20   46 1   
    36   20   47 1   
    37   20   48 1   
    38   21   22 1   
    39   21   49 1   
    40   21   50 1   
    41   22   23 ar  
    42   23   24 ar  
    43   23   51 1   
    44   24   25 1   
    45   25   26 2   
    46   25   27 1   
    47   28   52 1   
    48   28   53 1   
    49   28   54 1   
    50   29   30 1   
    51   29   36 1   
    52   29   55 1   
    53   30   31 1   
    54   30   56 1   
    55   30   57 1   
    56   31   32 1   
    57   31   33 1   
    58   31   58 1   
    59   32   59 1   
    60   32   60 1   
    61   32   67 1   
    62   33   34 1   
    63   33   35 1   
    64   33   61 1   
    65   34   62 1   
    66   35   36 1   
    67   35   37 1   
    68   35   63 1   
    69   37   64 1   
    70   37   65 1   
    71   37   66 1   
@<TRIPOS>SUBSTRUCTURE
     1 DM3         1 TEMP              0 ****  ****    0 ROOT
