@<TRIPOS>MOLECULE
DM3
   67    71     1     0     0
SMALL
bcc


@<TRIPOS>ATOM
      1 C1         -0.1800    0.2260    0.1830 ca        1 DM3     -0.116000
      2 C2          1.2170    0.2000    0.1280 ca        1 DM3     -0.067000
      3 C3          1.9650    0.0850    1.2900 ca        1 DM3     -0.191000
      4 C4          1.3120    0.0030    2.5350 ca        1 DM3      0.180100
      5 O4          1.9720   -0.1230    3.7330 os        1 DM3     -0.301900
      6 C5         -0.0990    0.0340    2.6090 ca        1 DM3     -0.173600
      7 C6         -0.7860   -0.0260    3.9060 c         1 DM3      0.611300
      8 O6         -0.2150    0.2300    4.9800 o         1 DM3     -0.555100
      9 C7         -2.2170   -0.3980    3.8870 ca        1 DM3     -0.212600
     10 C8         -2.8800   -0.8320    5.0490 ca        1 DM3      0.192100
     11 O8         -2.2490   -1.0030    6.2570 oh        1 DM3     -0.534100
     12 C9         -4.2690   -1.1160    5.0460 ca        1 DM3     -0.114300
     13 C10        -4.9360   -1.5500    6.3190 c3        1 DM3      0.213400
     14 O10        -4.6510   -0.5710    7.3430 os        1 DM3     -0.457600
     15 C11        -6.4570   -1.6110    6.2400 c3        1 DM3     -0.074400
     16 C12        -6.9610   -2.1790    4.9140 c3        1 DM3      0.063800
     17 O12        -8.3790   -2.0290    4.9800 oh        1 DM3     -0.583800
     18 C13        -6.6140   -3.6640    4.7500 c         1 DM3      0.553100
     19 O13        -5.6690   -4.1740    5.3550 o         1 DM3     -0.518100
     20 C14        -7.4970   -4.4490    3.8370 c3        1 DM3     -0.209100
     21 C15        -6.4170   -1.3560    3.7420 c3        1 DM3     -0.073100
     22 C16        -4.9700   -1.0320    3.8440 ca        1 DM3     -0.014300
     23 C17        -4.3090   -0.6210    2.6740 ca        1 DM3     -0.117000
     24 C18        -2.9570   -0.3000    2.6940 ca        1 DM3     -0.083600
     25 C19        -2.3100    0.1430    1.4350 c         1 DM3      0.579300
     26 O19        -2.9810    0.4810    0.4530 o         1 DM3     -0.501100
     27 C20        -0.8320    0.1350    1.4120 ca        1 DM3     -0.096600
     28 C21         3.3970   -0.1680    3.6770 c3        1 DM3      0.106700
     29 C1'        -3.8950   -1.0320    8.4370 c3        1 DM3      0.349900
     30 C2'        -3.0170    0.1320    8.9200 c3        1 DM3     -0.138400
     31 C3'        -3.9160    1.2840    9.3650 c3        1 DM3      0.086500
     32 N3'        -3.1010    2.4200    9.9160 n4        1 DM3     -0.835600
     33 C4'        -4.9240    0.7820   10.4370 c3        1 DM3      0.096100
     34 O4'        -4.2040    0.4520   11.6050 oh        1 DM3     -0.611800
     35 C5'        -5.7240   -0.3890    9.8340 c3        1 DM3      0.120100
     36 O5'        -4.8260   -1.4240    9.4320 os        1 DM3     -0.428600
     37 C6'        -6.6710   -0.9970   10.8490 c3        1 DM3     -0.098100
     38 H1         -0.7740    0.3210   -0.7410 ha        1 DM3      0.168000
     39 H2          1.7260    0.2700   -0.8480 ha        1 DM3      0.153000
     40 H3          3.0630    0.0600    1.2340 ha        1 DM3      0.154000
     41 HO8        -1.2860   -1.0310    6.1210 ho        1 DM3      0.460000
     42 H10        -4.5250   -2.5620    6.6070 h1        1 DM3      0.100700
     43 H111       -6.8380   -2.2460    7.0810 hc        1 DM3      0.074200
     44 H112       -6.8850   -0.5810    6.3690 hc        1 DM3      0.074200
     45 HO12       -8.7360   -2.2540    4.1110 ho        1 DM3      0.412000
     46 H141       -8.4970   -4.5850    4.3220 hc        1 DM3      0.075700
     47 H142       -7.0580   -5.4570    3.6380 hc        1 DM3      0.075700
     48 H143       -7.6360   -3.9150    2.8660 hc        1 DM3      0.075700
     49 H151       -6.9970   -0.3910    3.7010 hc        1 DM3      0.077700
     50 H152       -6.6140   -1.9030    2.7800 hc        1 DM3      0.077700
     51 H17        -4.8670   -0.5430    1.7250 ha        1 DM3      0.169000
     52 H211        3.8030    0.7800    3.2490 h1        1 DM3      0.054033
     53 H212        3.7410   -1.0520    3.0880 h1        1 DM3      0.054033
     54 H213        3.6880   -0.2720    4.7540 h1        1 DM3      0.054033
     55 H1'        -3.2790   -1.9490    8.2200 h2        1 DM3      0.128700
     56 H2'1       -2.3910   -0.2370    9.7740 hc        1 DM3      0.091700
     57 H2'2       -2.3510    0.4360    8.0700 hc        1 DM3      0.091700
     58 H3'        -4.4910    1.6710    8.4700 hx        1 DM3      0.132700
     59 HN'1       -2.3310    2.6420    9.2790 hn        1 DM3      0.460800
     60 HN'2       -3.6920    3.2440   10.0450 hn        1 DM3      0.460800
     61 H4'        -5.6300    1.6090   10.7350 h1        1 DM3      0.091700
     62 HO4'       -4.0640   -0.5070   11.6150 ho        1 DM3      0.447000
     63 H5'        -6.2900   -0.0160    8.9340 h1        1 DM3      0.083700
     64 H6'1       -7.4430   -0.2430   11.1340 hc        1 DM3      0.065367
     65 H6'2       -6.1210   -1.3230   11.7640 hc        1 DM3      0.065367
     66 H6'3       -7.1730   -1.8890   10.4020 hc        1 DM3      0.065367
     67 H3'3       -2.7220    2.1360   10.8290 hn        1 DM3      0.460800
@<TRIPOS>BOND
     1    1    2 ar  
     2    1   27 ar  
     3    1   38 1   
     4    2    3 ar  
     5    2   39 1   
     6    3    4 ar  
     7    3   40 1   
     8    4    5 1   
     9    4    6 ar  
    10    5   28 1   
    11    6    7 1   
    12    6   27 ar  
    13    7    8 2   
    14    7    9 1   
    15    9   10 ar  
    16    9   24 ar  
    17   10   11 1   
    18   10   12 ar  
    19   11   41 1   
    20   12   13 1   
    21   12   22 ar  
    22   13   14 1   
    23   13   15 1   
    24   13   42 1   
    25   14   29 1   
    26   15   16 1   
    27   15   43 1   
    28   15   44 1   
    29   16   17 1   
    30   16   18 1   
    31   16   21 1   
    32   17   45 1   
    33   18   19 2   
    34   18   20 1   
    35   20   46 1   
    36   20   47 1   
    37   20   48 1   
    38   21   22 1   
    39   21   49 1   
    40   21   50 1   
    41   22   23 ar  
    42   23   24 ar  
    43   23   51 1   
    44   24   25 1   
    45   25   26 2   
    46   25   27 1   
    47   28   52 1   
    48   28   53 1   
    49   28   54 1   
    50   29   30 1   
    51   29   36 1   
    52   29   55 1   
    53   30   31 1   
    54   30   56 1   
    55   30   57 1   
    56   31   32 1   
    57   31   33 1   
    58   31   58 1   
    59   32   59 1   
    60   32   60 1   
    61   32   67 1   
    62   33   34 1   
    63   33   35 1   
    64   33   61 1   
    65   34   62 1   
    66   35   36 1   
    67   35   37 1   
    68   35   63 1   
    69   37   64 1   
    70   37   65 1   
    71   37   66 1   
@<TRIPOS>SUBSTRUCTURE
     1 DM3         1 TEMP              0 ****  ****    0 ROOT
