@<TRIPOS>MOLECULE
DM3
   66    70     1     0     0
SMALL
bcc


@<TRIPOS>ATOM
      1 C1         -0.8000   -0.4750    5.9080 ca        1 DM3     -0.123000
      2 C2         -0.1960    0.2920    6.9050 ca        1 DM3     -0.077000
      3 C3          0.8020    1.2040    6.5850 ca        1 DM3     -0.196000
      4 C4          1.2120    1.3460    5.2470 ca        1 DM3      0.173100
      5 O4          2.1740    2.2370    4.8360 os        1 DM3     -0.294900
      6 C5          0.6170    0.5700    4.2270 ca        1 DM3     -0.161600
      7 C6          1.0690    0.6880    2.8280 c         1 DM3      0.606300
      8 O6          2.1710    1.1810    2.5390 o         1 DM3     -0.537100
      9 C7          0.1490    0.1890    1.7860 ca        1 DM3     -0.223600
     10 C8          0.2880    0.5620    0.4340 ca        1 DM3      0.201100
     11 O8          1.2640    1.3870   -0.0530 oh        1 DM3     -0.509100
     12 C9         -0.6160    0.0790   -0.5440 ca        1 DM3     -0.140300
     13 C10        -0.4950    0.4750   -1.9870 c3        1 DM3      0.199400
     14 O10         0.1650   -0.5690   -2.7190 os        1 DM3     -0.436600
     15 C11        -1.8520    0.6890   -2.6580 c3        1 DM3     -0.071400
     16 C12        -2.9840   -0.2390   -2.2050 c3        1 DM3      0.076800
     17 O12        -3.4400   -0.8750   -3.3990 oh        1 DM3     -0.589800
     18 C13        -4.1570    0.5230   -1.5740 c         1 DM3      0.542100
     19 O13        -5.3100    0.1600   -1.8320 o         1 DM3     -0.534100
     20 C14        -3.8640    1.6600   -0.6560 c3        1 DM3     -0.199100
     21 C15        -2.5280   -1.3320   -1.2230 c3        1 DM3     -0.071100
     22 C16        -1.6260   -0.8050   -0.1700 ca        1 DM3     -0.008300
     23 C17        -1.7580   -1.1990    1.1680 ca        1 DM3     -0.124000
     24 C18        -0.8860   -0.7010    2.1330 ca        1 DM3     -0.086600
     25 C19        -1.0750   -1.1370    3.5360 c         1 DM3      0.581300
     26 O19        -1.7830   -2.1110    3.8250 o         1 DM3     -0.511100
     27 C20        -0.4030   -0.3300    4.5780 ca        1 DM3     -0.096600
     28 C21         2.8410    2.9730    5.8570 c3        1 DM3      0.107700
     29 C1'         1.5730   -0.4150   -2.8070 c3        1 DM3      0.317900
     30 C2'         2.1820   -1.7730   -3.1400 c3        1 DM3     -0.095400
     31 C3'         1.8150   -2.2280   -4.5580 c3        1 DM3      0.137500
     32 N3'         2.4490   -3.4880   -4.8940 n3        1 DM3     -0.890800
     33 C4'         2.1240   -1.0770   -5.5540 c3        1 DM3      0.071100
     34 O4'         3.5200   -0.8720   -5.6640 oh        1 DM3     -0.598800
     35 C5'         1.3790    0.1900   -5.1140 c3        1 DM3      0.111100
     36 O5'         1.7950    0.5710   -3.7960 os        1 DM3     -0.445600
     37 C6'         1.6830    1.3690   -6.0160 c3        1 DM3     -0.091100
     38 H1         -1.5900   -1.2020    6.1590 ha        1 DM3      0.163000
     39 H2         -0.5130    0.1730    7.9530 ha        1 DM3      0.144000
     40 H3          1.2670    1.8060    7.3780 ha        1 DM3      0.147000
     41 HO8         1.8310    1.7120    0.6660 ho        1 DM3      0.464000
     42 H10         0.1030    1.4300   -2.0760 h1        1 DM3      0.084700
     43 H111       -1.7100    0.5420   -3.7660 hc        1 DM3      0.075700
     44 H112       -2.1530    1.7550   -2.4920 hc        1 DM3      0.075700
     45 HO12       -4.2940   -1.2860   -3.2050 ho        1 DM3      0.421000
     46 H141       -4.6590    1.7400    0.1260 hc        1 DM3      0.071033
     47 H142       -2.8710    1.5250   -0.1630 hc        1 DM3      0.071033
     48 H143       -3.8530    2.6140   -1.2420 hc        1 DM3      0.071033
     49 H151       -1.9650   -2.1040   -1.8210 hc        1 DM3      0.084200
     50 H152       -3.4270   -1.8310   -0.7760 hc        1 DM3      0.084200
     51 H17        -2.5460   -1.9110    1.4640 ha        1 DM3      0.165000
     52 H211        3.5910    3.5760    5.2840 h1        1 DM3      0.050367
     53 H212        2.1240    3.6410    6.3930 h1        1 DM3      0.050367
     54 H213        3.3520    2.2850    6.5730 h1        1 DM3      0.050367
     55 H1'         2.0110    0.0260   -1.8650 h2        1 DM3      0.095700
     56 H2'1        3.2950   -1.6820   -3.0360 hc        1 DM3      0.068700
     57 H2'2        1.8170   -2.5270   -2.3960 hc        1 DM3      0.068700
     58 H3'         0.6960   -2.3940   -4.5840 h1        1 DM3      0.079700
     59 HN'1        2.1590   -3.7770   -5.8080 hn        1 DM3      0.350800
     60 HN'2        3.4460   -3.3800   -4.8960 hn        1 DM3      0.350800
     61 H4'         1.8000   -1.3620   -6.5940 h1        1 DM3      0.076700
     62 HO4'        3.7990   -0.3960   -4.8700 ho        1 DM3      0.410000
     63 H5'         0.2730   -0.0240   -5.0940 h1        1 DM3      0.063700
     64 H6'1        1.2410    2.3010   -5.5900 hc        1 DM3      0.049033
     65 H6'2        2.7870    1.5060   -6.1120 hc        1 DM3      0.049033
     66 H6'3        1.2500    1.1800   -7.0260 hc        1 DM3      0.049033
@<TRIPOS>BOND
     1    1    2 ar  
     2    1   27 ar  
     3    1   38 1   
     4    2    3 ar  
     5    2   39 1   
     6    3    4 ar  
     7    3   40 1   
     8    4    5 1   
     9    4    6 ar  
    10    5   28 1   
    11    6    7 1   
    12    6   27 ar  
    13    7    8 2   
    14    7    9 1   
    15    9   10 ar  
    16    9   24 ar  
    17   10   11 1   
    18   10   12 ar  
    19   11   41 1   
    20   12   13 1   
    21   12   22 ar  
    22   13   14 1   
    23   13   15 1   
    24   13   42 1   
    25   14   29 1   
    26   15   16 1   
    27   15   43 1   
    28   15   44 1   
    29   16   17 1   
    30   16   18 1   
    31   16   21 1   
    32   17   45 1   
    33   18   19 2   
    34   18   20 1   
    35   20   46 1   
    36   20   47 1   
    37   20   48 1   
    38   21   22 1   
    39   21   49 1   
    40   21   50 1   
    41   22   23 ar  
    42   23   24 ar  
    43   23   51 1   
    44   24   25 1   
    45   25   26 2   
    46   25   27 1   
    47   28   52 1   
    48   28   53 1   
    49   28   54 1   
    50   29   30 1   
    51   29   36 1   
    52   29   55 1   
    53   30   31 1   
    54   30   56 1   
    55   30   57 1   
    56   31   32 1   
    57   31   33 1   
    58   31   58 1   
    59   32   59 1   
    60   32   60 1   
    61   33   34 1   
    62   33   35 1   
    63   33   61 1   
    64   34   62 1   
    65   35   36 1   
    66   35   37 1   
    67   35   63 1   
    68   37   64 1   
    69   37   65 1   
    70   37   66 1   
@<TRIPOS>SUBSTRUCTURE
     1 DM3         1 TEMP              0 ****  ****    0 ROOT
