@<TRIPOS>MOLECULE
DM4
   65    69     1     0     0
SMALL
bcc


@<TRIPOS>ATOM
      1 C1         -0.0220    0.8350    0.9510 ca        1 DM4     -0.111000
      2 C2          1.3470    0.5400    1.0170 ca        1 DM4     -0.051000
      3 C3          1.9650    0.3600    2.2430 ca        1 DM4     -0.198000
      4 C4          1.2100    0.4780    3.4290 ca        1 DM4      0.188100
      5 O4          1.7750    0.3100    4.6640 oh        1 DM4     -0.475100
      6 C5         -0.1680    0.7670    3.3800 ca        1 DM4     -0.189600
      7 C6         -0.9600    0.8810    4.6040 c         1 DM4      0.637300
      8 O6         -0.4690    1.0670    5.7370 o         1 DM4     -0.629100
      9 C7         -2.4260    0.8150    4.4550 ca        1 DM4     -0.221600
     10 C8         -3.2330    0.5690    5.5800 ca        1 DM4      0.151100
     11 O8         -2.6640    0.2230    6.7910 oh        1 DM4     -0.552100
     12 C9         -4.6310    0.7350    5.5280 ca        1 DM4     -0.108300
     13 C10        -5.4550    0.6920    6.7810 c3        1 DM4      0.212400
     14 O10        -5.4690    2.0460    7.2860 os        1 DM4     -0.456600
     15 C11        -6.9010    0.2460    6.5960 c3        1 DM4     -0.091400
     16 C12        -7.4400    0.2180    5.1590 c3        1 DM4      0.073800
     17 O12        -8.7940    0.6540    5.2810 oh        1 DM4     -0.581800
     18 C13        -7.4260   -1.2250    4.6430 c         1 DM4      0.497100
     19 O13        -6.5130   -1.6740    3.9480 o         1 DM4     -0.508100
     20 C14        -8.6080   -2.0750    5.0470 c3        1 DM4      0.040400
     21 O14        -8.2700   -3.4380    5.1320 oh        1 DM4     -0.575800
     22 C15        -6.6970    1.1650    4.2120 c3        1 DM4     -0.071100
     23 C16        -5.2230    1.0120    4.2920 ca        1 DM4      0.019700
     24 C17        -4.4330    1.1510    3.1400 ca        1 DM4     -0.091000
     25 C18        -3.0440    1.0690    3.2200 ca        1 DM4     -0.079600
     26 C19        -2.2200    1.2520    2.0010 c         1 DM4      0.576300
     27 O19        -2.7220    1.6330    0.9380 o         1 DM4     -0.484100
     28 C20        -0.7750    0.9420    2.1170 ca        1 DM4     -0.090600
     29 C1'        -5.1150    2.2010    8.6510 c3        1 DM4      0.344900
     30 C2'        -3.6220    1.9510    8.9020 c3        1 DM4     -0.164400
     31 C3'        -2.8470    2.8730    7.9580 c3        1 DM4      0.086500
     32 N3'        -1.3780    2.6110    7.9960 nz        1 DM4     -0.824600
     33 C4'        -3.2000    4.3420    8.3070 c3        1 DM4      0.098100
     34 O4'        -2.7170    4.6310    9.6000 oh        1 DM4     -0.602800
     35 C5'        -4.7240    4.5080    8.1280 c3        1 DM4      0.118100
     36 O5'        -5.4420    3.5490    8.9160 os        1 DM4     -0.393600
     37 C6'        -5.1950    5.8720    8.5880 c3        1 DM4     -0.099100
     38 H1         -0.5110    0.9870   -0.0270 ha        1 DM4      0.175000
     39 H2          1.9300    0.4520    0.0850 ha        1 DM4      0.162000
     40 H3          3.0400    0.1270    2.3010 ha        1 DM4      0.156000
     41 HO4         2.7110    0.0810    4.5430 ho        1 DM4      0.436000
     42 HO8        -1.9110   -0.3660    6.6060 ho        1 DM4      0.455000
     43 H10        -4.9560    0.0080    7.5270 h1        1 DM4      0.070700
     44 H111       -7.5630    0.9400    7.1900 hc        1 DM4      0.088200
     45 H112       -7.0150   -0.7810    7.0380 hc        1 DM4      0.088200
     46 HO12       -9.1650    0.7030    4.3910 ho        1 DM4      0.414000
     47 H141       -8.9710   -1.7920    6.0730 h1        1 DM4      0.081700
     48 H142       -9.4350   -1.9090    4.3030 h1        1 DM4      0.081700
     49 HO14       -7.8650   -3.6950    4.2910 ho        1 DM4      0.419000
     50 H151       -6.9710    2.2210    4.4900 hc        1 DM4      0.085700
     51 H152       -7.0490    0.9820    3.1610 hc        1 DM4      0.085700
     52 H17        -4.9070    1.3380    2.1600 ha        1 DM4      0.179000
     53 H1'        -5.7690    1.5880    9.3310 h2        1 DM4      0.108700
     54 H2'1       -3.3930    2.1970    9.9710 hc        1 DM4      0.090200
     55 H2'2       -3.3810    0.8720    8.7250 hc        1 DM4      0.090200
     56 H3'        -3.1850    2.6650    6.8940 hx        1 DM4      0.129700
     57 HN'1       -1.2010    1.6390    7.6920 hn        1 DM4      0.465800
     58 HN'2       -1.0240    2.7620    8.9440 hn        1 DM4      0.465800
     59 H4'        -2.6660    5.0560    7.6170 h1        1 DM4      0.091700
     60 HO4'       -3.4520    4.5420   10.2260 ho        1 DM4      0.440000
     61 H5'        -4.9730    4.3480    7.0410 h1        1 DM4      0.084700
     62 H6'1       -4.9290    6.0490    9.6580 hc        1 DM4      0.065367
     63 H6'2       -4.7200    6.6600    7.9570 hc        1 DM4      0.065367
     64 H6'3       -6.3060    5.9370    8.4870 hc        1 DM4      0.065367
     65 H3'3       -0.8940    3.2420    7.3520 hn        1 DM4      0.465800
@<TRIPOS>BOND
     1    1    2 ar  
     2    1   28 ar  
     3    1   38 1   
     4    2    3 ar  
     5    2   39 1   
     6    3    4 ar  
     7    3   40 1   
     8    4    5 1   
     9    4    6 ar  
    10    5   41 1   
    11    6    7 1   
    12    6   28 ar  
    13    7    8 2   
    14    7    9 1   
    15    9   10 ar  
    16    9   25 ar  
    17   10   11 1   
    18   10   12 ar  
    19   11   42 1   
    20   12   13 1   
    21   12   23 ar  
    22   13   14 1   
    23   13   15 1   
    24   13   43 1   
    25   14   29 1   
    26   15   16 1   
    27   15   44 1   
    28   15   45 1   
    29   16   17 1   
    30   16   18 1   
    31   16   22 1   
    32   17   46 1   
    33   18   19 2   
    34   18   20 1   
    35   20   21 1   
    36   20   47 1   
    37   20   48 1   
    38   21   49 1   
    39   22   23 1   
    40   22   50 1   
    41   22   51 1   
    42   23   24 ar  
    43   24   25 ar  
    44   24   52 1   
    45   25   26 1   
    46   26   27 2   
    47   26   28 1   
    48   29   30 1   
    49   29   36 1   
    50   29   53 1   
    51   30   31 1   
    52   30   54 1   
    53   30   55 1   
    54   31   32 1   
    55   31   33 1   
    56   31   56 1   
    57   32   57 1   
    58   32   58 1   
    59   32   65 1   
    60   33   34 1   
    61   33   35 1   
    62   33   59 1   
    63   34   60 1   
    64   35   36 1   
    65   35   37 1   
    66   35   61 1   
    67   37   62 1   
    68   37   63 1   
    69   37   64 1   
@<TRIPOS>SUBSTRUCTURE
     1 DM4         1 TEMP              0 ****  ****    0 ROOT
