@<TRIPOS>MOLECULE
DM4
   65    69     1     0     0
SMALL
bcc


@<TRIPOS>ATOM
      1 C1          0.0500    0.8330    1.0030 ca        1 DM4     -0.111000
      2 C2          1.4170    0.5330    1.0900 ca        1 DM4     -0.051000
      3 C3          2.0160    0.3480    2.3240 ca        1 DM4     -0.198000
      4 C4          1.2430    0.4680    3.4990 ca        1 DM4      0.188100
      5 O4          1.7880    0.2950    4.7420 oh        1 DM4     -0.475100
      6 C5         -0.1330    0.7610    3.4300 ca        1 DM4     -0.189600
      7 C6         -0.9430    0.8760    4.6410 c         1 DM4      0.637300
      8 O6         -0.4690    1.0580    5.7830 o         1 DM4     -0.629100
      9 C7         -2.4080    0.8150    4.4700 ca        1 DM4     -0.221600
     10 C8         -3.2320    0.5710    5.5820 ca        1 DM4      0.151100
     11 O8         -2.6830    0.2200    6.8010 oh        1 DM4     -0.552100
     12 C9         -4.6280    0.7410    5.5090 ca        1 DM4     -0.108300
     13 C10        -5.4710    0.7000    6.7500 c3        1 DM4      0.212400
     14 O10        -5.4880    2.0520    7.2580 os        1 DM4     -0.456600
     15 C11        -6.9170    0.2590    6.5420 c3        1 DM4     -0.091400
     16 C12        -7.4330    0.2350    5.0970 c3        1 DM4      0.073800
     17 O12        -8.7880    0.6760    5.1990 oh        1 DM4     -0.581800
     18 C13        -7.4170   -1.2070    4.5790 c         1 DM4      0.497100
     19 O13        -6.4950   -1.6580    3.8970 o         1 DM4     -0.508100
     20 C14        -8.6070   -2.0530    4.9630 c3        1 DM4      0.040400
     21 O14        -8.2750   -3.4180    5.0510 oh        1 DM4     -0.575800
     22 C15        -6.6730    1.1810    4.1630 c3        1 DM4     -0.071100
     23 C16        -5.2010    1.0230    4.2640 ca        1 DM4      0.019700
     24 C17        -4.3920    1.1610    3.1250 ca        1 DM4     -0.091000
     25 C18        -3.0050    1.0730    3.2260 ca        1 DM4     -0.079600
     26 C19        -2.1620    1.2560    2.0200 c         1 DM4      0.576300
     27 O19        -2.6470    1.6410    0.9510 o         1 DM4     -0.484100
     28 C20        -0.7210    0.9410    2.1580 ca        1 DM4     -0.090600
     29 C1'        -5.1550    2.2030    8.6280 c3        1 DM4      0.344900
     30 C2'        -3.6660    1.9470    8.9000 c3        1 DM4     -0.164400
     31 C3'        -2.8730    2.8690    7.9710 c3        1 DM4      0.086500
     32 N3'        -1.4060    2.6010    8.0310 n4        1 DM4     -0.824600
     33 C4'        -3.2270    4.3380    8.3170 c3        1 DM4      0.098100
     34 O4'        -2.7630    4.6230    9.6180 oh        1 DM4     -0.602800
     35 C5'        -4.7470    4.5100    8.1160 c3        1 DM4      0.118100
     36 O5'        -5.4800    3.5520    8.8900 os        1 DM4     -0.393600
     37 C6'        -5.2210    5.8750    8.5720 c3        1 DM4     -0.099100
     38 H1         -0.4230    0.9880    0.0180 ha        1 DM4      0.175000
     39 H2          2.0130    0.4450    0.1670 ha        1 DM4      0.162000
     40 H3          3.0880    0.1110    2.3990 ha        1 DM4      0.156000
     41 HO4         2.7250    0.0620    4.6350 ho        1 DM4      0.436000
     42 HO8        -1.9290   -0.3710    6.6270 ho        1 DM4      0.455000
     43 H10        -4.9870    0.0120    7.5020 h1        1 DM4      0.070700
     44 H111       -7.0410   -0.7680    6.9800 hc        1 DM4      0.088200
     45 H112       -7.5840    0.9550    7.1260 hc        1 DM4      0.088200
     46 HO12       -9.1450    0.7270    4.3040 ho        1 DM4      0.414000
     47 H141       -9.4220   -1.8830    4.2060 h1        1 DM4      0.081700
     48 H142       -8.9860   -1.7710    5.9840 h1        1 DM4      0.081700
     49 HO14       -7.8590   -3.6750    4.2160 ho        1 DM4      0.419000
     50 H151       -7.0100    1.0010    3.1060 hc        1 DM4      0.085700
     51 H152       -6.9470    2.2380    4.4380 hc        1 DM4      0.085700
     52 H17        -4.8510    1.3510    2.1380 ha        1 DM4      0.179000
     53 H1'        -5.8210    1.5910    9.2960 h2        1 DM4      0.108700
     54 H2'1       -3.4520    2.1910    9.9740 hc        1 DM4      0.090200
     55 H2'2       -3.4270    0.8680    8.7260 hc        1 DM4      0.090200
     56 H3'        -3.1960    2.6640    6.9010 hx        1 DM4      0.129700
     57 HN'1       -0.9100    3.2320    7.3950 hn        1 DM4      0.465800
     58 HN'2       -1.2280    1.6290    7.7270 hn        1 DM4      0.465800
     59 H4'        -2.6800    5.0510    7.6370 h1        1 DM4      0.091700
     60 HO4'       -3.5060    4.5350   10.2330 ho        1 DM4      0.440000
     61 H5'        -4.9800    4.3530    7.0250 h1        1 DM4      0.084700
     62 H6'1       -4.9700    6.0480    9.6460 hc        1 DM4      0.065367
     63 H6'2       -6.3300    5.9440    8.4540 hc        1 DM4      0.065367
     64 H6'3       -4.7320    6.6620    7.9500 hc        1 DM4      0.065367
     65 H3'3       -1.0660    2.7480    8.9840 hn        1 DM4      0.465800
@<TRIPOS>BOND
     1    1    2 ar  
     2    1   28 ar  
     3    1   38 1   
     4    2    3 ar  
     5    2   39 1   
     6    3    4 ar  
     7    3   40 1   
     8    4    5 1   
     9    4    6 ar  
    10    5   41 1   
    11    6    7 1   
    12    6   28 ar  
    13    7    8 2   
    14    7    9 1   
    15    9   10 ar  
    16    9   25 ar  
    17   10   11 1   
    18   10   12 ar  
    19   11   42 1   
    20   12   13 1   
    21   12   23 ar  
    22   13   14 1   
    23   13   15 1   
    24   13   43 1   
    25   14   29 1   
    26   15   16 1   
    27   15   44 1   
    28   15   45 1   
    29   16   17 1   
    30   16   18 1   
    31   16   22 1   
    32   17   46 1   
    33   18   19 2   
    34   18   20 1   
    35   20   21 1   
    36   20   47 1   
    37   20   48 1   
    38   21   49 1   
    39   22   23 1   
    40   22   50 1   
    41   22   51 1   
    42   23   24 ar  
    43   24   25 ar  
    44   24   52 1   
    45   25   26 1   
    46   26   27 2   
    47   26   28 1   
    48   29   30 1   
    49   29   36 1   
    50   29   53 1   
    51   30   31 1   
    52   30   54 1   
    53   30   55 1   
    54   31   32 1   
    55   31   33 1   
    56   31   56 1   
    57   32   57 1   
    58   32   58 1   
    59   32   65 1   
    60   33   34 1   
    61   33   35 1   
    62   33   59 1   
    63   34   60 1   
    64   35   36 1   
    65   35   37 1   
    66   35   61 1   
    67   37   62 1   
    68   37   63 1   
    69   37   64 1   
@<TRIPOS>SUBSTRUCTURE
     1 DM4         1 TEMP              0 ****  ****    0 ROOT
