@<TRIPOS>MOLECULE
DM4
   64    68     1     0     0
SMALL
bcc


@<TRIPOS>ATOM
      1 C1         -6.4210    0.2880   -0.6760 ca        1 DM4     -0.122000
      2 C2         -7.3160   -0.7570   -0.4070 ca        1 DM4     -0.078000
      3 C3         -6.8780   -1.8940    0.2410 ca        1 DM4     -0.154000
      4 C4         -5.5200   -2.0040    0.6360 ca        1 DM4      0.202100
      5 O4         -5.2380   -3.1800    1.2680 oh        1 DM4     -0.499100
      6 C5         -4.6030   -0.9700    0.3580 ca        1 DM4     -0.223600
      7 C6         -3.1860   -1.0650    0.7400 c         1 DM4      0.624300
      8 O6         -2.7880   -1.9880    1.4830 o         1 DM4     -0.613100
      9 C7         -2.2460   -0.0600    0.2210 ca        1 DM4     -0.228600
     10 C8         -0.8500   -0.2020    0.3560 ca        1 DM4      0.228100
     11 O8         -0.2280   -1.2190    1.0200 oh        1 DM4     -0.507100
     12 C9          0.0460    0.7640   -0.1850 ca        1 DM4     -0.120300
     13 C10         1.5260    0.5500   -0.0550 c3        1 DM4      0.209400
     14 O10         1.8510   -0.7830   -0.4760 os        1 DM4     -0.429600
     15 C11         2.3390    1.4820   -0.9490 c3        1 DM4     -0.090400
     16 C12         1.8520    2.9250   -0.8650 c3        1 DM4      0.062800
     17 O12         2.6700    3.6520   -1.7840 oh        1 DM4     -0.586800
     18 C13         2.0670    3.5290    0.5300 c         1 DM4      0.535100
     19 O13         1.1690    4.1090    1.1360 o         1 DM4     -0.477100
     20 C14         3.4730    3.3790    1.0580 c3        1 DM4      0.030400
     21 O14         3.6740    4.3470    2.0700 oh        1 DM4     -0.575800
     22 C15         0.3880    3.0060   -1.3060 c3        1 DM4     -0.072100
     23 C16        -0.4690    1.9110   -0.7790 ca        1 DM4      0.001700
     24 C17        -1.8630    2.0680   -0.8970 ca        1 DM4     -0.121000
     25 C18        -2.7330    1.0950   -0.4270 ca        1 DM4     -0.082600
     26 C19        -4.1850    1.3120   -0.6120 c         1 DM4      0.580300
     27 O19        -4.6260    2.3930   -1.0260 o         1 DM4     -0.516100
     28 C20        -5.0860    0.1810   -0.3020 ca        1 DM4     -0.091600
     29 C1'         2.5160   -1.5650    0.5020 c3        1 DM4      0.328900
     30 C2'         2.4770   -3.0220    0.0530 c3        1 DM4     -0.092400
     31 C3'         3.3720   -3.2750   -1.1660 c3        1 DM4      0.138500
     32 N3'         3.3890   -4.6760   -1.5330 n3        1 DM4     -0.890800
     33 C4'         4.7770   -2.6720   -0.8950 c3        1 DM4      0.071100
     34 O4'         5.4490   -3.3970    0.1180 oh        1 DM4     -0.595800
     35 C5'         4.6330   -1.1850   -0.5520 c3        1 DM4      0.109100
     36 O5'         3.8190   -1.0260    0.6180 os        1 DM4     -0.456600
     37 C6'         5.9660   -0.5400   -0.2360 c3        1 DM4     -0.090100
     38 H1         -6.7710    1.2030   -1.1820 ha        1 DM4      0.164000
     39 H2         -8.3700   -0.6630   -0.7120 ha        1 DM4      0.147000
     40 H3         -7.5580   -2.7280    0.4690 ha        1 DM4      0.161000
     41 HO4        -4.3160   -3.2040    1.5690 ho        1 DM4      0.462000
     42 HO8        -0.8600   -1.9140    1.2670 ho        1 DM4      0.463000
     43 H10         1.8140    0.7050    1.0250 h1        1 DM4      0.066700
     44 H111        3.4210    1.4150   -0.6580 hc        1 DM4      0.076700
     45 H112        2.2600    1.1400   -2.0160 hc        1 DM4      0.076700
     46 HO12        2.3120    4.5480   -1.8310 ho        1 DM4      0.412000
     47 H141        3.5970    2.3380    1.4650 h1        1 DM4      0.059700
     48 H142        4.2030    3.5440    0.2160 h1        1 DM4      0.059700
     49 HO14        4.5100    4.1230    2.4980 ho        1 DM4      0.406000
     50 H151       -0.0370    3.9950   -0.9780 hc        1 DM4      0.082200
     51 H152        0.3600    2.9760   -2.4310 hc        1 DM4      0.082200
     52 H17        -2.2730    2.9780   -1.3680 ha        1 DM4      0.165000
     53 H1'         2.0610   -1.4370    1.5270 h2        1 DM4      0.091700
     54 H2'1        2.8100   -3.6530    0.9180 hc        1 DM4      0.070700
     55 H2'2        1.4160   -3.2880   -0.1930 hc        1 DM4      0.070700
     56 H3'         2.9310   -2.7020   -2.0370 h1        1 DM4      0.077700
     57 HN'1        3.9490   -4.8040   -2.3530 hn        1 DM4      0.351800
     58 HN'2        3.7830   -5.2220   -0.7890 hn        1 DM4      0.351800
     59 H4'         5.4340   -2.7870   -1.8020 h1        1 DM4      0.078700
     60 HO4'        5.0500   -3.1400    0.9610 ho        1 DM4      0.410000
     61 H5'         4.1280   -0.6590   -1.4120 h1        1 DM4      0.061700
     62 H6'1        6.4890   -1.1100    0.5700 hc        1 DM4      0.048367
     63 H6'2        6.6020   -0.5390   -1.1520 hc        1 DM4      0.048367
     64 H6'3        5.8110    0.5100    0.1080 hc        1 DM4      0.048367
@<TRIPOS>BOND
     1    1    2 ar  
     2    1   28 ar  
     3    1   38 1   
     4    2    3 ar  
     5    2   39 1   
     6    3    4 ar  
     7    3   40 1   
     8    4    5 1   
     9    4    6 ar  
    10    5   41 1   
    11    6    7 1   
    12    6   28 ar  
    13    7    8 2   
    14    7    9 1   
    15    9   10 ar  
    16    9   25 ar  
    17   10   11 1   
    18   10   12 ar  
    19   11   42 1   
    20   12   13 1   
    21   12   23 ar  
    22   13   14 1   
    23   13   15 1   
    24   13   43 1   
    25   14   29 1   
    26   15   16 1   
    27   15   44 1   
    28   15   45 1   
    29   16   17 1   
    30   16   18 1   
    31   16   22 1   
    32   17   46 1   
    33   18   19 2   
    34   18   20 1   
    35   20   21 1   
    36   20   47 1   
    37   20   48 1   
    38   21   49 1   
    39   22   23 1   
    40   22   50 1   
    41   22   51 1   
    42   23   24 ar  
    43   24   25 ar  
    44   24   52 1   
    45   25   26 1   
    46   26   27 2   
    47   26   28 1   
    48   29   30 1   
    49   29   36 1   
    50   29   53 1   
    51   30   31 1   
    52   30   54 1   
    53   30   55 1   
    54   31   32 1   
    55   31   33 1   
    56   31   56 1   
    57   32   57 1   
    58   32   58 1   
    59   33   34 1   
    60   33   35 1   
    61   33   59 1   
    62   34   60 1   
    63   35   36 1   
    64   35   37 1   
    65   35   61 1   
    66   37   62 1   
    67   37   63 1   
    68   37   64 1   
@<TRIPOS>SUBSTRUCTURE
     1 DM4         1 TEMP              0 ****  ****    0 ROOT
