@<TRIPOS>MOLECULE
DM4
   64    64     1     0     0
SMALL
bcc


@<TRIPOS>ATOM
      1 C1          3.7500   -0.4940   -5.6760 c1        1 DM4     -0.123000
      2 C2          5.1470   -0.4540   -5.6930 c1        1 DM4     -0.139500
      3 C3          5.8580   -0.4080   -4.5010 c1        1 DM4     -0.139500
      4 C4          5.1800   -0.4020   -3.2880 c1        1 DM4      0.127000
      5 O4          5.9930   -0.4100   -2.0790 oh        1 DM4     -0.215000
      6 C5          3.7720   -0.4420   -3.2670 c1        1 DM4     -0.139000
      7 C6          3.0150   -0.3510   -1.9160 c1        1 DM4      0.327000
      8 O6          3.6490   -0.3150   -0.8540 o         1 DM4     -0.298000
      9 C7          1.4790   -0.3850   -1.8950 c2        1 DM4     -0.204000
     10 C8          0.7760   -0.3180   -0.6470 c1        1 DM4      0.171000
     11 O8          1.5750   -0.1010    0.4530 o         1 DM4     -0.257000
     12 C9         -0.6160   -0.3910   -0.6260 c2        1 DM4     -0.084000
     13 C10        -1.4200   -0.4030    0.7160 c3        1 DM4      0.089000
     14 O10        -1.0270    0.8110    1.4970 os        1 DM4     -0.303000
     15 C11        -2.8680   -0.4170    0.6160 c3        1 DM4     -0.157000
     16 C12        -3.4800   -1.2370   -0.4880 c3        1 DM4      0.049000
     17 O12        -4.8490   -1.1280   -0.4600 oh        1 DM4     -0.312000
     18 C13        -3.3000   -2.8090   -0.1990 c2        1 DM4      0.175000
     19 O13        -2.2500   -3.2290    0.2300 o         1 DM4     -0.268000
     20 C14        -4.4960   -3.7620   -0.3730 c3        1 DM4     -0.071000
     21 O14        -4.0460   -4.9940   -0.8430 oh        1 DM4     -0.312000
     22 C15        -2.9300   -0.9080   -1.8190 c3        1 DM4     -0.152000
     23 C16        -1.3680   -0.5380   -1.8970 c2        1 DM4     -0.020000
     24 C17        -0.6890   -0.6020   -3.0930 c2        1 DM4     -0.122000
     25 C18         0.7600   -0.5250   -3.1090 c2        1 DM4     -0.072000
     26 C19         1.5030   -0.5090   -4.4350 c2        1 DM4      0.303000
     27 O19         0.8830   -0.5580   -5.4800 o         1 DM4     -0.278000
     28 C20         3.0650   -0.4880   -4.4550 c2        1 DM4     -0.073000
     29 C1'        -0.3040    0.4340    2.5980 c3        1 DM4      0.154000
     30 C2'         0.9430    1.2840    2.6750 c3        1 DM4     -0.172000
     31 C3'         0.6420    2.6960    3.0030 c3        1 DM4     -0.068000
     32 N3'         1.8970    3.4020    3.2340 n3        1 DM4     -0.356000
     33 C4'        -0.2180    2.8230    4.2200 c3        1 DM4      0.014000
     34 O4'         0.5560    2.4310    5.3870 oh        1 DM4     -0.319000
     35 C5'        -1.4680    1.9540    4.1390 c3        1 DM4      0.037000
     36 O5'        -1.1650    0.5690    3.8110 os        1 DM4     -0.287000
     37 C6'        -2.1630    1.9930    5.4550 c3        1 DM4     -0.205000
     38 H1          3.2550   -0.5260   -6.5090 ha        1 DM4      0.163000
     39 H2          5.6330   -0.4580   -6.5590 ha        1 DM4      0.144000
     40 H3          6.8450   -0.3800   -4.5150 ha        1 DM4      0.144000
     41 HO4         6.6100    0.2380   -2.1290 ho        1 DM4      0.221000
     42 HO8         2.3860   -0.3930    0.2870 ho        1 DM4      0.261000
     43 H10        -1.1490   -1.1810    1.2160 h1        1 DM4      0.135000
     44 H111       -3.2280   -0.7520    1.4770 hc        1 DM4      0.117000
     45 H112       -3.1700    0.5130    0.5020 hc        1 DM4      0.117000
     46 HO12       -5.1410   -0.8820   -1.2580 ho        1 DM4      0.202000
     47 H141       -5.1240   -3.3810   -1.0110 h1        1 DM4      0.109000
     48 H142       -4.9310   -3.8840    0.4700 h1        1 DM4      0.109000
     49 HO14       -4.7500   -5.5630   -0.9250 ho        1 DM4      0.222000
     50 H151       -3.4390   -0.1420   -2.1760 hc        1 DM4      0.110500
     51 H152       -3.0870   -1.6800   -2.4100 hc        1 DM4      0.110500
     52 H17        -1.1750   -0.7520   -3.9180 ha        1 DM4      0.159000
     53 H1'        -0.0380   -0.5160    2.4980 h2        1 DM4      0.135000
     54 H2'1        1.4060    1.2500    1.8040 hc        1 DM4      0.109500
     55 H2'2        1.5480    0.9100    3.3780 hc        1 DM4      0.109500
     56 H3'         0.1770    3.1110    2.2360 h1        1 DM4      0.079000
     57 HN'1        1.7770    4.3010    3.0710 hn        1 DM4      0.151500
     58 HN'2        2.5360    3.0750    2.6750 hn        1 DM4      0.151500
     59 H4'        -0.4940    3.7710    4.3220 h1        1 DM4      0.075000
     60 HO4'        0.8000    3.1720    5.8510 ho        1 DM4      0.216000
     61 H5'        -2.0650    2.3190    3.4540 h1        1 DM4      0.082000
     62 H6'1       -1.6960    2.6100    6.0490 hc        1 DM4      0.089000
     63 H6'2       -2.1640    1.0970    5.8510 hc        1 DM4      0.089000
     64 H6'3       -3.1040    2.3010    5.3270 hc        1 DM4      0.089000
@<TRIPOS>BOND
     1    1   28 1   
     2    1   38 1   
     3    2    3 1   
     4    2   39 1   
     5    3   40 1   
     6    4    5 1   
     7    4    6 1   
     8    5   41 1   
     9    6   28 1   
    10    7    8 1   
    11    7    9 1   
    12    9   10 1   
    13    9   25 1   
    14   10   12 1   
    15   11   42 1   
    16   12   13 1   
    17   12   23 1   
    18   13   14 1   
    19   13   15 1   
    20   13   43 1   
    21   14   29 1   
    22   15   16 1   
    23   15   44 1   
    24   15   45 1   
    25   16   17 1   
    26   16   18 1   
    27   16   22 1   
    28   17   46 1   
    29   18   19 1   
    30   18   20 1   
    31   20   21 1   
    32   20   47 1   
    33   20   48 1   
    34   21   49 1   
    35   22   23 1   
    36   22   50 1   
    37   22   51 1   
    38   23   24 1   
    39   24   25 1   
    40   24   52 1   
    41   25   26 1   
    42   26   27 1   
    43   26   28 1   
    44   29   30 1   
    45   29   36 1   
    46   29   53 1   
    47   30   31 1   
    48   30   54 1   
    49   30   55 1   
    50   31   32 1   
    51   31   33 1   
    52   31   56 1   
    53   32   57 1   
    54   32   58 1   
    55   33   34 1   
    56   33   35 1   
    57   33   59 1   
    58   34   60 1   
    59   35   36 1   
    60   35   37 1   
    61   35   61 1   
    62   37   62 1   
    63   37   63 1   
    64   37   64 1   
@<TRIPOS>SUBSTRUCTURE
     1 DM4         1 TEMP              0 ****  ****    0 ROOT
