@<TRIPOS>MOLECULE
DM4
   65    69     1     0     0
SMALL
bcc


@<TRIPOS>ATOM
      1 C1         -0.1580    0.7360    0.8990 ca        1 DM4     -0.111000
      2 C2          1.2300    0.5560    0.9840 ca        1 DM4     -0.051000
      3 C3          1.8520    0.4920    2.2200 ca        1 DM4     -0.198000
      4 C4          1.0800    0.6120    3.3950 ca        1 DM4      0.187100
      5 O4          1.6500    0.5610    4.6390 oh        1 DM4     -0.476100
      6 C5         -0.3170    0.7860    3.3280 ca        1 DM4     -0.188600
      7 C6         -1.1180    0.9000    4.5460 c         1 DM4      0.640300
      8 O6         -0.6300    1.1110    5.6770 o         1 DM4     -0.632100
      9 C7         -2.5820    0.7950    4.3970 ca        1 DM4     -0.216600
     10 C8         -3.3870    0.6350    5.5380 ca        1 DM4      0.159100
     11 O8         -2.8110    0.3690    6.7650 oh        1 DM4     -0.548100
     12 C9         -4.7900    0.7760    5.4800 ca        1 DM4     -0.086300
     13 C10        -5.5840    0.8690    6.7540 c3        1 DM4      0.219400
     14 O10        -5.3140    2.1880    7.2790 os        1 DM4     -0.465600
     15 C11        -7.0980    0.7650    6.5880 c3        1 DM4     -0.121400
     16 C12        -7.5530    0.1480    5.2660 c3        1 DM4      0.067800
     17 O12        -8.9650    0.2880    5.1330 oh        1 DM4     -0.580800
     18 C13        -7.2990   -1.3630    5.2310 c         1 DM4      0.550100
     19 O13        -6.4290   -1.8840    5.9340 o         1 DM4     -0.528100
     20 C14        -8.1590   -2.1670    4.2900 c3        1 DM4      0.045400
     21 O14        -8.0950   -3.5490    4.5480 oh        1 DM4     -0.571800
     22 C15        -6.8670    0.8510    4.0880 c3        1 DM4     -0.075100
     23 C16        -5.3880    0.8550    4.2170 ca        1 DM4     -0.010300
     24 C17        -4.5960    0.9130    3.0590 ca        1 DM4     -0.100000
     25 C18        -3.2040    0.9140    3.1450 ca        1 DM4     -0.082600
     26 C19        -2.3890    1.0290    1.9130 c         1 DM4      0.576300
     27 O19        -2.9130    1.2560    0.8160 o         1 DM4     -0.486100
     28 C20        -0.9260    0.8450    2.0550 ca        1 DM4     -0.090600
     29 C1'        -5.0390    2.2650    8.6670 c3        1 DM4      0.346900
     30 C2'        -3.5640    1.9540    8.9610 c3        1 DM4     -0.157400
     31 C3'        -2.7390    2.8760    8.0600 c3        1 DM4      0.086500
     32 N3'        -1.2820    2.5530    8.0960 n4        1 DM4     -0.821600
     33 C4'        -3.0370    4.3430    8.4600 c3        1 DM4      0.098100
     34 O4'        -2.5640    4.5640    9.7700 oh        1 DM4     -0.602800
     35 C5'        -4.5500    4.5790    8.2630 c3        1 DM4      0.119100
     36 O5'        -5.3270    3.6130    8.9820 os        1 DM4     -0.398600
     37 C6'        -4.9750    5.9370    8.7850 c3        1 DM4     -0.099100
     38 H1         -0.6490    0.7950   -0.0880 ha        1 DM4      0.176000
     39 H2          1.8250    0.4660    0.0600 ha        1 DM4      0.162000
     40 H3          2.9410    0.3490    2.2940 ha        1 DM4      0.156000
     41 HO4         2.6010    0.3920    4.5310 ho        1 DM4      0.435000
     42 HO8        -2.0730   -0.2470    6.6110 ho        1 DM4      0.451000
     43 H10        -5.2140    0.0760    7.4640 h1        1 DM4      0.083700
     44 H111       -7.5400    1.7950    6.6720 hc        1 DM4      0.079200
     45 H112       -7.5130    0.1490    7.4290 hc        1 DM4      0.079200
     46 HO12       -9.1750    1.2270    5.2200 ho        1 DM4      0.419000
     47 H141       -9.2430   -1.8900    4.4220 h1        1 DM4      0.087700
     48 H142       -7.8400   -1.9460    3.2340 h1        1 DM4      0.087700
     49 HO14       -7.1650   -3.7900    4.6650 ho        1 DM4      0.414000
     50 H151       -7.2360    1.9140    4.0410 hc        1 DM4      0.084200
     51 H152       -7.1770    0.3510    3.1310 hc        1 DM4      0.084200
     52 H17        -5.0740    0.9740    2.0650 ha        1 DM4      0.178000
     53 H1'        -5.7420    1.6450    9.2870 h2        1 DM4      0.109700
     54 H2'1       -3.3570    2.1650   10.0420 hc        1 DM4      0.089200
     55 H2'2       -3.3650    0.8710    8.7630 hc        1 DM4      0.089200
     56 H3'        -3.0720    2.7210    6.9840 hx        1 DM4      0.135700
     57 HN'1       -1.1460    1.5880    7.7550 hn        1 DM4      0.464800
     58 HN'2       -0.9270    2.6520    9.0500 hn        1 DM4      0.464800
     59 H4'        -2.4640    5.0600    7.8070 h1        1 DM4      0.090700
     60 HO4'       -3.3090    4.4770   10.3820 ho        1 DM4      0.439000
     61 H5'        -4.7800    4.4870    7.1640 h1        1 DM4      0.082700
     62 H6'1       -6.0770    6.0590    8.6540 hc        1 DM4      0.064700
     63 H6'2       -4.7370    6.0420    9.8710 hc        1 DM4      0.064700
     64 H6'3       -4.4430    6.7350    8.2150 hc        1 DM4      0.064700
     65 H3'3       -0.7700    3.1860    7.4760 hn        1 DM4      0.464800
@<TRIPOS>BOND
     1    1    2 ar  
     2    1   28 ar  
     3    1   38 1   
     4    2    3 ar  
     5    2   39 1   
     6    3    4 ar  
     7    3   40 1   
     8    4    5 1   
     9    4    6 ar  
    10    5   41 1   
    11    6    7 1   
    12    6   28 ar  
    13    7    8 2   
    14    7    9 1   
    15    9   10 ar  
    16    9   25 ar  
    17   10   11 1   
    18   10   12 ar  
    19   11   42 1   
    20   12   13 1   
    21   12   23 ar  
    22   13   14 1   
    23   13   15 1   
    24   13   43 1   
    25   14   29 1   
    26   15   16 1   
    27   15   44 1   
    28   15   45 1   
    29   16   17 1   
    30   16   18 1   
    31   16   22 1   
    32   17   46 1   
    33   18   19 2   
    34   18   20 1   
    35   20   21 1   
    36   20   47 1   
    37   20   48 1   
    38   21   49 1   
    39   22   23 1   
    40   22   50 1   
    41   22   51 1   
    42   23   24 ar  
    43   24   25 ar  
    44   24   52 1   
    45   25   26 1   
    46   26   27 2   
    47   26   28 1   
    48   29   30 1   
    49   29   36 1   
    50   29   53 1   
    51   30   31 1   
    52   30   54 1   
    53   30   55 1   
    54   31   32 1   
    55   31   33 1   
    56   31   56 1   
    57   32   57 1   
    58   32   58 1   
    59   32   65 1   
    60   33   34 1   
    61   33   35 1   
    62   33   59 1   
    63   34   60 1   
    64   35   36 1   
    65   35   37 1   
    66   35   61 1   
    67   37   62 1   
    68   37   63 1   
    69   37   64 1   
@<TRIPOS>SUBSTRUCTURE
     1 DM4         1 TEMP              0 ****  ****    0 ROOT
