@<TRIPOS>MOLECULE
DM5
   63    67     1     0     0
SMALL
bcc


@<TRIPOS>ATOM
      1 C1         -0.6330   -0.6080   -6.3460 ca        1 DM5     -0.083000
      2 C2         -1.8390   -0.4590   -7.0300 ca        1 DM5     -0.115000
      3 C3         -2.9400    0.1090   -6.3910 ca        1 DM5     -0.115000
      4 C4         -2.8380    0.5310   -5.0650 ca        1 DM5     -0.084000
      5 C5         -1.6330    0.3750   -4.3700 ca        1 DM5     -0.124600
      6 C6         -1.5390    0.8210   -2.9670 c         1 DM5      0.601300
      7 O6         -2.4360    1.5290   -2.4750 o         1 DM5     -0.563100
      8 C7         -0.3710    0.3830   -2.1840 ca        1 DM5     -0.198600
      9 C8         -0.3590    0.5110   -0.7890 ca        1 DM5      0.193100
     10 O8         -1.3470    1.1000   -0.0480 oh        1 DM5     -0.507100
     11 C9          0.7490    0.0600   -0.0120 ca        1 DM5     -0.083300
     12 C10         0.6930    0.1680    1.4860 c3        1 DM5      0.207400
     13 O10        -0.5590   -0.3520    1.9510 os        1 DM5     -0.428600
     14 C11         1.7760   -0.6570    2.1760 c3        1 DM5     -0.089400
     15 C12         3.1450   -0.4370    1.5420 c3        1 DM5      0.062800
     16 O12         4.0330   -1.3060    2.2510 oh        1 DM5     -0.586800
     17 C13         3.6510    0.9990    1.7480 c         1 DM5      0.542100
     18 O13         4.1250    1.6550    0.8180 o         1 DM5     -0.517100
     19 C14         3.5800    1.5170    3.1460 c3        1 DM5     -0.202100
     20 C15         3.1100   -0.8320    0.0640 c3        1 DM5     -0.065100
     21 C16         1.8750   -0.4200   -0.6510 ca        1 DM5     -0.031300
     22 C17         1.8790   -0.5340   -2.0780 ca        1 DM5      0.169100
     23 O17         3.0420   -1.0620   -2.5700 oh        1 DM5     -0.506100
     24 C18         0.7630   -0.1730   -2.8390 ca        1 DM5     -0.185600
     25 C19         0.7570   -0.3550   -4.3020 c         1 DM5      0.602300
     26 O19         1.7860   -0.6520   -4.9370 o         1 DM5     -0.562100
     27 C20        -0.5260   -0.1950   -5.0130 ca        1 DM5     -0.125600
     28 C1'        -1.3390    0.5650    2.7020 c3        1 DM5      0.328900
     29 C2'        -2.7510    0.0010    2.8230 c3        1 DM5     -0.092400
     30 C3'        -2.8040   -1.2290    3.7370 c3        1 DM5      0.137500
     31 N3'        -4.1610   -1.7070    3.9090 n3        1 DM5     -0.890800
     32 C4'        -2.0730   -0.9020    5.0680 c3        1 DM5      0.071100
     33 O4'        -2.7980    0.0540    5.8180 oh        1 DM5     -0.596800
     34 C5'        -0.6420   -0.4430    4.7600 c3        1 DM5      0.109100
     35 O5'        -0.6700    0.7320    3.9380 os        1 DM5     -0.455600
     36 C6'         0.1200   -0.0680    6.0130 c3        1 DM5     -0.091100
     37 H1          0.2480   -1.0450   -6.8460 ha        1 DM5      0.161000
     38 H2         -1.9180   -0.7900   -8.0770 ha        1 DM5      0.143000
     39 H3         -3.8910    0.2300   -6.9310 ha        1 DM5      0.143000
     40 H4         -3.6990    0.9920   -4.5530 ha        1 DM5      0.161000
     41 HO8        -2.1620    1.1920   -0.5670 ho        1 DM5      0.459000
     42 H10         0.8000    1.2560    1.7660 h1        1 DM5      0.069700
     43 H111        1.8010   -0.3890    3.2640 hc        1 DM5      0.077200
     44 H112        1.5190   -1.7470    2.1050 hc        1 DM5      0.077200
     45 HO12        4.8670   -1.3130    1.7640 ho        1 DM5      0.411000
     46 H141        4.2270    2.4190    3.2650 hc        1 DM5      0.072700
     47 H142        2.5250    1.7970    3.3890 hc        1 DM5      0.072700
     48 H143        3.9140    0.7210    3.8580 hc        1 DM5      0.072700
     49 H151        3.9990   -0.3810   -0.4620 hc        1 DM5      0.089200
     50 H152        3.2090   -1.9510   -0.0110 hc        1 DM5      0.089200
     51 HO17        3.1040   -0.9280   -3.5300 ho        1 DM5      0.463000
     52 H1'        -1.3430    1.5940    2.2370 h2        1 DM5      0.093700
     53 H2'1       -3.4070    0.8150    3.2280 hc        1 DM5      0.069700
     54 H2'2       -3.1120   -0.2710    1.7980 hc        1 DM5      0.069700
     55 H3'        -2.2160   -2.0540    3.2330 h1        1 DM5      0.077700
     56 HN'1       -4.1600   -2.5300    4.4790 hn        1 DM5      0.351800
     57 HN'2       -4.7170   -1.0060    4.3620 hn        1 DM5      0.351800
     58 H4'        -2.0410   -1.8120    5.7310 h1        1 DM5      0.077700
     59 HO4'       -2.6480    0.9130    5.4000 ho        1 DM5      0.410000
     60 H5'        -0.1100   -1.2610    4.1970 h1        1 DM5      0.061700
     61 H6'1        1.1130    0.3630    5.7410 hc        1 DM5      0.049367
     62 H6'2       -0.4520    0.6890    6.6020 hc        1 DM5      0.049367
     63 H6'3        0.2710   -0.9780    6.6390 hc        1 DM5      0.049367
@<TRIPOS>BOND
     1    1    2 ar  
     2    1   27 ar  
     3    1   37 1   
     4    2    3 ar  
     5    2   38 1   
     6    3    4 ar  
     7    3   39 1   
     8    4    5 ar  
     9    4   40 1   
    10    5    6 1   
    11    5   27 ar  
    12    6    7 2   
    13    6    8 1   
    14    8    9 ar  
    15    8   24 ar  
    16    9   10 1   
    17    9   11 ar  
    18   10   41 1   
    19   11   12 1   
    20   11   21 ar  
    21   12   13 1   
    22   12   14 1   
    23   12   42 1   
    24   13   28 1   
    25   14   15 1   
    26   14   43 1   
    27   14   44 1   
    28   15   16 1   
    29   15   17 1   
    30   15   20 1   
    31   16   45 1   
    32   17   18 2   
    33   17   19 1   
    34   19   46 1   
    35   19   47 1   
    36   19   48 1   
    37   20   21 1   
    38   20   49 1   
    39   20   50 1   
    40   21   22 ar  
    41   22   23 1   
    42   22   24 ar  
    43   23   51 1   
    44   24   25 1   
    45   25   26 2   
    46   25   27 1   
    47   28   29 1   
    48   28   35 1   
    49   28   52 1   
    50   29   30 1   
    51   29   53 1   
    52   29   54 1   
    53   30   31 1   
    54   30   32 1   
    55   30   55 1   
    56   31   56 1   
    57   31   57 1   
    58   32   33 1   
    59   32   34 1   
    60   32   58 1   
    61   33   59 1   
    62   34   35 1   
    63   34   36 1   
    64   34   60 1   
    65   36   61 1   
    66   36   62 1   
    67   36   63 1   
@<TRIPOS>SUBSTRUCTURE
     1 DM5         1 TEMP              0 ****  ****    0 ROOT
