@<TRIPOS>MOLECULE
DM5
   64    68     1     0     0
SMALL
bcc


@<TRIPOS>ATOM
      1 C1         -0.0800   -0.1520    0.1970 ca        1 DM5     -0.077000
      2 C2          1.2460   -0.5890    0.2260 ca        1 DM5     -0.104000
      3 C3          1.9300   -0.6680    1.4370 ca        1 DM5     -0.109000
      4 C4          1.2910   -0.3100    2.6260 ca        1 DM5     -0.079000
      5 C5         -0.0410    0.1180    2.6060 ca        1 DM5     -0.135600
      6 C6         -0.7060    0.4890    3.8640 c         1 DM5      0.603300
      7 O6         -0.0550    0.6570    4.9120 o         1 DM5     -0.573100
      8 C7         -2.1750    0.6520    3.8430 ca        1 DM5     -0.178600
      9 C8         -2.8890    0.7280    5.0440 ca        1 DM5      0.161100
     10 O8         -2.3110    0.6170    6.2860 oh        1 DM5     -0.533100
     11 C9         -4.2940    0.9530    5.0610 ca        1 DM5     -0.078300
     12 C10        -5.0070    1.0640    6.3780 c3        1 DM5      0.210400
     13 O10        -4.3290    2.0500    7.1850 os        1 DM5     -0.454600
     14 C11        -6.4440    1.5600    6.2660 c3        1 DM5     -0.075400
     15 C12        -7.1950    0.9330    5.0940 c3        1 DM5      0.063800
     16 O12        -8.4500    1.6120    5.0720 oh        1 DM5     -0.584800
     17 C13        -7.4360   -0.5690    5.2960 c         1 DM5      0.554100
     18 O13        -6.6980   -1.2470    6.0150 o         1 DM5     -0.523100
     19 C14        -8.6140   -1.1470    4.5860 c3        1 DM5     -0.209100
     20 C15        -6.4530    1.1900    3.7790 c3        1 DM5     -0.066100
     21 C16        -4.9800    1.0160    3.8620 ca        1 DM5     -0.043300
     22 C17        -4.2600    0.9180    2.6300 ca        1 DM5      0.176100
     23 O17        -5.0660    1.0200    1.5310 oh        1 DM5     -0.501100
     24 C18        -2.8710    0.7440    2.6120 ca        1 DM5     -0.184600
     25 C19        -2.1300    0.6570    1.3370 c         1 DM5      0.598300
     26 O19        -2.6620    0.9480    0.2520 o         1 DM5     -0.546100
     27 C20        -0.7300    0.1980    1.3850 ca        1 DM5     -0.127600
     28 C1'        -3.7580    1.5730    8.3810 c3        1 DM5      0.349900
     29 C2'        -2.5150    2.4280    8.6740 c3        1 DM5     -0.137400
     30 C3'        -2.9420    3.8820    8.8600 c3        1 DM5      0.086500
     31 N3'        -1.7670    4.7450    9.2280 nz        1 DM5     -0.835600
     32 C4'        -4.0360    3.9760    9.9610 c3        1 DM5      0.096100
     33 O4'        -3.4480    3.6410   11.2000 oh        1 DM5     -0.611800
     34 C5'        -5.2110    3.0670    9.5520 c3        1 DM5      0.119100
     35 O5'        -4.7430    1.7270    9.3880 os        1 DM5     -0.428600
     36 C6'        -6.2860    3.0310   10.6180 c3        1 DM5     -0.098100
     37 H1         -0.6250   -0.0760   -0.7590 ha        1 DM5      0.167000
     38 H2          1.7500   -0.8680   -0.7130 ha        1 DM5      0.154000
     39 H3          2.9770   -1.0100    1.4610 ha        1 DM5      0.152000
     40 H4          1.8270   -0.3600    3.5880 ha        1 DM5      0.159000
     41 HO8        -1.4720    0.1300    6.2130 ho        1 DM5      0.456000
     42 H10        -4.9850    0.0510    6.8790 h1        1 DM5      0.103700
     43 H111       -6.4510    2.6750    6.1360 hc        1 DM5      0.074700
     44 H112       -6.9830    1.3250    7.2210 hc        1 DM5      0.074700
     45 HO12       -8.9000    1.3650    4.2540 ho        1 DM5      0.414000
     46 H141       -9.5530   -0.7600    5.0590 hc        1 DM5      0.076367
     47 H142       -8.6060   -0.8540    3.5080 hc        1 DM5      0.076367
     48 H143       -8.6100   -2.2630    4.6600 hc        1 DM5      0.076367
     49 H151       -6.6670    2.2470    3.4520 hc        1 DM5      0.087700
     50 H152       -6.8610    0.5140    2.9780 hc        1 DM5      0.087700
     51 HO17       -4.5600    0.9080    0.7090 ho        1 DM5      0.470000
     52 H1'        -3.5080    0.4750    8.3670 h2        1 DM5      0.127700
     53 H2'1       -1.8100    2.3140    7.8080 hc        1 DM5      0.092200
     54 H2'2       -2.0350    2.0310    9.6060 hc        1 DM5      0.092200
     55 H3'        -3.3660    4.2710    7.8850 hx        1 DM5      0.132700
     56 HN'1       -0.9840    4.5610    8.5950 hn        1 DM5      0.461467
     57 HN'2       -1.4900    4.5220   10.1940 hn        1 DM5      0.461467
     58 H4'        -4.3990    5.0370   10.0710 h1        1 DM5      0.091700
     59 HO4'       -3.6560    2.7130   11.3950 ho        1 DM5      0.447000
     60 H5'        -5.6310    3.4360    8.5730 h1        1 DM5      0.083700
     61 H6'1       -5.8650    2.7120   11.6010 hc        1 DM5      0.065367
     62 H6'2       -7.0810    2.3030   10.3220 hc        1 DM5      0.065367
     63 H6'3       -6.7370    4.0470   10.7250 hc        1 DM5      0.065367
     64 H3'3       -2.0290    5.7310    9.1780 hn        1 DM5      0.461467
@<TRIPOS>BOND
     1    1    2 ar  
     2    1   27 ar  
     3    1   37 1   
     4    2    3 ar  
     5    2   38 1   
     6    3    4 ar  
     7    3   39 1   
     8    4    5 ar  
     9    4   40 1   
    10    5    6 1   
    11    5   27 ar  
    12    6    7 2   
    13    6    8 1   
    14    8    9 ar  
    15    8   24 ar  
    16    9   10 1   
    17    9   11 ar  
    18   10   41 1   
    19   11   12 1   
    20   11   21 ar  
    21   12   13 1   
    22   12   14 1   
    23   12   42 1   
    24   13   28 1   
    25   14   15 1   
    26   14   43 1   
    27   14   44 1   
    28   15   16 1   
    29   15   17 1   
    30   15   20 1   
    31   16   45 1   
    32   17   18 2   
    33   17   19 1   
    34   19   46 1   
    35   19   47 1   
    36   19   48 1   
    37   20   21 1   
    38   20   49 1   
    39   20   50 1   
    40   21   22 ar  
    41   22   23 1   
    42   22   24 ar  
    43   23   51 1   
    44   24   25 1   
    45   25   26 2   
    46   25   27 1   
    47   28   29 1   
    48   28   35 1   
    49   28   52 1   
    50   29   30 1   
    51   29   53 1   
    52   29   54 1   
    53   30   31 1   
    54   30   32 1   
    55   30   55 1   
    56   31   56 1   
    57   31   57 1   
    58   31   64 1   
    59   32   33 1   
    60   32   34 1   
    61   32   58 1   
    62   33   59 1   
    63   34   35 1   
    64   34   36 1   
    65   34   60 1   
    66   36   61 1   
    67   36   62 1   
    68   36   63 1   
@<TRIPOS>SUBSTRUCTURE
     1 DM5         1 TEMP              0 ****  ****    0 ROOT
