@<TRIPOS>MOLECULE
DM5
   64    68     1     0     0
SMALL
bcc


@<TRIPOS>ATOM
      1 C1         -0.0760   -0.2480    0.2230 ca        1 DM5     -0.077000
      2 C2          1.2550   -0.6700    0.2590 ca        1 DM5     -0.104000
      3 C3          1.9410   -0.7200    1.4700 ca        1 DM5     -0.109000
      4 C4          1.3000   -0.3460    2.6530 ca        1 DM5     -0.079000
      5 C5         -0.0360    0.0680    2.6260 ca        1 DM5     -0.135600
      6 C6         -0.7040    0.4560    3.8780 c         1 DM5      0.603300
      7 O6         -0.0530    0.6500    4.9220 o         1 DM5     -0.573100
      8 C7         -2.1740    0.6020    3.8570 ca        1 DM5     -0.178600
      9 C8         -2.8880    0.6930    5.0570 ca        1 DM5      0.161100
     10 O8         -2.3070    0.6110    6.3010 oh        1 DM5     -0.533100
     11 C9         -4.2950    0.9040    5.0720 ca        1 DM5     -0.078300
     12 C10        -5.0070    1.0310    6.3880 c3        1 DM5      0.210400
     13 O10        -4.3390    2.0390    7.1760 os        1 DM5     -0.454600
     14 C11        -6.4500    1.5100    6.2690 c3        1 DM5     -0.075400
     15 C12        -7.1960    0.8530    5.1100 c3        1 DM5      0.063800
     16 O12        -8.4580    1.5180    5.0770 oh        1 DM5     -0.584800
     17 C13        -7.4200   -0.6470    5.3390 c         1 DM5      0.554100
     18 O13        -6.6740   -1.3040    6.0700 o         1 DM5     -0.523100
     19 C14        -8.5930   -1.2510    4.6420 c3        1 DM5     -0.209100
     20 C15        -6.4570    1.0940    3.7890 c3        1 DM5     -0.066100
     21 C16        -4.9830    0.9370    3.8730 ca        1 DM5     -0.043300
     22 C17        -4.2640    0.8240    2.6420 ca        1 DM5      0.176100
     23 O17        -5.0720    0.8960    1.5420 oh        1 DM5     -0.501100
     24 C18        -2.8730    0.6640    2.6250 ca        1 DM5     -0.184600
     25 C19        -2.1320    0.5610    1.3510 c         1 DM5      0.598300
     26 O19        -2.6680    0.8270    0.2620 o         1 DM5     -0.546100
     27 C20        -0.7270    0.1170    1.4060 ca        1 DM5     -0.127600
     28 C1'        -3.7610    1.5910    8.3790 c3        1 DM5      0.349900
     29 C2'        -2.5280    2.4640    8.6540 c3        1 DM5     -0.137400
     30 C3'        -2.9710    3.9170    8.8150 c3        1 DM5      0.086500
     31 N3'        -1.8050    4.7990    9.1640 n4        1 DM5     -0.835600
     32 C4'        -4.0640    4.0190    9.9160 c3        1 DM5      0.096100
     33 O4'        -3.4700    3.7130   11.1590 oh        1 DM5     -0.611800
     34 C5'        -5.2290    3.0900    9.5240 c3        1 DM5      0.119100
     35 O5'        -4.7470    1.7530    9.3850 os        1 DM5     -0.428600
     36 C6'        -6.3020    3.0620   10.5930 c3        1 DM5     -0.098100
     37 H1         -0.6220   -0.1950   -0.7340 ha        1 DM5      0.167000
     38 H2          1.7600   -0.9620   -0.6760 ha        1 DM5      0.154000
     39 H3          2.9910   -1.0510    1.4990 ha        1 DM5      0.152000
     40 H4          1.8380   -0.3720    3.6150 ha        1 DM5      0.159000
     41 HO8        -1.4630    0.1330    6.2340 ho        1 DM5      0.456000
     42 H10        -4.9740    0.0290    6.9070 h1        1 DM5      0.103700
     43 H111       -6.9850    1.2870    7.2290 hc        1 DM5      0.074700
     44 H112       -6.4690    2.6220    6.1180 hc        1 DM5      0.074700
     45 HO12       -8.9060    1.2510    4.2640 ho        1 DM5      0.414000
     46 H141       -9.5350   -0.8660    5.1090 hc        1 DM5      0.076367
     47 H142       -8.5890   -0.9770    3.5590 hc        1 DM5      0.076367
     48 H143       -8.5760   -2.3650    4.7370 hc        1 DM5      0.076367
     49 H151       -6.6840    2.1420    3.4430 hc        1 DM5      0.087700
     50 H152       -6.8600    0.3990    3.0010 hc        1 DM5      0.087700
     51 HO17       -4.5650    0.7760    0.7220 ho        1 DM5      0.470000
     52 H1'        -3.4990    0.4960    8.3840 h2        1 DM5      0.127700
     53 H2'1       -2.0420    2.0910    9.5920 hc        1 DM5      0.092200
     54 H2'2       -1.8220    2.3430    7.7890 hc        1 DM5      0.092200
     55 H3'        -3.4000    4.2830    7.8330 hx        1 DM5      0.132700
     56 HN'1       -1.5240    4.5980   10.1340 hn        1 DM5      0.461467
     57 HN'2       -2.0780    5.7820    9.0970 hn        1 DM5      0.461467
     58 H4'        -4.4380    5.0780   10.0060 h1        1 DM5      0.091700
     59 HO4'       -3.6680    2.7870   11.3710 ho        1 DM5      0.447000
     60 H5'        -5.6550    3.4360    8.5400 h1        1 DM5      0.083700
     61 H6'1       -7.0890    2.3200   10.3110 hc        1 DM5      0.065367
     62 H6'2       -5.8760    2.7650   11.5810 hc        1 DM5      0.065367
     63 H6'3       -6.7640    4.0740   10.6820 hc        1 DM5      0.065367
     64 H3'3       -1.0210    4.6120    8.5340 hn        1 DM5      0.461467
@<TRIPOS>BOND
     1    1    2 ar  
     2    1   27 ar  
     3    1   37 1   
     4    2    3 ar  
     5    2   38 1   
     6    3    4 ar  
     7    3   39 1   
     8    4    5 ar  
     9    4   40 1   
    10    5    6 1   
    11    5   27 ar  
    12    6    7 2   
    13    6    8 1   
    14    8    9 ar  
    15    8   24 ar  
    16    9   10 1   
    17    9   11 ar  
    18   10   41 1   
    19   11   12 1   
    20   11   21 ar  
    21   12   13 1   
    22   12   14 1   
    23   12   42 1   
    24   13   28 1   
    25   14   15 1   
    26   14   43 1   
    27   14   44 1   
    28   15   16 1   
    29   15   17 1   
    30   15   20 1   
    31   16   45 1   
    32   17   18 2   
    33   17   19 1   
    34   19   46 1   
    35   19   47 1   
    36   19   48 1   
    37   20   21 1   
    38   20   49 1   
    39   20   50 1   
    40   21   22 ar  
    41   22   23 1   
    42   22   24 ar  
    43   23   51 1   
    44   24   25 1   
    45   25   26 2   
    46   25   27 1   
    47   28   29 1   
    48   28   35 1   
    49   28   52 1   
    50   29   30 1   
    51   29   53 1   
    52   29   54 1   
    53   30   31 1   
    54   30   32 1   
    55   30   55 1   
    56   31   56 1   
    57   31   57 1   
    58   31   64 1   
    59   32   33 1   
    60   32   34 1   
    61   32   58 1   
    62   33   59 1   
    63   34   35 1   
    64   34   36 1   
    65   34   60 1   
    66   36   61 1   
    67   36   62 1   
    68   36   63 1   
@<TRIPOS>SUBSTRUCTURE
     1 DM5         1 TEMP              0 ****  ****    0 ROOT
