@<TRIPOS>MOLECULE
DM5
   63    62     1     0     0
SMALL
bcc


@<TRIPOS>ATOM
      1 C1          4.0400   -0.3790   -5.6870 c1        1 DM5     -0.084000
      2 C2          5.4310   -0.3980   -5.6780 c1        1 DM5     -0.115000
      3 C3          6.1230   -0.4330   -4.4660 c1        1 DM5     -0.115000
      4 C4          5.4130   -0.4490   -3.2500 c1        1 DM5     -0.084000
      5 C5          4.0160   -0.4290   -3.2540 c1        1 DM5     -0.104000
      6 C6          3.2340   -0.4110   -1.9080 c1        1 DM5      0.323000
      7 O6          3.8410   -0.4550   -0.8510 o         1 DM5     -0.326000
      8 C7          1.7200   -0.4680   -1.9120 c2        1 DM5     -0.181000
      9 C8          0.9970   -0.4200   -0.6690 c2        1 DM5      0.149000
     10 O8          1.8360   -1.1090    0.1830 oh        1 DM5     -0.257000
     11 C9         -0.3780   -0.4900   -0.6680 c1        1 DM5     -0.049000
     12 C10        -1.2110   -0.5040    0.6800 c2        1 DM5      0.086000
     13 O10        -0.7830    0.6840    1.4990 os        1 DM5     -0.301000
     14 C11        -2.6490   -0.4700    0.5620 c3        1 DM5     -0.157000
     15 C12        -3.2730   -1.2700   -0.5570 c3        1 DM5      0.042000
     16 O12        -4.7210   -1.1090   -0.5500 oh        1 DM5     -0.313000
     17 C13        -3.1460   -2.8210   -0.2730 c2        1 DM5      0.211000
     18 O13        -2.0250   -3.3390   -0.1480 o         1 DM5     -0.275000
     19 C14        -4.4180   -3.7110   -0.2470 c3        1 DM5     -0.276000
     20 C15        -2.6840   -0.9500   -1.8970 c3        1 DM5     -0.145000
     21 C16        -1.1110   -0.6150   -1.9480 c2        1 DM5     -0.044000
     22 C17        -0.4070   -0.6630   -3.1500 c1        1 DM5      0.123000
     23 O17        -1.3260   -0.6100   -4.2300 o         1 DM5     -0.264000
     24 C18         1.0160   -0.5890   -3.1450 c2        1 DM5     -0.171000
     25 C19         1.7900   -0.5200   -4.4760 c2        1 DM5      0.321000
     26 O19         1.1730   -0.4670   -5.5460 o         1 DM5     -0.325000
     27 C20         3.3250   -0.3950   -4.4650 c2        1 DM5     -0.106000
     28 C1'        -0.4810    0.2690    2.7830 c3        1 DM5      0.155000
     29 C2'         0.8540    0.8730    3.2010 c3        1 DM5     -0.172000
     30 C3'         0.7720    2.3310    3.4050 c3        1 DM5     -0.068000
     31 N3'         2.0450    2.8020    3.9810 n3        1 DM5     -0.356000
     32 C4'        -0.3570    2.7170    4.3280 c3        1 DM5      0.014000
     33 O4'        -0.0510    2.2730    5.6290 oh        1 DM5     -0.319000
     34 C5'        -1.6890    2.1050    3.9040 c3        1 DM5      0.037000
     35 O5'        -1.6010    0.6630    3.7000 os        1 DM5     -0.286000
     36 C6'        -2.7180    2.3850    4.9680 c3        1 DM5     -0.205000
     37 H1          3.5570   -0.3550   -6.5350 ha        1 DM5      0.160000
     38 H2          5.9340   -0.3880   -6.5380 ha        1 DM5      0.143000
     39 H3          7.0990   -0.4460   -4.4610 ha        1 DM5      0.143000
     40 H4          5.8930   -0.4750   -2.4110 ha        1 DM5      0.161000
     41 HO8         1.8110   -1.9630   -0.0090 ho        1 DM5      0.259000
     42 H10        -0.9720   -1.3140    1.1710 h4        1 DM5      0.138000
     43 H111       -3.0390   -0.8020    1.4350 hc        1 DM5      0.116500
     44 H112       -2.9120    0.4450    0.4500 hc        1 DM5      0.116500
     45 HO12       -5.0140   -0.9430   -1.4010 ho        1 DM5      0.202000
     46 H141       -4.4320   -4.2460    0.5960 hc        1 DM5      0.108333
     47 H142       -5.2310   -3.1320   -0.2870 hc        1 DM5      0.108333
     48 H143       -4.4090   -4.3160   -1.0200 hc        1 DM5      0.108333
     49 H151       -3.1720   -0.1720   -2.2660 hc        1 DM5      0.117500
     50 H152       -2.8450   -1.7110   -2.4820 hc        1 DM5      0.117500
     51 HO17       -1.3910    0.2320   -4.5250 ho        1 DM5      0.260000
     52 H1'        -0.4010   -0.7020    2.7870 h2        1 DM5      0.133000
     53 H2'1        1.5240    0.6870    2.4980 hc        1 DM5      0.109000
     54 H2'2        1.1460    0.4530    4.0350 hc        1 DM5      0.109000
     55 H3'         0.6350    2.7620    2.5440 h1        1 DM5      0.080000
     56 HN'1        2.0560    3.7110    3.9920 hn        1 DM5      0.151500
     57 HN'2        2.7570    2.4870    3.4640 hn        1 DM5      0.151500
     58 H4'        -0.4450    3.7370    4.3360 h1        1 DM5      0.075000
     59 HO4'        0.0940    2.9510    6.1370 ho        1 DM5      0.216000
     60 H5'        -1.9760    2.5260    3.0650 h1        1 DM5      0.084000
     61 H6'1       -2.4430    3.1680    5.4920 hc        1 DM5      0.089333
     62 H6'2       -2.7960    1.6060    5.5590 hc        1 DM5      0.089333
     63 H6'3       -3.6220    2.5700    4.5280 hc        1 DM5      0.089333
@<TRIPOS>BOND
     1    1   27 1   
     2    1   37 1   
     3    2    3 1   
     4    2   38 1   
     5    3   39 1   
     6    4    5 1   
     7    4   40 1   
     8    5   27 1   
     9    6    7 1   
    10    6    8 1   
    11    8    9 1   
    12    8   24 1   
    13    9   10 1   
    14    9   11 1   
    15   10   41 1   
    16   11   21 1   
    17   12   13 1   
    18   12   14 1   
    19   12   42 1   
    20   13   28 1   
    21   14   15 1   
    22   14   43 1   
    23   14   44 1   
    24   15   16 1   
    25   15   17 1   
    26   15   20 1   
    27   16   45 1   
    28   17   18 1   
    29   17   19 1   
    30   19   46 1   
    31   19   47 1   
    32   19   48 1   
    33   20   21 1   
    34   20   49 1   
    35   20   50 1   
    36   21   22 1   
    37   22   24 1   
    38   23   51 1   
    39   24   25 1   
    40   25   26 1   
    41   25   27 1   
    42   28   29 1   
    43   28   35 1   
    44   28   52 1   
    45   29   30 1   
    46   29   53 1   
    47   29   54 1   
    48   30   31 1   
    49   30   32 1   
    50   30   55 1   
    51   31   56 1   
    52   31   57 1   
    53   32   33 1   
    54   32   34 1   
    55   32   58 1   
    56   33   59 1   
    57   34   35 1   
    58   34   36 1   
    59   34   60 1   
    60   36   61 1   
    61   36   62 1   
    62   36   63 1   
@<TRIPOS>SUBSTRUCTURE
     1 DM5         1 TEMP              0 ****  ****    0 ROOT
