@<TRIPOS>MOLECULE
DM5
   64    68     1     0     0
SMALL
bcc


@<TRIPOS>ATOM
      1 C1         -0.0770   -0.1930    0.2070 ca        1 DM5     -0.077000
      2 C2          1.2530   -0.6190    0.2390 ca        1 DM5     -0.104000
      3 C3          1.9400   -0.6780    1.4500 ca        1 DM5     -0.109000
      4 C4          1.3000   -0.3110    2.6360 ca        1 DM5     -0.079000
      5 C5         -0.0350    0.1070    2.6120 ca        1 DM5     -0.135600
      6 C6         -0.7010    0.4880    3.8670 c         1 DM5      0.603300
      7 O6         -0.0490    0.6750    4.9120 o         1 DM5     -0.573100
      8 C7         -2.1700    0.6380    3.8480 ca        1 DM5     -0.178600
      9 C8         -2.8830    0.7230    5.0500 ca        1 DM5      0.161100
     10 O8         -2.3010    0.6310    6.2920 oh        1 DM5     -0.533100
     11 C9         -4.2900    0.9360    5.0670 ca        1 DM5     -0.078300
     12 C10        -5.0000    1.0560    6.3850 c3        1 DM5      0.210400
     13 O10        -4.3310    2.0580    7.1780 os        1 DM5     -0.454600
     14 C11        -6.4430    1.5370    6.2700 c3        1 DM5     -0.075400
     15 C12        -7.1900    0.8880    5.1060 c3        1 DM5      0.063800
     16 O12        -8.4520    1.5550    5.0800 oh        1 DM5     -0.584800
     17 C13        -7.4160   -0.6130    5.3260 c         1 DM5      0.554100
     18 O13        -6.6700   -1.2750    6.0520 o         1 DM5     -0.523100
     19 C14        -8.5900   -1.2110    4.6250 c3        1 DM5     -0.209100
     20 C15        -6.4530    1.1380    3.7880 c3        1 DM5     -0.066100
     21 C16        -4.9790    0.9780    3.8680 ca        1 DM5     -0.043300
     22 C17        -4.2610    0.8730    2.6360 ca        1 DM5      0.176100
     23 O17        -5.0700    0.9540    1.5380 oh        1 DM5     -0.501100
     24 C18        -2.8700    0.7100    2.6170 ca        1 DM5     -0.184600
     25 C19        -2.1300    0.6140    1.3420 c         1 DM5      0.598300
     26 O19        -2.6670    0.8890    0.2550 o         1 DM5     -0.546100
     27 C20        -0.7270    0.1670    1.3930 ca        1 DM5     -0.127600
     28 C1'        -3.7520    1.6010    8.3780 c3        1 DM5      0.349900
     29 C2'        -2.5170    2.4710    8.6560 c3        1 DM5     -0.137400
     30 C3'        -2.9570    3.9240    8.8260 c3        1 DM5      0.086500
     31 N3'        -1.7890    4.8010    9.1800 n4        1 DM5     -0.835600
     32 C4'        -4.0480    4.0210    9.9290 c3        1 DM5      0.096100
     33 O4'        -3.4540    3.7060   11.1700 oh        1 DM5     -0.611800
     34 C5'        -5.2150    3.0960    9.5340 c3        1 DM5      0.119100
     35 O5'        -4.7360    1.7590    9.3860 os        1 DM5     -0.428600
     36 C6'        -6.2880    3.0640   10.6040 c3        1 DM5     -0.098100
     37 H1         -0.6240   -0.1320   -0.7480 ha        1 DM5      0.167000
     38 H2          1.7560   -0.9060   -0.6980 ha        1 DM5      0.154000
     39 H3          2.9890   -1.0120    1.4750 ha        1 DM5      0.152000
     40 H4          1.8390   -0.3440    3.5970 ha        1 DM5      0.159000
     41 HO8        -1.4580    0.1520    6.2220 ho        1 DM5      0.456000
     42 H10        -4.9680    0.0500    6.8970 h1        1 DM5      0.103700
     43 H111       -6.4610    2.6500    6.1260 hc        1 DM5      0.074700
     44 H112       -6.9780    1.3080    7.2280 hc        1 DM5      0.074700
     45 HO12       -8.9010    1.2940    4.2650 ho        1 DM5      0.414000
     46 H141       -8.5860   -0.9300    3.5440 hc        1 DM5      0.076367
     47 H142       -9.5310   -0.8280    5.0960 hc        1 DM5      0.076367
     48 H143       -8.5740   -2.3250    4.7120 hc        1 DM5      0.076367
     49 H151       -6.8570    0.4490    2.9940 hc        1 DM5      0.087700
     50 H152       -6.6780    2.1890    3.4490 hc        1 DM5      0.087700
     51 HO17       -4.5640    0.8380    0.7160 ho        1 DM5      0.470000
     52 H1'        -3.4920    0.5060    8.3760 h2        1 DM5      0.127700
     53 H2'1       -2.0300    2.0910    9.5920 hc        1 DM5      0.092200
     54 H2'2       -1.8130    2.3530    7.7900 hc        1 DM5      0.092200
     55 H3'        -3.3870    4.2960    7.8470 hx        1 DM5      0.132700
     56 HN'1       -1.0060    4.6170    8.5470 hn        1 DM5      0.461467
     57 HN'2       -1.5070    4.5930   10.1480 hn        1 DM5      0.461467
     58 H4'        -4.4200    5.0800   10.0270 h1        1 DM5      0.091700
     59 HO4'       -3.6530    2.7800   11.3770 ho        1 DM5      0.447000
     60 H5'        -5.6420    3.4490    8.5520 h1        1 DM5      0.083700
     61 H6'1       -6.7480    4.0760   10.6990 hc        1 DM5      0.065367
     62 H6'2       -7.0760    2.3240   10.3190 hc        1 DM5      0.065367
     63 H6'3       -5.8610    2.7600   11.5900 hc        1 DM5      0.065367
     64 H3'3       -2.0600    5.7850    9.1180 hn        1 DM5      0.461467
@<TRIPOS>BOND
     1    1    2 ar  
     2    1   27 ar  
     3    1   37 1   
     4    2    3 ar  
     5    2   38 1   
     6    3    4 ar  
     7    3   39 1   
     8    4    5 ar  
     9    4   40 1   
    10    5    6 1   
    11    5   27 ar  
    12    6    7 2   
    13    6    8 1   
    14    8    9 ar  
    15    8   24 ar  
    16    9   10 1   
    17    9   11 ar  
    18   10   41 1   
    19   11   12 1   
    20   11   21 ar  
    21   12   13 1   
    22   12   14 1   
    23   12   42 1   
    24   13   28 1   
    25   14   15 1   
    26   14   43 1   
    27   14   44 1   
    28   15   16 1   
    29   15   17 1   
    30   15   20 1   
    31   16   45 1   
    32   17   18 2   
    33   17   19 1   
    34   19   46 1   
    35   19   47 1   
    36   19   48 1   
    37   20   21 1   
    38   20   49 1   
    39   20   50 1   
    40   21   22 ar  
    41   22   23 1   
    42   22   24 ar  
    43   23   51 1   
    44   24   25 1   
    45   25   26 2   
    46   25   27 1   
    47   28   29 1   
    48   28   35 1   
    49   28   52 1   
    50   29   30 1   
    51   29   53 1   
    52   29   54 1   
    53   30   31 1   
    54   30   32 1   
    55   30   55 1   
    56   31   56 1   
    57   31   57 1   
    58   31   64 1   
    59   32   33 1   
    60   32   34 1   
    61   32   58 1   
    62   33   59 1   
    63   34   35 1   
    64   34   36 1   
    65   34   60 1   
    66   36   61 1   
    67   36   62 1   
    68   36   63 1   
@<TRIPOS>SUBSTRUCTURE
     1 DM5         1 TEMP              0 ****  ****    0 ROOT
