@<TRIPOS>MOLECULE
DMA
   23    21     1     0     0
SMALL
bcc


@<TRIPOS>ATOM
      1 C1         -0.2900    0.0140   -0.0810 c3        1 DMA      0.039000
      2 O1          1.1190    0.0140   -0.0810 os        1 DMA     -0.723000
      3 C2         -0.7940    0.0140    1.3450 c2        1 DMA     -0.045000
      4 C3         -2.1190    0.0190    1.5920 c1        1 DMA     -0.278000
      5 C4         -3.1020    0.0240    0.4420 c2        1 DMA     -0.141000
      6 C5         -2.6230    0.0190    3.0180 c3        1 DMA     -0.136000
      7 PA          1.8720   -0.0030   -1.4700 p5        1 DMA      2.043000
      8 O1A         1.4150    1.1700   -2.3050 o         1 DMA     -0.933500
      9 O2A         1.5590   -1.2890   -2.1970 o         1 DMA     -0.933500
     10 O3A         3.4300    0.0990   -1.2260 os        1 DMA     -1.268000
     11 PB          4.5070   -0.0320   -2.3760 p5        1 DMA      1.694500
     12 O1B         4.0500    0.7470   -3.5850 o         1 DMA     -0.959167
     13 O2B         4.6720   -1.4860   -2.7470 o         1 DMA     -0.959167
     14 O3B         5.8280    0.5170   -1.8930 o         1 DMA     -0.959167
     15 H11        -0.6150    0.8110   -0.5410 h1        1 DMA      0.080000
     16 H12        -0.6150   -0.7830   -0.5410 h1        1 DMA      0.080000
     17 H2         -0.1600    0.0110    2.0870 ha        1 DMA      0.124000
     18 H41        -4.0130    0.0150    0.7930 ha        1 DMA      0.052667
     19 H42        -2.9590   -0.7660   -0.1130 ha        1 DMA      0.052667
     20 H43        -2.9690    0.8280   -0.0960 ha        1 DMA      0.052667
     21 H51        -3.3250   -0.6520    3.1150 hc        1 DMA      0.039333
     22 H52        -2.9830    0.9000    3.2360 hc        1 DMA      0.039333
     23 H53        -1.8870   -0.1910    3.6240 hc        1 DMA      0.039333
@<TRIPOS>BOND
     1    1    2 1   
     2    1    3 1   
     3    1   15 1   
     4    1   16 1   
     5    2    7 1   
     6    3    4 1   
     7    3   17 1   
     8    4    6 1   
     9    5   18 1   
    10    5   19 1   
    11    5   20 1   
    12    6   21 1   
    13    6   22 1   
    14    6   23 1   
    15    7    8 1   
    16    7    9 1   
    17    7   10 1   
    18   10   11 1   
    19   11   12 1   
    20   11   13 1   
    21   11   14 1   
@<TRIPOS>SUBSTRUCTURE
     1 DMA         1 TEMP              0 ****  ****    0 ROOT
