@<TRIPOS>MOLECULE
DMB
   33    34     1     0     0
SMALL
bcc


@<TRIPOS>ATOM
      1 C1         -0.2060    0.2110    0.2820 ca        1 DMB      0.121400
      2 C2          1.1610   -0.0270    0.0210 ca        1 DMB     -0.097600
      3 C3          2.0360   -0.1290    1.1080 ca        1 DMB     -0.105000
      4 C4          1.5800   -0.0190    2.4190 ca        1 DMB     -0.159000
      5 C5          0.2260    0.1990    2.6680 ca        1 DMB     -0.153000
      6 C6         -0.6690    0.3090    1.6080 ca        1 DMB     -0.151000
      7 C1'        -2.6230   -0.1710   -2.3960 ca        1 DMB      0.091400
      8 C2'        -4.0260   -0.1350   -2.3840 ca        1 DMB     -0.084500
      9 C3'        -4.7430   -0.0640   -3.5790 ca        1 DMB     -0.137300
     10 C4'        -4.0370   -0.0300   -4.7960 ca        1 DMB      0.103100
     11 C5'        -2.6300   -0.0630   -4.8260 ca        1 DMB     -0.137300
     12 C6'        -1.9290   -0.1270   -3.6220 ca        1 DMB     -0.084500
     13 C           1.7440   -0.1740   -1.3830 c         1 DMB      0.916200
     14 CM3        -6.2220   -0.0240   -3.5820 c3        1 DMB     -0.041300
     15 CM5        -1.8880   -0.0280   -6.1080 c3        1 DMB     -0.041300
     16 N1         -1.0850    0.4660   -0.8300 ne        1 DMB     -0.154400
     17 N1'        -1.8910   -0.3900   -1.1710 nf        1 DMB     -0.186400
     18 O           1.0220   -0.6410   -2.3080 o         1 DMB     -0.828800
     19 OXT         2.9510    0.1660   -1.5360 o         1 DMB     -0.828800
     20 O4'        -4.8100    0.0390   -5.9400 oh        1 DMB     -0.515100
     21 H3          3.1050   -0.2870    0.8900 ha        1 DMB      0.154000
     22 H4          2.2850   -0.1040    3.2570 ha        1 DMB      0.108000
     23 H5         -0.1410    0.2810    3.7000 ha        1 DMB      0.106000
     24 H6         -1.7360    0.4760    1.8110 ha        1 DMB      0.117000
     25 H2'        -4.5750   -0.1640   -1.4300 ha        1 DMB      0.172000
     26 H6'        -0.8180   -0.1630   -3.6160 ha        1 DMB      0.172000
     27 HM31       -6.6280   -0.8890   -4.1640 hc        1 DMB      0.038533
     28 HM32       -6.5790    0.9150   -4.0750 hc        1 DMB      0.038533
     29 HM33       -6.6330   -0.0640   -2.5440 hc        1 DMB      0.038533
     30 HM51       -2.1680   -0.9020   -6.7490 hc        1 DMB      0.038533
     31 HM52       -2.1170    0.9120   -6.6710 hc        1 DMB      0.038533
     32 HM53       -0.7850   -0.0680   -5.9270 hc        1 DMB      0.038533
     33 HO4'       -4.2130    0.0540   -6.7010 ho        1 DMB      0.412000
@<TRIPOS>BOND
     1    1    2 ar  
     2    1    6 ar  
     3    1   16 1   
     4    2    3 ar  
     5    2   13 1   
     6    3    4 ar  
     7    3   21 1   
     8    4    5 ar  
     9    4   22 1   
    10    5    6 ar  
    11    5   23 1   
    12    6   24 1   
    13    7    8 ar  
    14    7   12 ar  
    15    7   17 1   
    16    8    9 ar  
    17    8   25 1   
    18    9   10 ar  
    19    9   14 1   
    20   10   11 ar  
    21   10   20 1   
    22   11   12 ar  
    23   11   15 1   
    24   12   26 1   
    25   13   18 1   
    26   13   19 1   
    27   14   27 1   
    28   14   28 1   
    29   14   29 1   
    30   15   30 1   
    31   15   31 1   
    32   15   32 1   
    33   16   17 2   
    34   20   33 1   
@<TRIPOS>SUBSTRUCTURE
     1 DMB         1 TEMP              0 ****  ****    0 ROOT
