@<TRIPOS>MOLECULE
DMB
   33    28     1     0     0
SMALL
bcc


@<TRIPOS>ATOM
      1 C1          0.0250   -2.3300    0.0370 cg        1 DMB     -0.045500
      2 C2          1.3410   -2.7180    0.2440 cg        1 DMB     -0.044200
      3 C3          1.8530   -2.7760    1.5310 c1        1 DMB     -0.050500
      4 C4          1.0500   -2.4480    2.6110 c1        1 DMB     -0.096000
      5 C5         -0.2650   -2.0600    2.4060 c1        1 DMB     -0.096000
      6 C6         -0.7780   -2.0010    1.1180 c1        1 DMB     -0.058000
      7 C1'        -0.7120   -0.1220   -1.2550 ch        1 DMB     -0.045500
      8 C2'        -1.7180    0.4040   -0.4580 c1        1 DMB     -0.058000
      9 C3'        -1.6240    1.7060    0.0090 c1        1 DMB     -0.089100
     10 C4'        -0.5230    2.4830   -0.3190 c1        1 DMB      0.093600
     11 C5'         0.4840    1.9570   -1.1160 c1        1 DMB     -0.124100
     12 C6'         0.3890    0.6560   -1.5830 c1        1 DMB     -0.017500
     13 C           2.2040   -3.1240   -0.9320 c         1 DMB      0.863800
     14 CM3        -2.7690    2.3130    0.7870 c3        1 DMB     -0.064000
     15 CM5         1.6370    2.8360   -1.5540 c3        1 DMB     -0.086000
     16 N1         -0.5420   -2.4220   -1.2620 ne        1 DMB     -0.036500
     17 N1'        -0.8860   -1.3920   -1.8640 nf        1 DMB     -0.036500
     18 O           1.9420   -4.1780   -1.5700 o         1 DMB     -0.822800
     19 OXT         3.1990   -2.4240   -1.2540 o         1 DMB     -0.822800
     20 O4'        -0.4580    3.8240    0.1000 oh        1 DMB     -0.498600
     21 H3          2.7780   -3.0490    1.6760 ha        1 DMB      0.090500
     22 H4          1.4100   -2.4890    3.5190 ha        1 DMB      0.051000
     23 H5         -0.8300   -1.8290    3.1660 ha        1 DMB      0.051000
     24 H6         -1.7030   -1.7280    0.9740 ha        1 DMB      0.067000
     25 H2'        -2.4930   -0.1420   -0.2270 ha        1 DMB      0.067000
     26 H6'         1.0980    0.2860   -2.1440 ha        1 DMB      0.165500
     27 HM31       -3.1960    3.0120    0.2480 hc        1 DMB      0.034700
     28 HM32       -2.4280    2.7040    1.6190 hc        1 DMB      0.034700
     29 HM33       -3.4250    1.6170    0.9980 hc        1 DMB      0.034700
     30 HM51        2.0940    2.4200   -2.3130 hc        1 DMB      0.042033
     31 HM52        1.2940    3.7160   -1.8210 hc        1 DMB      0.042033
     32 HM53        2.2670    2.9420   -0.8100 hc        1 DMB      0.042033
     33 HO4'       -0.7140    4.3560   -0.5640 ho        1 DMB      0.413000
@<TRIPOS>BOND
     1    1    6 3   
     2    1   16 1   
     3    2    3 3   
     4    2   13 1   
     5    3   21 1   
     6    4    5 3   
     7    4   22 1   
     8    5   23 1   
     9    6   24 1   
    10    7    8 3   
    11    7   17 1   
    12    8   25 1   
    13    9   10 3   
    14    9   14 1   
    15   10   20 1   
    16   11   12 3   
    17   11   15 1   
    18   12   26 1   
    19   13   18 1   
    20   13   19 1   
    21   14   27 1   
    22   14   28 1   
    23   14   29 1   
    24   15   30 1   
    25   15   31 1   
    26   15   32 1   
    27   16   17 2   
    28   20   33 1   
@<TRIPOS>SUBSTRUCTURE
     1 DMB         1 TEMP              0 ****  ****    0 ROOT
