@<TRIPOS>MOLECULE
DMB
   33    34     1     0     0
SMALL
bcc


@<TRIPOS>ATOM
      1 C1         -0.2000    0.2110    0.2790 ca        1 DMB      0.121400
      2 C2          1.1670   -0.0170    0.0120 ca        1 DMB     -0.097600
      3 C3          2.0460   -0.1170    1.0970 ca        1 DMB     -0.105000
      4 C4          1.5930   -0.0160    2.4090 ca        1 DMB     -0.159000
      5 C5          0.2380    0.1930    2.6630 ca        1 DMB     -0.153000
      6 C6         -0.6600    0.3010    1.6060 ca        1 DMB     -0.151000
      7 C1'        -2.6230   -0.1750   -2.3940 ca        1 DMB      0.091400
      8 C2'        -4.0260   -0.1480   -2.3770 ca        1 DMB     -0.084500
      9 C3'        -4.7470   -0.0770   -3.5700 ca        1 DMB     -0.137300
     10 C4'        -4.0450   -0.0340   -4.7890 ca        1 DMB      0.103100
     11 C5'        -2.6380   -0.0580   -4.8240 ca        1 DMB     -0.137300
     12 C6'        -1.9330   -0.1220   -3.6220 ca        1 DMB     -0.084500
     13 C           1.7470   -0.1540   -1.3940 c         1 DMB      0.916200
     14 CM3        -6.2270   -0.0470   -3.5680 c3        1 DMB     -0.041300
     15 CM5        -1.9000   -0.0130   -6.1070 c3        1 DMB     -0.041300
     16 N1         -1.0840    0.4660   -0.8300 ne        1 DMB     -0.154400
     17 N1'        -1.8860   -0.3940   -1.1720 nf        1 DMB     -0.186400
     18 O           1.0260   -0.6230   -2.3190 o         1 DMB     -0.828800
     19 OXT         2.9510    0.1940   -1.5490 o         1 DMB     -0.828800
     20 O4'        -4.8220    0.0350   -5.9310 oh        1 DMB     -0.515100
     21 H3          3.1160   -0.2680    0.8740 ha        1 DMB      0.154000
     22 H4          2.3020   -0.0990    3.2450 ha        1 DMB      0.108000
     23 H5         -0.1250    0.2680    3.6960 ha        1 DMB      0.106000
     24 H6         -1.7280    0.4610    1.8130 ha        1 DMB      0.117000
     25 H2'        -4.5730   -0.1840   -1.4220 ha        1 DMB      0.172000
     26 H6'        -0.8210   -0.1520   -3.6190 ha        1 DMB      0.172000
     27 HM31       -6.5920    0.8790   -4.0790 hc        1 DMB      0.038367
     28 HM32       -6.6330   -0.0690   -2.5290 hc        1 DMB      0.038367
     29 HM33       -6.6280   -0.9270   -4.1310 hc        1 DMB      0.038367
     30 HM51       -2.1360    0.9280   -6.6650 hc        1 DMB      0.038367
     31 HM52       -2.1770   -0.8860   -6.7520 hc        1 DMB      0.038367
     32 HM53       -0.7960   -0.0480   -5.9300 hc        1 DMB      0.038367
     33 HO4'       -4.2270    0.0590   -6.6930 ho        1 DMB      0.412000
@<TRIPOS>BOND
     1    1    2 ar  
     2    1    6 ar  
     3    1   16 1   
     4    2    3 ar  
     5    2   13 1   
     6    3    4 ar  
     7    3   21 1   
     8    4    5 ar  
     9    4   22 1   
    10    5    6 ar  
    11    5   23 1   
    12    6   24 1   
    13    7    8 ar  
    14    7   12 ar  
    15    7   17 1   
    16    8    9 ar  
    17    8   25 1   
    18    9   10 ar  
    19    9   14 1   
    20   10   11 ar  
    21   10   20 1   
    22   11   12 ar  
    23   11   15 1   
    24   12   26 1   
    25   13   18 1   
    26   13   19 1   
    27   14   27 1   
    28   14   28 1   
    29   14   29 1   
    30   15   30 1   
    31   15   31 1   
    32   15   32 1   
    33   16   17 2   
    34   20   33 1   
@<TRIPOS>SUBSTRUCTURE
     1 DMB         1 TEMP              0 ****  ****    0 ROOT
