@<TRIPOS>MOLECULE
DMB
   33    34     1     0     0
SMALL
bcc


@<TRIPOS>ATOM
      1 C1          1.0000    0.2030   -2.2010 ca        1 DMB      0.121400
      2 C2         -0.1040    0.0000   -3.0580 ca        1 DMB     -0.097600
      3 C3          0.1330   -0.0990   -4.4330 ca        1 DMB     -0.105000
      4 C4          1.4220   -0.0210   -4.9550 ca        1 DMB     -0.159000
      5 C5          2.5070    0.1620   -4.0990 ca        1 DMB     -0.153000
      6 C6          2.3040    0.2690   -2.7270 ca        1 DMB     -0.151000
      7 C1'         0.5710   -0.1900    1.3800 ca        1 DMB      0.091400
      8 C2'         1.5070   -0.1870    2.4260 ca        1 DMB     -0.084500
      9 C3'         1.0840   -0.1130    3.7540 ca        1 DMB     -0.137300
     10 C4'        -0.2960   -0.0430    4.0260 ca        1 DMB      0.103100
     11 C5'        -1.2470   -0.0440    2.9890 ca        1 DMB     -0.137300
     12 C6'        -0.8060   -0.1110    1.6670 ca        1 DMB     -0.084500
     13 C          -1.5470   -0.1110   -2.5710 c         1 DMB      0.916200
     14 CM3         2.0580   -0.1050    4.8670 c3        1 DMB     -0.041300
     15 CM5        -2.6980    0.0280    3.2770 c3        1 DMB     -0.041300
     16 N1          0.7510    0.4560   -0.8050 ne        1 DMB     -0.154400
     17 N1'         1.0040   -0.4120    0.0200 nf        1 DMB     -0.186400
     18 O          -1.7790   -0.5790   -1.4210 o         1 DMB     -0.828800
     19 OXT        -2.4490    0.2590   -3.3740 o         1 DMB     -0.828800
     20 O4'        -0.6430    0.0270    5.3620 oh        1 DMB     -0.515100
     21 H3         -0.7400   -0.2300   -5.0930 ha        1 DMB      0.154000
     22 H4          1.5840   -0.1030   -6.0380 ha        1 DMB      0.108000
     23 H5          3.5270    0.2200   -4.5050 ha        1 DMB      0.106000
     24 H6          3.1650    0.4090   -2.0580 ha        1 DMB      0.117000
     25 H2'         2.5850   -0.2430    2.2100 ha        1 DMB      0.172000
     26 H6'        -1.5350   -0.1220    0.8280 ha        1 DMB      0.172000
     27 HM31        1.9580    0.8400    5.4580 hc        1 DMB      0.038533
     28 HM32        1.8560   -0.9620    5.5590 hc        1 DMB      0.038533
     29 HM33        3.1070   -0.1850    4.4920 hc        1 DMB      0.038533
     30 HM51       -3.0190   -0.8410    3.9050 hc        1 DMB      0.038533
     31 HM52       -2.9450    0.9720    3.8270 hc        1 DMB      0.038533
     32 HM53       -3.2910    0.0120    2.3290 hc        1 DMB      0.038533
     33 HO4'       -1.6080    0.0650    5.4160 ho        1 DMB      0.412000
@<TRIPOS>BOND
     1    1    2 ar  
     2    1    6 ar  
     3    1   16 1   
     4    2    3 ar  
     5    2   13 1   
     6    3    4 ar  
     7    3   21 1   
     8    4    5 ar  
     9    4   22 1   
    10    5    6 ar  
    11    5   23 1   
    12    6   24 1   
    13    7    8 ar  
    14    7   12 ar  
    15    7   17 1   
    16    8    9 ar  
    17    8   25 1   
    18    9   10 ar  
    19    9   14 1   
    20   10   11 ar  
    21   10   20 1   
    22   11   12 ar  
    23   11   15 1   
    24   12   26 1   
    25   13   18 1   
    26   13   19 1   
    27   14   27 1   
    28   14   28 1   
    29   14   29 1   
    30   15   30 1   
    31   15   31 1   
    32   15   32 1   
    33   16   17 2   
    34   20   33 1   
@<TRIPOS>SUBSTRUCTURE
     1 DMB         1 TEMP              0 ****  ****    0 ROOT
