@<TRIPOS>MOLECULE
DMB
   33    34     1     0     0
SMALL
bcc


@<TRIPOS>ATOM
      1 C1         -0.2000    0.2090    0.2790 ca        1 DMB      0.121400
      2 C2          1.1690   -0.0050    0.0100 ca        1 DMB     -0.097600
      3 C3          2.0500   -0.1050    1.0930 ca        1 DMB     -0.105000
      4 C4          1.5970   -0.0160    2.4060 ca        1 DMB     -0.159000
      5 C5          0.2410    0.1790    2.6620 ca        1 DMB     -0.153000
      6 C6         -0.6600    0.2860    1.6070 ca        1 DMB     -0.151000
      7 C1'        -2.6220   -0.1810   -2.3950 ca        1 DMB      0.091400
      8 C2'        -4.0250   -0.1670   -2.3760 ca        1 DMB     -0.084500
      9 C3'        -4.7480   -0.0950   -3.5680 ca        1 DMB     -0.137300
     10 C4'        -4.0470   -0.0360   -4.7870 ca        1 DMB      0.103100
     11 C5'        -2.6400   -0.0480   -4.8230 ca        1 DMB     -0.137300
     12 C6'        -1.9340   -0.1140   -3.6220 ca        1 DMB     -0.084500
     13 C           1.7490   -0.1280   -1.3980 c         1 DMB      0.916200
     14 CM3        -6.2280   -0.0760   -3.5650 c3        1 DMB     -0.041300
     15 CM5        -1.9040    0.0110   -6.1070 c3        1 DMB     -0.041300
     16 N1         -1.0870    0.4630   -0.8280 ne        1 DMB     -0.154400
     17 N1'        -1.8820   -0.4020   -1.1740 nf        1 DMB     -0.186400
     18 O           1.0300   -0.5970   -2.3250 o         1 DMB     -0.828800
     19 OXT         2.9500    0.2310   -1.5520 o         1 DMB     -0.828800
     20 O4'        -4.8250    0.0330   -5.9280 oh        1 DMB     -0.515100
     21 H3          3.1200   -0.2450    0.8690 ha        1 DMB      0.154000
     22 H4          2.3070   -0.0980    3.2410 ha        1 DMB      0.108000
     23 H5         -0.1220    0.2450    3.6970 ha        1 DMB      0.106000
     24 H6         -1.7280    0.4350    1.8160 ha        1 DMB      0.117000
     25 H2'        -4.5700   -0.2140   -1.4210 ha        1 DMB      0.172000
     26 H6'        -0.8220   -0.1330   -3.6200 ha        1 DMB      0.172000
     27 HM31       -6.6220   -0.9330   -4.1660 hc        1 DMB      0.038533
     28 HM32       -6.6000    0.8690   -4.0340 hc        1 DMB      0.038533
     29 HM33       -6.6340   -0.1480   -2.5270 hc        1 DMB      0.038533
     30 HM51       -2.1720   -0.8600   -6.7560 hc        1 DMB      0.038533
     31 HM52       -2.1500    0.9530   -6.6600 hc        1 DMB      0.038533
     32 HM53       -0.7990   -0.0120   -5.9310 hc        1 DMB      0.038533
     33 HO4'       -4.2320    0.0620   -6.6900 ho        1 DMB      0.412000
@<TRIPOS>BOND
     1    1    2 ar  
     2    1    6 ar  
     3    1   16 1   
     4    2    3 ar  
     5    2   13 1   
     6    3    4 ar  
     7    3   21 1   
     8    4    5 ar  
     9    4   22 1   
    10    5    6 ar  
    11    5   23 1   
    12    6   24 1   
    13    7    8 ar  
    14    7   12 ar  
    15    7   17 1   
    16    8    9 ar  
    17    8   25 1   
    18    9   10 ar  
    19    9   14 1   
    20   10   11 ar  
    21   10   20 1   
    22   11   12 ar  
    23   11   15 1   
    24   12   26 1   
    25   13   18 1   
    26   13   19 1   
    27   14   27 1   
    28   14   28 1   
    29   14   29 1   
    30   15   30 1   
    31   15   31 1   
    32   15   32 1   
    33   16   17 2   
    34   20   33 1   
@<TRIPOS>SUBSTRUCTURE
     1 DMB         1 TEMP              0 ****  ****    0 ROOT
