@<TRIPOS>MOLECULE
DMC
   36    36     1     0     0
SMALL
bcc


@<TRIPOS>ATOM
      1 O          -0.1260    0.8080    0.1420 o         1 DMC     -0.830800
      2 C           1.0450    0.3750   -0.0550 c         1 DMC      0.897800
      3 CA          1.9220    0.0900    1.1650 ce        1 DMC     -0.117400
      4 CB1         1.3660    0.0610    2.3870 cf        1 DMC     -0.201200
      5 CB2         3.3540   -0.1340    0.8820 c3        1 DMC     -0.055900
      6 CG          2.0330   -0.1850    3.6520 ca        1 DMC     -0.103800
      7 CD1         1.7500    0.6140    4.7810 ca        1 DMC      0.148100
      8 CE1         2.3550    0.3850    6.0230 ca        1 DMC     -0.227000
      9 CZ          3.2710   -0.6760    6.1770 ca        1 DMC      0.158600
     10 CE2         3.5560   -1.4800    5.0480 ca        1 DMC     -0.214000
     11 CD2         2.9490   -1.2270    3.8230 ca        1 DMC     -0.077000
     12 OH          0.8740    1.6760    4.7430 oh        1 DMC     -0.523100
     13 N           3.8500   -0.9960    7.4270 nh        1 DMC     -0.667000
     14 CH1         5.2370   -1.4230    7.4230 c3        1 DMC      0.205300
     15 CH2         3.4290   -0.2710    8.6020 c3        1 DMC      0.205300
     16 CM1         5.4150   -2.8920    7.7860 c3        1 DMC     -0.116600
     17 CM2         4.0070    1.1220    8.8190 c3        1 DMC     -0.116600
     18 OXT         1.5420    0.1690   -1.1980 o         1 DMC     -0.830800
     19 HB1         0.2740    0.2430    2.4540 ha        1 DMC      0.145000
     20 HB21        3.9970    0.0560    1.7770 hc        1 DMC      0.033700
     21 HB22        3.6790    0.5310    0.0430 hc        1 DMC      0.033700
     22 HB23        3.5040   -1.1920    0.5500 hc        1 DMC      0.033700
     23 HE1         2.0900    1.0520    6.8540 ha        1 DMC      0.136000
     24 HE2         4.2510   -2.3280    5.1310 ha        1 DMC      0.121000
     25 HD2         3.1860   -1.8670    2.9580 ha        1 DMC      0.139000
     26 HO          0.5780    1.7900    3.8250 ho        1 DMC      0.445000
     27 HH11        5.6970   -1.2490    6.4070 h1        1 DMC      0.041200
     28 HH12        5.8300   -0.8060    8.1600 h1        1 DMC      0.041200
     29 HH21        3.7100   -0.9100    9.4900 h1        1 DMC      0.041200
     30 HH22        2.3040   -0.1990    8.5790 h1        1 DMC      0.041200
     31 HM11        6.5040   -3.1360    7.7770 hc        1 DMC      0.035700
     32 HM12        4.8920   -3.5500    7.0520 hc        1 DMC      0.035700
     33 HM13        5.0080   -3.1060    8.8030 hc        1 DMC      0.035700
     34 HM21        3.8090    1.7830    7.9410 hc        1 DMC      0.035700
     35 HM22        3.5310    1.5750    9.7210 hc        1 DMC      0.035700
     36 HM23        5.1100    1.0810    8.9850 hc        1 DMC      0.035700
@<TRIPOS>BOND
     1    1    2 1   
     2    2    3 1   
     3    2   18 1   
     4    3    4 2   
     5    3    5 1   
     6    4    6 1   
     7    4   19 1   
     8    5   20 1   
     9    5   21 1   
    10    5   22 1   
    11    6    7 ar  
    12    6   11 ar  
    13    7    8 ar  
    14    7   12 1   
    15    8    9 ar  
    16    8   23 1   
    17    9   10 ar  
    18    9   13 1   
    19   10   11 ar  
    20   10   24 1   
    21   11   25 1   
    22   12   26 1   
    23   13   14 1   
    24   13   15 1   
    25   14   16 1   
    26   14   27 1   
    27   14   28 1   
    28   15   17 1   
    29   15   29 1   
    30   15   30 1   
    31   16   31 1   
    32   16   32 1   
    33   16   33 1   
    34   17   34 1   
    35   17   35 1   
    36   17   36 1   
@<TRIPOS>SUBSTRUCTURE
     1 DMC         1 TEMP              0 ****  ****    0 ROOT
