@<TRIPOS>MOLECULE
DMC
   36    36     1     0     0
SMALL
bcc


@<TRIPOS>ATOM
      1 O          -1.1730    0.8080    4.8720 o         1 DMC     -0.830800
      2 C          -0.0470    0.2740    4.6580 c         1 DMC      0.896800
      3 CA          0.3230   -0.0710    3.2150 ce        1 DMC     -0.116400
      4 CB1        -0.4210    0.4140    2.2080 cf        1 DMC     -0.201200
      5 CB2         1.5060   -0.9400    3.0500 c3        1 DMC     -0.055900
      6 CG         -0.2280    0.2000    0.7860 ca        1 DMC     -0.103800
      7 CD1        -1.3280   -0.0870   -0.0540 ca        1 DMC      0.148100
      8 CE1        -1.1810   -0.2510   -1.4350 ca        1 DMC     -0.216000
      9 CZ          0.0950   -0.1290   -2.0310 ca        1 DMC      0.160600
     10 CE2         1.1970    0.1470   -1.1940 ca        1 DMC     -0.227000
     11 CD2         1.0260    0.2990    0.1790 ca        1 DMC     -0.077000
     12 OH         -2.6120   -0.2260    0.4220 oh        1 DMC     -0.522100
     13 N           0.2330   -0.3570   -3.4200 nh        1 DMC     -0.669000
     14 CH1         1.5530   -0.3800   -4.0010 c3        1 DMC      0.206800
     15 CH2        -0.8200    0.1430   -4.2840 c3        1 DMC      0.206800
     16 CM1         2.2320    0.9590   -4.2630 c3        1 DMC     -0.116600
     17 CM2        -1.6590   -0.9620   -4.9140 c3        1 DMC     -0.116600
     18 OXT         0.7920    0.0030    5.5630 o         1 DMC     -0.830800
     19 HB1        -1.2840    1.0570    2.4770 ha        1 DMC      0.144000
     20 HB21        1.5420   -1.6860    3.8840 hc        1 DMC      0.034367
     21 HB22        1.5040   -1.4770    2.0700 hc        1 DMC      0.034367
     22 HB23        2.4340   -0.3170    3.1170 hc        1 DMC      0.034367
     23 HE1        -2.0720   -0.4950   -2.0310 ha        1 DMC      0.138000
     24 HE2         2.2100    0.2480   -1.6070 ha        1 DMC      0.119000
     25 HD2         1.9030    0.5150    0.8120 ha        1 DMC      0.138000
     26 HO         -2.5810   -0.1770    1.3920 ho        1 DMC      0.445000
     27 HH11        1.4610   -0.9260   -4.9860 h1        1 DMC      0.041200
     28 HH12        2.2160   -1.0000   -3.3320 h1        1 DMC      0.041200
     29 HH21       -1.5080    0.8270   -3.7070 h1        1 DMC      0.041200
     30 HH22       -0.3700    0.7590   -5.1170 h1        1 DMC      0.041200
     31 HM11        3.2640    0.7730   -4.6480 hc        1 DMC      0.035700
     32 HM12        1.6730    1.5530   -5.0250 hc        1 DMC      0.035700
     33 HM13        2.3030    1.5660   -3.3290 hc        1 DMC      0.035700
     34 HM21       -2.4310   -0.4980   -5.5720 hc        1 DMC      0.035700
     35 HM22       -1.0250   -1.6450   -5.5280 hc        1 DMC      0.035700
     36 HM23       -2.1720   -1.5690   -4.1300 hc        1 DMC      0.035700
@<TRIPOS>BOND
     1    1    2 1   
     2    2    3 1   
     3    2   18 1   
     4    3    4 2   
     5    3    5 1   
     6    4    6 1   
     7    4   19 1   
     8    5   20 1   
     9    5   21 1   
    10    5   22 1   
    11    6    7 ar  
    12    6   11 ar  
    13    7    8 ar  
    14    7   12 1   
    15    8    9 ar  
    16    8   23 1   
    17    9   10 ar  
    18    9   13 1   
    19   10   11 ar  
    20   10   24 1   
    21   11   25 1   
    22   12   26 1   
    23   13   14 1   
    24   13   15 1   
    25   14   16 1   
    26   14   27 1   
    27   14   28 1   
    28   15   17 1   
    29   15   29 1   
    30   15   30 1   
    31   16   31 1   
    32   16   32 1   
    33   16   33 1   
    34   17   34 1   
    35   17   35 1   
    36   17   36 1   
@<TRIPOS>SUBSTRUCTURE
     1 DMC         1 TEMP              0 ****  ****    0 ROOT
