@<TRIPOS>MOLECULE
DMC
   36    32     1     0     0
SMALL
bcc


@<TRIPOS>ATOM
      1 O           2.1880   -2.9470   -2.1600 o         1 DMC     -0.566000
      2 C           3.0380   -2.0080   -2.0040 c1        1 DMC      0.351000
      3 CA          3.7790   -1.8590   -0.6740 c1        1 DMC     -0.081000
      4 CB1         3.1530   -1.2230    0.4150 c1        1 DMC     -0.187000
      5 CB2         5.1910   -2.3940   -0.5300 c3        1 DMC     -0.178000
      6 CG          1.7410   -0.6840    0.2710 c1        1 DMC     -0.008000
      7 CD1         1.5380    0.6670    0.0030 c2        1 DMC      0.058000
      8 CE1         0.2540    1.1860    0.0070 c1        1 DMC     -0.229000
      9 CZ         -0.8320    0.3520    0.2800 c1        1 DMC      0.023000
     10 CE2        -0.6230   -1.0000    0.5490 c1        1 DMC     -0.196000
     11 CD2         0.6500   -1.5150    0.5450 c1        1 DMC     -0.085000
     12 OH          2.6900    1.5600   -0.1320 oh        1 DMC     -0.257000
     13 N          -2.1610    0.8920    0.3040 n3        1 DMC     -0.232000
     14 CH1        -2.4850    1.9320    1.2220 c3        1 DMC     -0.057000
     15 CH2        -3.2110    0.3420   -0.6110 c3        1 DMC     -0.057000
     16 CM1        -3.3410    1.3670    2.3410 c3        1 DMC     -0.229000
     17 CM2        -3.6640    1.4350   -1.6030 c3        1 DMC     -0.229000
     18 OXT         3.2980   -1.2270   -2.9600 o         1 DMC     -0.566000
     19 HB1         3.6080   -1.1340    1.2310 ha        1 DMC      0.104000
     20 HB21        5.2760   -3.1980   -1.0280 hc        1 DMC      0.071000
     21 HB22        5.3740   -2.5680    0.3940 hc        1 DMC      0.071000
     22 HB23        5.8280   -1.7300   -0.8700 hc        1 DMC      0.071000
     23 HE1         0.1210    2.1130   -0.0800 ha        1 DMC      0.119000
     24 HE2        -1.3780   -1.5840    0.7040 ha        1 DMC      0.125000
     25 HD2         0.8030   -2.5020    0.7680 ha        1 DMC      0.208000
     26 HO          2.4510    2.4290    0.1400 ho        1 DMC      0.196000
     27 HH11       -2.9880    2.6590    0.7450 h1        1 DMC      0.079500
     28 HH12       -1.6460    2.3050    1.6040 h1        1 DMC      0.079500
     29 HH21       -2.8490   -0.4130   -1.1080 h1        1 DMC      0.079500
     30 HH22       -3.9670    0.0470   -0.0880 h1        1 DMC      0.079500
     31 HM11       -2.8500    1.4600    3.2180 hc        1 DMC      0.073167
     32 HM12       -4.2050    1.8660    2.3870 hc        1 DMC      0.073167
     33 HM13       -3.5250    0.3950    2.1620 hc        1 DMC      0.073167
     34 HM21       -3.0660    2.1910   -1.5490 hc        1 DMC      0.073167
     35 HM22       -3.6470    1.0770   -2.5040 hc        1 DMC      0.073167
     36 HM23       -4.5450    1.7120   -1.3880 hc        1 DMC      0.073167
@<TRIPOS>BOND
     1    1    2 1   
     2    2   18 1   
     3    3    4 1   
     4    3    5 1   
     5    4   19 1   
     6    5   20 1   
     7    5   21 1   
     8    5   22 1   
     9    6    7 1   
    10    6   11 1   
    11    7    8 1   
    12    7   12 1   
    13    8   23 1   
    14    9   10 1   
    15    9   13 1   
    16   10   24 1   
    17   11   25 1   
    18   12   26 1   
    19   13   14 1   
    20   13   15 1   
    21   14   16 1   
    22   14   27 1   
    23   14   28 1   
    24   15   17 1   
    25   15   29 1   
    26   15   30 1   
    27   16   31 1   
    28   16   32 1   
    29   16   33 1   
    30   17   34 1   
    31   17   35 1   
    32   17   36 1   
@<TRIPOS>SUBSTRUCTURE
     1 DMC         1 TEMP              0 ****  ****    0 ROOT
