@<TRIPOS>MOLECULE
DMC
   37    37     1     0     0
SMALL
bcc


@<TRIPOS>ATOM
      1 O           0.6880    2.1020    0.2960 o         1 DMC     -0.795800
      2 C           0.9420    0.8890    0.0750 c         1 DMC      0.898800
      3 CA          1.7070    0.1280    1.1800 ce        1 DMC     -0.045400
      4 CB1         1.7160    0.6530    2.4230 cf        1 DMC     -0.275200
      5 CB2         2.3770   -1.1110    0.7530 c3        1 DMC     -0.079900
      6 CG          2.3460    0.1280    3.6020 ca        1 DMC      0.022200
      7 CD1         2.9330    1.0180    4.5470 ca        1 DMC      0.135100
      8 CE1         3.5160    0.5510    5.7270 ca        1 DMC     -0.156000
      9 CZ          3.5270   -0.8320    5.9780 ca        1 DMC     -0.082400
     10 CE2         2.9640   -1.7310    5.0580 ca        1 DMC     -0.134000
     11 CD2         2.3850   -1.2420    3.8920 ca        1 DMC     -0.115000
     12 OH          2.9740    2.3770    4.3780 oh        1 DMC     -0.501100
     13 N           4.1310   -1.3620    7.2100 n4        1 DMC     -0.541800
     14 CH1         5.4100   -0.6580    7.5510 c3        1 DMC      0.115300
     15 CH2         3.1500   -1.3730    8.3490 c3        1 DMC      0.115300
     16 CM1         6.3310   -1.4820    8.4270 c3        1 DMC     -0.127100
     17 CM2         2.6340   -0.0190    8.7830 c3        1 DMC     -0.127100
     18 OXT         0.6360    0.2330   -0.9520 o         1 DMC     -0.795800
     19 HB1         1.1750    1.6150    2.5480 ha        1 DMC      0.167000
     20 HB21        1.6250   -1.9420    0.7290 hc        1 DMC      0.049033
     21 HB22        2.7590   -0.9850   -0.2940 hc        1 DMC      0.049033
     22 HB23        3.2240   -1.4020    1.4220 hc        1 DMC      0.049033
     23 HE1         3.9550    1.2800    6.4250 ha        1 DMC      0.150000
     24 HE2         2.9660   -2.8170    5.2420 ha        1 DMC      0.132000
     25 HD2         1.9290   -1.9480    3.1770 ha        1 DMC      0.171000
     26 HO          2.6450    2.5940    3.4850 ho        1 DMC      0.468000
     27 HH11        5.9280   -0.4140    6.5760 hx        1 DMC      0.097700
     28 HH12        5.1510    0.3120    8.0610 hx        1 DMC      0.097700
     29 HH21        2.2800   -2.0070    8.0080 hx        1 DMC      0.097700
     30 HH22        3.6620   -1.8830    9.2140 hx        1 DMC      0.097700
     31 HM11        7.2700   -0.8930    8.5890 hc        1 DMC      0.070867
     32 HM12        5.8770   -1.6940    9.4250 hc        1 DMC      0.070867
     33 HM13        6.6080   -2.4500    7.9420 hc        1 DMC      0.070867
     34 HM21        2.2110    0.5550    7.9200 hc        1 DMC      0.070867
     35 HM22        1.8170   -0.1860    9.5290 hc        1 DMC      0.070867
     36 HM23        3.4310    0.5940    9.2680 hc        1 DMC      0.070867
     37 H           4.3690   -2.3480    7.0220 hn        1 DMC      0.438800
@<TRIPOS>BOND
     1    1    2 1   
     2    2    3 1   
     3    2   18 1   
     4    3    4 2   
     5    3    5 1   
     6    4    6 1   
     7    4   19 1   
     8    5   20 1   
     9    5   21 1   
    10    5   22 1   
    11    6    7 ar  
    12    6   11 ar  
    13    7    8 ar  
    14    7   12 1   
    15    8    9 ar  
    16    8   23 1   
    17    9   10 ar  
    18    9   13 1   
    19   10   11 ar  
    20   10   24 1   
    21   11   25 1   
    22   12   26 1   
    23   13   14 1   
    24   13   15 1   
    25   13   37 1   
    26   14   16 1   
    27   14   27 1   
    28   14   28 1   
    29   15   17 1   
    30   15   29 1   
    31   15   30 1   
    32   16   31 1   
    33   16   32 1   
    34   16   33 1   
    35   17   34 1   
    36   17   35 1   
    37   17   36 1   
@<TRIPOS>SUBSTRUCTURE
     1 DMC         1 TEMP              0 ****  ****    0 ROOT
