@<TRIPOS>MOLECULE
DMC
   36    36     1     0     0
SMALL
bcc


@<TRIPOS>ATOM
      1 O          -0.0970    0.8400    0.1300 o         1 DMC     -0.830800
      2 C           1.0670    0.3850   -0.0620 c         1 DMC      0.897800
      3 CA          1.9370    0.0940    1.1610 ce        1 DMC     -0.117400
      4 CB1         1.3770    0.0740    2.3810 cf        1 DMC     -0.201200
      5 CB2         3.3680   -0.1460    0.8830 c3        1 DMC     -0.055900
      6 CG          2.0390   -0.1760    3.6490 ca        1 DMC     -0.103800
      7 CD1         1.7620    0.6290    4.7750 ca        1 DMC      0.148100
      8 CE1         2.3610    0.3960    6.0190 ca        1 DMC     -0.227000
      9 CZ          3.2640   -0.6750    6.1780 ca        1 DMC      0.158600
     10 CE2         3.5420   -1.4850    5.0520 ca        1 DMC     -0.214000
     11 CD2         2.9420   -1.2290    3.8250 ca        1 DMC     -0.077000
     12 OH          0.8990    1.7020    4.7320 oh        1 DMC     -0.523100
     13 N           3.8360   -0.9980    7.4310 nh        1 DMC     -0.667000
     14 CH1         5.2180   -1.4410    7.4310 c3        1 DMC      0.205300
     15 CH2         3.4210   -0.2650    8.6030 c3        1 DMC      0.205300
     16 CM1         5.3780   -2.9110    7.8000 c3        1 DMC     -0.116600
     17 CM2         4.0140    1.1220    8.8170 c3        1 DMC     -0.116600
     18 OXT         1.5610    0.1610   -1.2030 o         1 DMC     -0.830800
     19 HB1         0.2880    0.2680    2.4450 ha        1 DMC      0.145000
     20 HB21        3.7030    0.5160    0.0450 hc        1 DMC      0.033700
     21 HB22        4.0100    0.0350    1.7790 hc        1 DMC      0.033700
     22 HB23        3.5060   -1.2060    0.5490 hc        1 DMC      0.033700
     23 HE1         2.1020    1.0690    6.8480 ha        1 DMC      0.136000
     24 HE2         4.2270   -2.3410    5.1400 ha        1 DMC      0.121000
     25 HD2         3.1730   -1.8740    2.9620 ha        1 DMC      0.139000
     26 HO          0.6070    1.8170    3.8120 ho        1 DMC      0.445000
     27 HH11        5.8160   -0.8290    8.1680 h1        1 DMC      0.041200
     28 HH12        5.6830   -1.2750    6.4160 h1        1 DMC      0.041200
     29 HH21        2.2970   -0.1800    8.5770 h1        1 DMC      0.041200
     30 HH22        3.6920   -0.9050    9.4930 h1        1 DMC      0.041200
     31 HM11        4.9660   -3.1170    8.8160 hc        1 DMC      0.035700
     32 HM12        6.4650   -3.1680    7.7930 hc        1 DMC      0.035700
     33 HM13        4.8490   -3.5650    7.0660 hc        1 DMC      0.035700
     34 HM21        3.5410    1.5830    9.7170 hc        1 DMC      0.035700
     35 HM22        5.1160    1.0690    8.9860 hc        1 DMC      0.035700
     36 HM23        3.8270    1.7830    7.9370 hc        1 DMC      0.035700
@<TRIPOS>BOND
     1    1    2 1   
     2    2    3 1   
     3    2   18 1   
     4    3    4 2   
     5    3    5 1   
     6    4    6 1   
     7    4   19 1   
     8    5   20 1   
     9    5   21 1   
    10    5   22 1   
    11    6    7 ar  
    12    6   11 ar  
    13    7    8 ar  
    14    7   12 1   
    15    8    9 ar  
    16    8   23 1   
    17    9   10 ar  
    18    9   13 1   
    19   10   11 ar  
    20   10   24 1   
    21   11   25 1   
    22   12   26 1   
    23   13   14 1   
    24   13   15 1   
    25   14   16 1   
    26   14   27 1   
    27   14   28 1   
    28   15   17 1   
    29   15   29 1   
    30   15   30 1   
    31   16   31 1   
    32   16   32 1   
    33   16   33 1   
    34   17   34 1   
    35   17   35 1   
    36   17   36 1   
@<TRIPOS>SUBSTRUCTURE
     1 DMC         1 TEMP              0 ****  ****    0 ROOT
