@<TRIPOS>MOLECULE
DMD
   21    17     1     0     0
SMALL
bcc


@<TRIPOS>ATOM
      1 N3          0.8080    0.0020   -2.8080 ne        1 DMD     -0.465900
      2 N1          2.5890    0.0020   -1.5150 ne        1 DMD     -0.465900
      3 C2          2.1680    0.0020   -2.8080 c1        1 DMD      0.401800
      4 C7A         1.4930    0.0020   -0.7170 cg        1 DMD     -0.001000
      5 C3A         0.3890    0.0020   -1.5180 cg        1 DMD     -0.001000
      6 C4         -0.8970    0.0020   -0.9450 c1        1 DMD     -0.043000
      7 C5         -1.0410    0.0020    0.4340 c1        1 DMD     -0.044600
      8 C6          0.0800    0.0020    1.2480 c1        1 DMD     -0.044600
      9 C7          1.3460    0.0020    0.6840 c1        1 DMD     -0.043000
     10 C8         -2.5140    0.0330    0.7790 c3        1 DMD     -0.085000
     11 C9          0.1420   -0.0370    2.7590 c3        1 DMD     -0.085000
     12 HN31        0.2730    0.0020   -3.5460 DU        1 DMD      0.225500
     13 H21         2.7410    0.0020   -3.5980 DU        1 DMD      0.225500
     14 H41        -1.6870    0.0020   -1.5180 ha        1 DMD      0.083500
     15 H71         2.1360    0.0020    1.2570 ha        1 DMD      0.083500
     16 H81        -2.6200    0.0990    1.7470 hc        1 DMD      0.043200
     17 H82        -2.9400   -0.7860    0.4600 hc        1 DMD      0.043200
     18 H83        -2.9320    0.8050    0.3520 hc        1 DMD      0.043200
     19 H91         1.0280   -0.3330    3.0410 hc        1 DMD      0.043200
     20 H92        -0.5310   -0.6580    3.0960 hc        1 DMD      0.043200
     21 H93        -0.0310    0.8560    3.1140 hc        1 DMD      0.043200
@<TRIPOS>BOND
     1    1    3 2   
     2    1    5 1   
     3    2    3 2   
     4    2    4 1   
     5    4    9 3   
     6    5    6 3   
     7    6   14 1   
     8    7    8 3   
     9    7   10 1   
    10    8   11 1   
    11    9   15 1   
    12   10   16 1   
    13   10   17 1   
    14   10   18 1   
    15   11   19 1   
    16   11   20 1   
    17   11   21 1   
@<TRIPOS>SUBSTRUCTURE
     1 DMD         1 TEMP              0 ****  ****    0 ROOT
