@<TRIPOS>MOLECULE
DMD
   21    22     1     0     0
SMALL
bcc


@<TRIPOS>ATOM
      1 N3          1.0850   -0.0560   -2.2710 na        1 DMD     -0.292300
      2 N1         -1.2100    0.0870   -2.2610 nc        1 DMD     -0.565100
      3 C2         -0.1060    0.0200   -3.0200 cd        1 DMD      0.416700
      4 C7A        -0.7480    0.0550   -0.9270 ca        1 DMD      0.062400
      5 C3A         0.7030   -0.0350   -0.9250 ca        1 DMD     -0.074200
      6 C4          1.4260   -0.0830    0.2690 ca        1 DMD     -0.135000
      7 C5          0.7140   -0.0410    1.4650 ca        1 DMD     -0.057300
      8 C6         -0.7020    0.0470    1.4760 ca        1 DMD     -0.100300
      9 C7         -1.4320    0.0950    0.2920 ca        1 DMD     -0.066000
     10 C8          1.4500   -0.0900    2.7510 c3        1 DMD     -0.052800
     11 C9         -1.4160    0.0890    2.7750 c3        1 DMD     -0.048800
     12 HN31        2.0030   -0.1130   -2.6170 hn        1 DMD      0.304700
     13 H21        -0.0940    0.0220   -4.1170 h5        1 DMD      0.066800
     14 H41         2.5220   -0.1510    0.2660 ha        1 DMD      0.134000
     15 H71        -2.5300    0.1640    0.3070 ha        1 DMD      0.148000
     16 H81         1.2370    0.8290    3.3530 hc        1 DMD      0.044033
     17 H82         1.1250   -0.9790    3.3490 hc        1 DMD      0.044033
     18 H83         2.5540   -0.1590    2.5900 hc        1 DMD      0.044033
     19 H91        -1.1950   -0.8340    3.3690 hc        1 DMD      0.042367
     20 H92        -1.0820    0.9740    3.3730 hc        1 DMD      0.042367
     21 H93        -2.5210    0.1580    2.6300 hc        1 DMD      0.042367
@<TRIPOS>BOND
     1    1    3 1   
     2    1    5 1   
     3    1   12 1   
     4    2    3 2   
     5    2    4 1   
     6    3   13 1   
     7    4    5 ar  
     8    4    9 ar  
     9    5    6 ar  
    10    6    7 ar  
    11    6   14 1   
    12    7    8 ar  
    13    7   10 1   
    14    8    9 ar  
    15    8   11 1   
    16    9   15 1   
    17   10   16 1   
    18   10   17 1   
    19   10   18 1   
    20   11   19 1   
    21   11   20 1   
    22   11   21 1   
@<TRIPOS>SUBSTRUCTURE
     1 DMD         1 TEMP              0 ****  ****    0 ROOT
