@<TRIPOS>MOLECULE
DME
   56    55     1     0     0
SMALL
bcc


@<TRIPOS>ATOM
      1 N1         -0.0980   -0.0000   -0.0350 n4        1 DME     -0.603800
      2 C2          1.4040    0.0000    0.1150 c3        1 DME      0.112800
      3 C3          1.9250    0.0000    1.5460 c3        1 DME     -0.102400
      4 C4          3.4430    0.0000    1.5190 c3        1 DME     -0.080400
      5 C5          4.0050    0.0000    2.9260 c3        1 DME     -0.079400
      6 C6          5.5200    0.0000    2.9050 c3        1 DME     -0.079400
      7 C7          6.0860   -0.0000    4.3110 c3        1 DME     -0.079400
      8 C8          7.6010   -0.0000    4.2890 c3        1 DME     -0.079400
      9 C9          8.1630   -0.0000    5.6970 c3        1 DME     -0.080400
     10 C10         9.6810   -0.0000    5.6700 c3        1 DME     -0.102400
     11 C11        10.2020   -0.0000    7.1010 c3        1 DME      0.112800
     12 N12        11.7030   -0.0000    7.2500 n4        1 DME     -0.603800
     13 C13        -0.6880    1.2180    0.5940 c3        1 DME      0.088433
     14 C14        -0.6870   -1.2190    0.5930 c3        1 DME      0.088433
     15 C15        -0.4230    0.0010   -1.4960 c3        1 DME      0.088433
     16 C16        12.2930    1.2190    6.6230 c3        1 DME      0.088433
     17 C17        12.0290   -0.0010    8.7120 c3        1 DME      0.088433
     18 C18        12.2930   -1.2180    6.6220 c3        1 DME      0.088433
     19 H21         1.7880   -0.9160   -0.4210 hx        1 DME      0.099700
     20 H22         1.7870    0.9170   -0.4210 hx        1 DME      0.099700
     21 H31         1.5650   -0.9070    2.0990 hc        1 DME      0.065700
     22 H32         1.5650    0.9070    2.0990 hc        1 DME      0.065700
     23 H41         3.8130   -0.9040    0.9670 hc        1 DME      0.055700
     24 H42         3.8130    0.9050    0.9680 hc        1 DME      0.055700
     25 H51         3.6370    0.9040    3.4800 hc        1 DME      0.049700
     26 H52         3.6370   -0.9040    3.4800 hc        1 DME      0.049700
     27 H61         5.8890    0.9030    2.3510 hc        1 DME      0.048700
     28 H62         5.8890   -0.9030    2.3510 hc        1 DME      0.048700
     29 H71         5.7170   -0.9030    4.8640 hc        1 DME      0.048700
     30 H72         5.7170    0.9030    4.8640 hc        1 DME      0.048700
     31 H81         7.9690    0.9040    3.7360 hc        1 DME      0.049700
     32 H82         7.9690   -0.9040    3.7350 hc        1 DME      0.049700
     33 H91         7.7930   -0.9050    6.2480 hc        1 DME      0.055700
     34 H92         7.7930    0.9040    6.2480 hc        1 DME      0.055700
     35 H101       10.0410   -0.9070    5.1160 hc        1 DME      0.065700
     36 H102       10.0410    0.9070    5.1170 hc        1 DME      0.065700
     37 H111        9.8180   -0.9170    7.6370 hx        1 DME      0.099700
     38 H112        9.8180    0.9160    7.6370 hx        1 DME      0.099700
     39 H131       -0.2030    2.1330    0.1610 hx        1 DME      0.102922
     40 H132       -0.5190    1.1900    1.7020 hx        1 DME      0.102922
     41 H133       -1.7920    1.2450    0.3870 hx        1 DME      0.102922
     42 H141       -0.2010   -2.1330    0.1590 hx        1 DME      0.102922
     43 H142       -1.7910   -1.2460    0.3860 hx        1 DME      0.102922
     44 H143       -0.5190   -1.1910    1.7020 hx        1 DME      0.102922
     45 H151        0.0110   -0.9170   -1.9750 hx        1 DME      0.102922
     46 H152        0.0100    0.9190   -1.9740 hx        1 DME      0.102922
     47 H153       -1.5380    0.0000   -1.6280 hx        1 DME      0.102922
     48 H161       13.3960    1.2460    6.8300 hx        1 DME      0.102922
     49 H162       12.1240    1.1920    5.5140 hx        1 DME      0.102922
     50 H163       11.8070    2.1330    7.0570 hx        1 DME      0.102922
     51 H171       13.1440   -0.0000    8.8440 hx        1 DME      0.102922
     52 H172       11.5950   -0.9190    9.1900 hx        1 DME      0.102922
     53 H173       11.5950    0.9170    9.1910 hx        1 DME      0.102922
     54 H181       12.1250   -1.1890    5.5130 hx        1 DME      0.102922
     55 H182       11.8080   -2.1330    7.0550 hx        1 DME      0.102922
     56 H183       13.3970   -1.2450    6.8290 hx        1 DME      0.102922
@<TRIPOS>BOND
     1    1    2 1   
     2    1   13 1   
     3    1   14 1   
     4    1   15 1   
     5    2    3 1   
     6    2   19 1   
     7    2   20 1   
     8    3    4 1   
     9    3   21 1   
    10    3   22 1   
    11    4    5 1   
    12    4   23 1   
    13    4   24 1   
    14    5    6 1   
    15    5   25 1   
    16    5   26 1   
    17    6    7 1   
    18    6   27 1   
    19    6   28 1   
    20    7    8 1   
    21    7   29 1   
    22    7   30 1   
    23    8    9 1   
    24    8   31 1   
    25    8   32 1   
    26    9   10 1   
    27    9   33 1   
    28    9   34 1   
    29   10   11 1   
    30   10   35 1   
    31   10   36 1   
    32   11   12 1   
    33   11   37 1   
    34   11   38 1   
    35   12   16 1   
    36   12   17 1   
    37   12   18 1   
    38   13   39 1   
    39   13   40 1   
    40   13   41 1   
    41   14   42 1   
    42   14   43 1   
    43   14   44 1   
    44   15   45 1   
    45   15   46 1   
    46   15   47 1   
    47   16   48 1   
    48   16   49 1   
    49   16   50 1   
    50   17   51 1   
    51   17   52 1   
    52   17   53 1   
    53   18   54 1   
    54   18   55 1   
    55   18   56 1   
@<TRIPOS>SUBSTRUCTURE
     1 DME         1 TEMP              0 ****  ****    0 ROOT
