@<TRIPOS>MOLECULE
DME
   56    55     1     0     0
SMALL
bcc


@<TRIPOS>ATOM
      1 N1         -0.0970    0.0010   -0.0350 n4        1 DME     -0.603800
      2 C2          1.4040   -0.0010    0.1140 c3        1 DME      0.112800
      3 C3          1.9250   -0.0010    1.5450 c3        1 DME     -0.102400
      4 C4          3.4430   -0.0010    1.5190 c3        1 DME     -0.080400
      5 C5          4.0050   -0.0010    2.9260 c3        1 DME     -0.079400
      6 C6          5.5200   -0.0000    2.9050 c3        1 DME     -0.079400
      7 C7          6.0850   -0.0010    4.3110 c3        1 DME     -0.079400
      8 C8          7.6000    0.0000    4.2900 c3        1 DME     -0.079400
      9 C9          8.1620   -0.0010    5.6970 c3        1 DME     -0.080400
     10 C10         9.6810    0.0000    5.6710 c3        1 DME     -0.102400
     11 C11        10.2010   -0.0020    7.1020 c3        1 DME      0.112800
     12 N12        11.7030   -0.0000    7.2510 n4        1 DME     -0.603800
     13 C13        -0.6850    1.2210    0.5900 c3        1 DME      0.088433
     14 C14        -0.6880   -1.2160    0.5940 c3        1 DME      0.088433
     15 C15        -0.4220   -0.0010   -1.4970 c3        1 DME      0.088433
     16 C16        12.2910    1.2210    6.6280 c3        1 DME      0.088433
     17 C17        12.0280   -0.0050    8.7130 c3        1 DME      0.088433
     18 C18        12.2940   -1.2160    6.6200 c3        1 DME      0.088433
     19 H21         1.7870   -0.9180   -0.4210 hx        1 DME      0.099700
     20 H22         1.7890    0.9150   -0.4220 hx        1 DME      0.099700
     21 H31         1.5650   -0.9080    2.0990 hc        1 DME      0.065700
     22 H32         1.5650    0.9060    2.0990 hc        1 DME      0.065700
     23 H41         3.8130   -0.9050    0.9670 hc        1 DME      0.055700
     24 H42         3.8130    0.9040    0.9680 hc        1 DME      0.055700
     25 H51         3.6360    0.9020    3.4810 hc        1 DME      0.049700
     26 H52         3.6370   -0.9050    3.4790 hc        1 DME      0.049700
     27 H61         5.8880    0.9040    2.3520 hc        1 DME      0.048700
     28 H62         5.8890   -0.9030    2.3510 hc        1 DME      0.048700
     29 H71         5.7170   -0.9050    4.8640 hc        1 DME      0.048700
     30 H72         5.7160    0.9020    4.8650 hc        1 DME      0.048700
     31 H81         7.9680    0.9050    3.7370 hc        1 DME      0.049700
     32 H82         7.9690   -0.9030    3.7350 hc        1 DME      0.049700
     33 H91         7.7930   -0.9060    6.2480 hc        1 DME      0.055700
     34 H92         7.7920    0.9030    6.2500 hc        1 DME      0.055700
     35 H101       10.0410   -0.9050    5.1160 hc        1 DME      0.065700
     36 H102       10.0400    0.9080    5.1190 hc        1 DME      0.065700
     37 H111        9.8190   -0.9200    7.6360 hx        1 DME      0.099700
     38 H112        9.8160    0.9130    7.6390 hx        1 DME      0.099700
     39 H131       -0.1990    2.1340    0.1560 hx        1 DME      0.102922
     40 H132       -0.5170    1.1940    1.7000 hx        1 DME      0.102922
     41 H133       -1.7890    1.2490    0.3830 hx        1 DME      0.102922
     42 H141       -0.2040   -2.1320    0.1620 hx        1 DME      0.102922
     43 H142       -1.7920   -1.2420    0.3870 hx        1 DME      0.102922
     44 H143       -0.5200   -1.1870    1.7020 hx        1 DME      0.102922
     45 H151        0.0100   -0.9200   -1.9740 hx        1 DME      0.102922
     46 H152        0.0130    0.9160   -1.9770 hx        1 DME      0.102922
     47 H153       -1.5370    0.0010   -1.6290 hx        1 DME      0.102922
     48 H161       13.3950    1.2480    6.8340 hx        1 DME      0.102922
     49 H162       12.1220    1.1960    5.5190 hx        1 DME      0.102922
     50 H163       11.8040    2.1330    7.0640 hx        1 DME      0.102922
     51 H171       13.1430   -0.0030    8.8450 hx        1 DME      0.102922
     52 H172       11.5960   -0.9250    9.1880 hx        1 DME      0.102922
     53 H173       11.5930    0.9110    9.1940 hx        1 DME      0.102922
     54 H181       12.1260   -1.1840    5.5110 hx        1 DME      0.102922
     55 H182       11.8100   -2.1330    7.0500 hx        1 DME      0.102922
     56 H183       13.3980   -1.2420    6.8270 hx        1 DME      0.102922
@<TRIPOS>BOND
     1    1    2 1   
     2    1   13 1   
     3    1   14 1   
     4    1   15 1   
     5    2    3 1   
     6    2   19 1   
     7    2   20 1   
     8    3    4 1   
     9    3   21 1   
    10    3   22 1   
    11    4    5 1   
    12    4   23 1   
    13    4   24 1   
    14    5    6 1   
    15    5   25 1   
    16    5   26 1   
    17    6    7 1   
    18    6   27 1   
    19    6   28 1   
    20    7    8 1   
    21    7   29 1   
    22    7   30 1   
    23    8    9 1   
    24    8   31 1   
    25    8   32 1   
    26    9   10 1   
    27    9   33 1   
    28    9   34 1   
    29   10   11 1   
    30   10   35 1   
    31   10   36 1   
    32   11   12 1   
    33   11   37 1   
    34   11   38 1   
    35   12   16 1   
    36   12   17 1   
    37   12   18 1   
    38   13   39 1   
    39   13   40 1   
    40   13   41 1   
    41   14   42 1   
    42   14   43 1   
    43   14   44 1   
    44   15   45 1   
    45   15   46 1   
    46   15   47 1   
    47   16   48 1   
    48   16   49 1   
    49   16   50 1   
    50   17   51 1   
    51   17   52 1   
    52   17   53 1   
    53   18   54 1   
    54   18   55 1   
    55   18   56 1   
@<TRIPOS>SUBSTRUCTURE
     1 DME         1 TEMP              0 ****  ****    0 ROOT
