@<TRIPOS>MOLECULE
DME
   56    55     1     0     0
SMALL
bcc


@<TRIPOS>ATOM
      1 N1         -5.8670    0.1000   -3.6380 n4        1 DME     -0.603800
      2 C2         -4.4130    0.0730   -3.6400 c3        1 DME      0.112800
      3 C3         -3.8930    0.0470   -2.1790 c3        1 DME     -0.102400
      4 C4         -2.3680    0.0100   -2.1830 c3        1 DME     -0.080400
      5 C5         -1.8490    0.0520   -0.7420 c3        1 DME     -0.079400
      6 C6         -0.2880   -0.0310   -0.7490 c3        1 DME     -0.079400
      7 C7          0.2430    0.0030    0.7230 c3        1 DME     -0.079400
      8 C8          1.8330   -0.0840    0.7210 c3        1 DME     -0.079400
      9 C9          2.3510    0.0270    2.1680 c3        1 DME     -0.080400
     10 C10         3.9090   -0.1030    2.1800 c3        1 DME     -0.102400
     11 C11         4.4400    0.1070    3.6360 c3        1 DME      0.112800
     12 N12         5.8850   -0.0670    3.6550 n4        1 DME     -0.603800
     13 C13        -6.3540    0.1260   -5.0130 c3        1 DME      0.088433
     14 C14        -6.3830   -1.1030   -2.9550 c3        1 DME      0.088433
     15 C15        -6.3170    1.2610   -2.9570 c3        1 DME      0.088433
     16 C16         6.4920    0.8500    2.7190 c3        1 DME      0.088433
     17 C17         6.3790    0.1950    4.9660 c3        1 DME      0.088433
     18 C18         6.2100   -1.4220    3.2820 c3        1 DME      0.088433
     19 H21        -4.0720    0.8770   -4.0960 hx        1 DME      0.099700
     20 H22        -4.1030   -0.7230   -4.1100 hx        1 DME      0.099700
     21 H31        -4.2390   -0.7500   -1.7220 hc        1 DME      0.065700
     22 H32        -4.1990    0.8520   -1.7080 hc        1 DME      0.065700
     23 H41        -2.0260    0.7780   -2.6720 hc        1 DME      0.055700
     24 H42        -2.0630   -0.8160   -2.6150 hc        1 DME      0.055700
     25 H51        -2.2160   -0.7090   -0.2370 hc        1 DME      0.049700
     26 H52        -2.1300    0.8920   -0.3180 hc        1 DME      0.049700
     27 H61        -0.0100   -0.8630   -1.1760 hc        1 DME      0.048700
     28 H62         0.0780    0.7310   -1.2460 hc        1 DME      0.048700
     29 H71        -0.1250   -0.7590    1.2210 hc        1 DME      0.048700
     30 H72        -0.0380    0.8430    1.1520 hc        1 DME      0.048700
     31 H81         2.1120   -0.9360    0.3420 hc        1 DME      0.049700
     32 H82         2.2030    0.6530    0.1820 hc        1 DME      0.049700
     33 H91         2.0940    0.8950    2.5400 hc        1 DME      0.055700
     34 H92         1.9640   -0.6830    2.7050 hc        1 DME      0.055700
     35 H101        4.3040    0.5850    1.5800 hc        1 DME      0.065700
     36 H102        4.1660   -1.0040    1.8620 hc        1 DME      0.065700
     37 H111        4.2160    1.0070    3.9380 hx        1 DME      0.099700
     38 H112        4.0230   -0.5530    4.2360 hx        1 DME      0.099700
     39 H131       -6.0220   -0.6620   -5.4940 hx        1 DME      0.102922
     40 H132       -7.3420    0.1190   -5.0140 hx        1 DME      0.102922
     41 H133       -6.0320    0.9440   -5.4590 hx        1 DME      0.102922
     42 H141       -5.9060   -1.8940   -3.2810 hx        1 DME      0.102922
     43 H142       -6.2450   -1.0140   -1.9880 hx        1 DME      0.102922
     44 H143       -7.3580   -1.2000   -3.1450 hx        1 DME      0.102922
     45 H151       -6.3060    1.0990   -1.9940 hx        1 DME      0.102922
     46 H152       -7.2310    1.4750   -3.2440 hx        1 DME      0.102922
     47 H153       -5.7230    2.0150   -3.1690 hx        1 DME      0.102922
     48 H161        7.4640    0.9330    2.9170 hx        1 DME      0.102922
     49 H162        6.3720    0.5150    1.8130 hx        1 DME      0.102922
     50 H163        6.0630    1.7350    2.8020 hx        1 DME      0.102922
     51 H171        6.1680    1.1280    5.2180 hx        1 DME      0.102922
     52 H172        5.9570   -0.4210    5.6060 hx        1 DME      0.102922
     53 H173        7.3430    0.0660    4.9790 hx        1 DME      0.102922
     54 H181        7.1070   -1.6500    3.6180 hx        1 DME      0.102922
     55 H182        5.5440   -2.0410    3.6740 hx        1 DME      0.102922
     56 H183        6.1960   -1.5040    2.3070 hx        1 DME      0.102922
@<TRIPOS>BOND
     1    1    2 1   
     2    1   13 1   
     3    1   14 1   
     4    1   15 1   
     5    2    3 1   
     6    2   19 1   
     7    2   20 1   
     8    3    4 1   
     9    3   21 1   
    10    3   22 1   
    11    4    5 1   
    12    4   23 1   
    13    4   24 1   
    14    5    6 1   
    15    5   25 1   
    16    5   26 1   
    17    6    7 1   
    18    6   27 1   
    19    6   28 1   
    20    7    8 1   
    21    7   29 1   
    22    7   30 1   
    23    8    9 1   
    24    8   31 1   
    25    8   32 1   
    26    9   10 1   
    27    9   33 1   
    28    9   34 1   
    29   10   11 1   
    30   10   35 1   
    31   10   36 1   
    32   11   12 1   
    33   11   37 1   
    34   11   38 1   
    35   12   16 1   
    36   12   17 1   
    37   12   18 1   
    38   13   39 1   
    39   13   40 1   
    40   13   41 1   
    41   14   42 1   
    42   14   43 1   
    43   14   44 1   
    44   15   45 1   
    45   15   46 1   
    46   15   47 1   
    47   16   48 1   
    48   16   49 1   
    49   16   50 1   
    50   17   51 1   
    51   17   52 1   
    52   17   53 1   
    53   18   54 1   
    54   18   55 1   
    55   18   56 1   
@<TRIPOS>SUBSTRUCTURE
     1 DME         1 TEMP              0 ****  ****    0 ROOT
