@<TRIPOS>MOLECULE
DME
   56    55     1     0     0
SMALL
bcc


@<TRIPOS>ATOM
      1 N1         -6.9340    0.0520    0.0000 n4        1 DME     -0.603800
      2 C2         -5.5830   -0.6200   -0.0000 c3        1 DME      0.112800
      3 C3         -4.3810    0.3150    0.0000 c3        1 DME     -0.102400
      4 C4         -3.1090   -0.5140   -0.0000 c3        1 DME     -0.080400
      5 C5         -1.8850    0.3790    0.0000 c3        1 DME     -0.079400
      6 C6         -0.6130   -0.4450   -0.0000 c3        1 DME     -0.079400
      7 C7          0.6130    0.4450    0.0000 c3        1 DME     -0.079400
      8 C8          1.8850   -0.3790   -0.0000 c3        1 DME     -0.079400
      9 C9          3.1090    0.5140    0.0000 c3        1 DME     -0.080400
     10 C10         4.3810   -0.3150   -0.0000 c3        1 DME     -0.102400
     11 C11         5.5830    0.6200    0.0000 c3        1 DME      0.112800
     12 N12         6.9340   -0.0520   -0.0000 n4        1 DME     -0.603800
     13 C13        -7.1000    0.8980   -1.2180 c3        1 DME      0.088433
     14 C14        -7.1000    0.8960    1.2190 c3        1 DME      0.088433
     15 C15        -7.9870   -1.0130   -0.0010 c3        1 DME      0.088433
     16 C16         7.1000   -0.8960   -1.2190 c3        1 DME      0.088433
     17 C17         7.9870    1.0130    0.0010 c3        1 DME      0.088433
     18 C18         7.1000   -0.8980    1.2180 c3        1 DME      0.088433
     19 H21        -5.5430   -1.2780    0.9150 hx        1 DME      0.099700
     20 H22        -5.5430   -1.2770   -0.9170 hx        1 DME      0.099700
     21 H31        -4.3920    0.9760   -0.9060 hc        1 DME      0.065700
     22 H32        -4.3920    0.9750    0.9080 hc        1 DME      0.065700
     23 H41        -3.0890   -1.1790    0.9040 hc        1 DME      0.055700
     24 H42        -3.0890   -1.1780   -0.9050 hc        1 DME      0.055700
     25 H51        -1.9020    1.0440   -0.9030 hc        1 DME      0.049700
     26 H52        -1.9020    1.0430    0.9040 hc        1 DME      0.049700
     27 H61        -0.5950   -1.1110    0.9030 hc        1 DME      0.048700
     28 H62        -0.5950   -1.1090   -0.9040 hc        1 DME      0.048700
     29 H71         0.5950    1.1110   -0.9030 hc        1 DME      0.048700
     30 H72         0.5950    1.1090    0.9040 hc        1 DME      0.048700
     31 H81         1.9020   -1.0440    0.9030 hc        1 DME      0.049700
     32 H82         1.9020   -1.0430   -0.9040 hc        1 DME      0.049700
     33 H91         3.0890    1.1790   -0.9040 hc        1 DME      0.055700
     34 H92         3.0890    1.1780    0.9050 hc        1 DME      0.055700
     35 H101        4.3920   -0.9760    0.9060 hc        1 DME      0.065700
     36 H102        4.3920   -0.9750   -0.9080 hc        1 DME      0.065700
     37 H111        5.5430    1.2780   -0.9150 hx        1 DME      0.099700
     38 H112        5.5430    1.2770    0.9170 hx        1 DME      0.099700
     39 H131       -6.3670    1.7480   -1.1890 hx        1 DME      0.102922
     40 H132       -6.9190    0.2730   -2.1330 hx        1 DME      0.102922
     41 H133       -8.1450    1.3100   -1.2450 hx        1 DME      0.102922
     42 H141       -8.1450    1.3080    1.2460 hx        1 DME      0.102922
     43 H142       -6.9190    0.2710    2.1330 hx        1 DME      0.102922
     44 H143       -6.3680    1.7460    1.1920 hx        1 DME      0.102922
     45 H151       -7.8740   -1.6480   -0.9190 hx        1 DME      0.102922
     46 H152       -7.8740   -1.6490    0.9170 hx        1 DME      0.102922
     47 H153       -9.0010   -0.5320   -0.0000 hx        1 DME      0.102922
     48 H161        6.9190   -0.2710   -2.1330 hx        1 DME      0.102922
     49 H162        8.1450   -1.3080   -1.2460 hx        1 DME      0.102922
     50 H163        6.3680   -1.7460   -1.1920 hx        1 DME      0.102922
     51 H171        7.8740    1.6480    0.9190 hx        1 DME      0.102922
     52 H172        9.0010    0.5320    0.0000 hx        1 DME      0.102922
     53 H173        7.8740    1.6490   -0.9170 hx        1 DME      0.102922
     54 H181        6.3670   -1.7480    1.1890 hx        1 DME      0.102922
     55 H182        8.1450   -1.3090    1.2450 hx        1 DME      0.102922
     56 H183        6.9190   -0.2730    2.1330 hx        1 DME      0.102922
@<TRIPOS>BOND
     1    1    2 1   
     2    1   13 1   
     3    1   14 1   
     4    1   15 1   
     5    2    3 1   
     6    2   19 1   
     7    2   20 1   
     8    3    4 1   
     9    3   21 1   
    10    3   22 1   
    11    4    5 1   
    12    4   23 1   
    13    4   24 1   
    14    5    6 1   
    15    5   25 1   
    16    5   26 1   
    17    6    7 1   
    18    6   27 1   
    19    6   28 1   
    20    7    8 1   
    21    7   29 1   
    22    7   30 1   
    23    8    9 1   
    24    8   31 1   
    25    8   32 1   
    26    9   10 1   
    27    9   33 1   
    28    9   34 1   
    29   10   11 1   
    30   10   35 1   
    31   10   36 1   
    32   11   12 1   
    33   11   37 1   
    34   11   38 1   
    35   12   16 1   
    36   12   17 1   
    37   12   18 1   
    38   13   39 1   
    39   13   40 1   
    40   13   41 1   
    41   14   42 1   
    42   14   43 1   
    43   14   44 1   
    44   15   45 1   
    45   15   46 1   
    46   15   47 1   
    47   16   48 1   
    48   16   49 1   
    49   16   50 1   
    50   17   51 1   
    51   17   52 1   
    52   17   53 1   
    53   18   54 1   
    54   18   55 1   
    55   18   56 1   
@<TRIPOS>SUBSTRUCTURE
     1 DME         1 TEMP              0 ****  ****    0 ROOT
