@<TRIPOS>MOLECULE
DMF
   13    12     1     0     0
SMALL
bcc


@<TRIPOS>ATOM
      1 C1          0.0650   -0.1040    0.0040 c3        1 DMF      0.081100
      2 C2          2.1530    0.0890    1.2720 c3        1 DMF      0.081100
      3 C           2.1870    0.0270   -1.2230 c         1 DMF      0.543900
      4 O           3.2250   -0.5870   -1.1020 o         1 DMF     -0.362100
      5 N           1.4390    0.4630    0.0240 n4        1 DMF     -0.611200
      6 H11        -0.5010    0.2580    0.9050 hx        1 DMF      0.112200
      7 H12        -0.4670    0.2280   -0.9280 hx        1 DMF      0.112200
      8 H13         0.1230   -1.2260    0.0310 hx        1 DMF      0.112200
      9 H21         2.2500   -1.0280    1.3290 hx        1 DMF      0.112200
     10 H22         3.1810    0.5450    1.2610 hx        1 DMF      0.112200
     11 H23         1.5770    0.4670    2.1590 hx        1 DMF      0.112200
     12 HC          1.6610    0.3390   -2.1550 hx        1 DMF      0.133200
     13 HN1         1.3670    1.4900   -0.0080 hn        1 DMF      0.461800
@<TRIPOS>BOND
     1    1    5 1   
     2    1    6 1   
     3    1    7 1   
     4    1    8 1   
     5    2    5 1   
     6    2    9 1   
     7    2   10 1   
     8    2   11 1   
     9    3    4 2   
    10    3    5 1   
    11    3   12 1   
    12    5   13 1   
@<TRIPOS>SUBSTRUCTURE
     1 DMF         1 TEMP              0 ****  ****    0 ROOT
