@<TRIPOS>MOLECULE
DMF
   13    12     1     0     0
SMALL
bcc


@<TRIPOS>ATOM
      1 C1          0.0790    0.1990    0.0420 c3        1 DMF      0.081100
      2 C2          2.1740   -0.1840    1.2530 c3        1 DMF      0.081100
      3 C           2.1600   -0.0290   -1.2390 c         1 DMF      0.543900
      4 O           3.2420    0.5050   -1.1190 o         1 DMF     -0.362100
      5 N           1.4100   -0.4600    0.0090 n4        1 DMF     -0.611200
      6 H11        -0.4920   -0.1580    0.9420 hx        1 DMF      0.112367
      7 H12        -0.4940   -0.0610   -0.8880 hx        1 DMF      0.112367
      8 H13         0.2130    1.3120    0.1080 hx        1 DMF      0.112367
      9 H21         2.3480    0.9210    1.3490 hx        1 DMF      0.112367
     10 H22         3.1680   -0.7080    1.2010 hx        1 DMF      0.112367
     11 H23         1.5920   -0.5560    2.1390 hx        1 DMF      0.112367
     12 HC          1.5940   -0.2660   -2.1680 hx        1 DMF      0.133200
     13 HN1         1.2670   -1.4790   -0.0590 hn        1 DMF      0.461800
@<TRIPOS>BOND
     1    1    5 1   
     2    1    6 1   
     3    1    7 1   
     4    1    8 1   
     5    2    5 1   
     6    2    9 1   
     7    2   10 1   
     8    2   11 1   
     9    3    4 2   
    10    3    5 1   
    11    3   12 1   
    12    5   13 1   
@<TRIPOS>SUBSTRUCTURE
     1 DMF         1 TEMP              0 ****  ****    0 ROOT
