@<TRIPOS>MOLECULE
DMF
   12    11     1     0     0
SMALL
bcc


@<TRIPOS>ATOM
      1 C1         -0.6820   -0.0110    1.6600 c3        1 DMF      0.079300
      2 C2          1.4200    0.1740    0.4280 c3        1 DMF      0.079300
      3 C          -0.6850   -0.2150   -0.7830 c         1 DMF      0.660900
      4 O          -0.1250   -0.2310   -1.8910 o         1 DMF     -0.604100
      5 N          -0.0010   -0.0230    0.4000 n         1 DMF     -0.494800
      6 H11        -1.7830   -0.1730    1.5210 h1        1 DMF      0.041700
      7 H12        -0.2790   -0.8230    2.3240 h1        1 DMF      0.041700
      8 H13        -0.5260    0.9770    2.1740 h1        1 DMF      0.041700
      9 H21         1.8310    0.1430   -0.6160 h1        1 DMF      0.041700
     10 H22         1.6620    1.1690    0.8900 h1        1 DMF      0.041700
     11 H23         1.9090   -0.6310    1.0400 h1        1 DMF      0.041700
     12 HC         -1.7850   -0.3560   -0.6620 h5        1 DMF      0.028200
@<TRIPOS>BOND
     1    1    5 1   
     2    1    6 1   
     3    1    7 1   
     4    1    8 1   
     5    2    5 1   
     6    2    9 1   
     7    2   10 1   
     8    2   11 1   
     9    3    4 2   
    10    3    5 1   
    11    3   12 1   
@<TRIPOS>SUBSTRUCTURE
     1 DMF         1 TEMP              0 ****  ****    0 ROOT
