@<TRIPOS>MOLECULE
DMF
   13    12     1     0     0
SMALL
bcc


@<TRIPOS>ATOM
      1 C1          0.0730    0.2660   -0.1040 c3        1 DMF      0.081100
      2 C2          2.0340   -0.1960    1.3000 c3        1 DMF      0.081100
      3 C           2.2700   -0.1020   -1.1450 c         1 DMF      0.547900
      4 O           2.9270    0.6750   -1.8060 o         1 DMF     -0.366100
      5 N           1.5370    0.4550    0.0620 nx        1 DMF     -0.613200
      6 H11        -0.4620    0.7050    0.7810 hx        1 DMF      0.110700
      7 H12        -0.2640    0.7860   -1.0410 hx        1 DMF      0.110700
      8 H13        -0.1630   -0.8300   -0.1710 hx        1 DMF      0.110700
      9 H21         1.8310   -1.3000    1.2570 hx        1 DMF      0.110700
     10 H22         3.1390   -0.0150    1.3960 hx        1 DMF      0.110700
     11 H23         1.5050    0.2420    2.1900 hx        1 DMF      0.110700
     12 HC          2.1080   -1.1940   -1.2790 hx        1 DMF      0.136200
     13 HN1         1.7270    1.4680    0.1290 hn        1 DMF      0.465800
@<TRIPOS>BOND
     1    1    5 1   
     2    1    6 1   
     3    1    7 1   
     4    1    8 1   
     5    2    5 1   
     6    2    9 1   
     7    2   10 1   
     8    2   11 1   
     9    3    4 2   
    10    3    5 1   
    11    3   12 1   
    12    5   13 1   
@<TRIPOS>SUBSTRUCTURE
     1 DMF         1 TEMP              0 ****  ****    0 ROOT
