@<TRIPOS>MOLECULE
DMG
   15    14     1     0     0
SMALL
bcc


@<TRIPOS>ATOM
      1 OXT         0.5550    1.0960   -0.2150 o         1 DMG     -0.844300
      2 O           1.3640   -0.8510   -0.9490 o         1 DMG     -0.844300
      3 C           1.2820    0.0720   -0.0900 c         1 DMG      0.920600
      4 CA          2.0430   -0.0760    1.2580 c3        1 DMG      0.047800
      5 N           3.4940   -0.1300    1.1670 n3        1 DMG     -0.715600
      6 C4          4.1160   -0.1000    2.4720 c3        1 DMG      0.156600
      7 C5          3.9990   -1.2090    0.3520 c3        1 DMG      0.156600
      8 HA1         1.6330   -0.9960    1.7670 h1        1 DMG      0.010200
      9 HA2         1.7800    0.8160    1.8910 h1        1 DMG      0.010200
     10 H41         3.8700   -0.9940    3.1130 h1        1 DMG      0.016867
     11 H42         3.7830    0.8210    3.0170 h1        1 DMG      0.016867
     12 H43         5.2300   -0.0610    2.3470 h1        1 DMG      0.016867
     13 H51         3.4310   -1.2300   -0.6190 h1        1 DMG      0.016867
     14 H52         5.0880   -1.0270    0.1500 h1        1 DMG      0.016867
     15 H53         3.9020   -2.2180    0.8440 h1        1 DMG      0.016867
@<TRIPOS>BOND
     1    1    3 1   
     2    2    3 1   
     3    3    4 1   
     4    4    5 1   
     5    4    8 1   
     6    4    9 1   
     7    5    6 1   
     8    5    7 1   
     9    6   10 1   
    10    6   11 1   
    11    6   12 1   
    12    7   13 1   
    13    7   14 1   
    14    7   15 1   
@<TRIPOS>SUBSTRUCTURE
     1 DMG         1 TEMP              0 ****  ****    0 ROOT
