@<TRIPOS>MOLECULE
DMG
   15    14     1     0     0
SMALL
bcc


@<TRIPOS>ATOM
      1 OXT        -2.6510    0.7440   -1.4390 o         1 DMG     -0.844300
      2 O          -0.7620    0.7440   -2.5290 o         1 DMG     -0.844300
      3 C          -1.3920    0.7440   -1.4390 c         1 DMG      0.920600
      4 CA         -0.6350    0.7440   -0.1290 c3        1 DMG      0.047800
      5 N           0.3170   -0.3130   -0.1310 n3        1 DMG     -0.715600
      6 C4         -0.0960   -1.3250    0.7820 c3        1 DMG      0.156600
      7 C5          1.5880    0.1930    0.2640 c3        1 DMG      0.156600
      8 HA1        -1.2620    0.6160    0.6090 h1        1 DMG      0.010200
      9 HA2        -0.1740    1.5970   -0.0190 h1        1 DMG      0.010200
     10 H41        -0.1390   -0.9520    1.6830 h1        1 DMG      0.016867
     11 H42        -0.9770   -1.6570    0.5240 h1        1 DMG      0.016867
     12 H43         0.5470   -2.0600    0.7640 h1        1 DMG      0.016867
     13 H51         2.2340   -0.5380    0.2920 h1        1 DMG      0.016867
     14 H52         1.5160    0.5990    1.1490 h1        1 DMG      0.016867
     15 H53         1.8850    0.8650   -0.3790 h1        1 DMG      0.016867
@<TRIPOS>BOND
     1    1    3 1   
     2    2    3 1   
     3    3    4 1   
     4    4    5 1   
     5    4    8 1   
     6    4    9 1   
     7    5    6 1   
     8    5    7 1   
     9    6   10 1   
    10    6   11 1   
    11    6   12 1   
    12    7   13 1   
    13    7   14 1   
    14    7   15 1   
@<TRIPOS>SUBSTRUCTURE
     1 DMG         1 TEMP              0 ****  ****    0 ROOT
