@<TRIPOS>MOLECULE
DMG
   15    14     1     0     0
SMALL
bcc


@<TRIPOS>ATOM
      1 OXT        -0.7010    0.8080   -2.1280 o         1 DMG     -0.844300
      2 O           0.9920   -0.5440   -1.5890 o         1 DMG     -0.844300
      3 C          -0.0900    0.0520   -1.3230 c         1 DMG      0.920600
      4 CA         -0.7840   -0.2120    0.0430 c3        1 DMG      0.047800
      5 N          -0.0400    0.1960    1.2250 n3        1 DMG     -0.715600
      6 C4         -0.8290    0.0650    2.4290 c3        1 DMG      0.156600
      7 C5          1.2540   -0.4290    1.3570 c3        1 DMG      0.156600
      8 HA1        -1.0330   -1.3120    0.0780 h1        1 DMG      0.010200
      9 HA2        -1.7520    0.3620    0.0430 h1        1 DMG      0.010200
     10 H41        -0.2440    0.4670    3.2980 h1        1 DMG      0.016867
     11 H42        -1.7680    0.6680    2.3200 h1        1 DMG      0.016867
     12 H43        -1.1210   -0.9960    2.6690 h1        1 DMG      0.016867
     13 H51         1.7940   -0.3610    0.3720 h1        1 DMG      0.016867
     14 H52         1.8380    0.1160    2.1460 h1        1 DMG      0.016867
     15 H53         1.1950   -1.5120    1.6580 h1        1 DMG      0.016867
@<TRIPOS>BOND
     1    1    3 1   
     2    2    3 1   
     3    3    4 1   
     4    4    5 1   
     5    4    8 1   
     6    4    9 1   
     7    5    6 1   
     8    5    7 1   
     9    6   10 1   
    10    6   11 1   
    11    6   12 1   
    12    7   13 1   
    13    7   14 1   
    14    7   15 1   
@<TRIPOS>SUBSTRUCTURE
     1 DMG         1 TEMP              0 ****  ****    0 ROOT
