@<TRIPOS>MOLECULE
DMH
   22    21     1     0     0
SMALL
bcc


@<TRIPOS>ATOM
      1 N          -1.7160    0.2100   -1.2630 n3        1 DMH     -0.885800
      2 CA         -0.3710    0.0790   -0.7200 c3        1 DMH      0.020500
      3 CB         -0.1710   -1.1890    0.1170 c3        1 DMH     -0.130400
      4 CG         -0.4470   -0.9810    1.5900 c         1 DMH      0.674100
      5 OD1        -1.4200   -1.5430    2.1450 o         1 DMH     -0.657100
      6 ND2         0.4200   -0.2170    2.3660 n         1 DMH     -0.478800
      7 CE1         0.1150    0.0510    3.7410 c3        1 DMH      0.068300
      8 CE2         1.5350    0.5050    1.8260 c3        1 DMH      0.068300
      9 C           0.7740    0.1490   -1.7890 c         1 DMH      0.886600
     10 O           0.4600    0.3700   -2.9900 o         1 DMH     -0.838800
     11 OXT         1.9590    0.0060   -1.3700 o         1 DMH     -0.838800
     12 H2         -1.6710    0.8900   -2.0060 hn        1 DMH      0.334300
     13 H          -1.9820   -0.6590   -1.6900 hn        1 DMH      0.334300
     14 HA1        -0.2190    0.9860   -0.0620 h1        1 DMH      0.048700
     15 HB2         0.8890   -1.5420   -0.0170 hc        1 DMH      0.075200
     16 HB3        -0.8490   -2.0140   -0.2280 hc        1 DMH      0.075200
     17 HE11        0.9950   -0.2220    4.3840 h1        1 DMH      0.040200
     18 HE12       -0.1030    1.1440    3.8920 h1        1 DMH      0.040200
     19 HE13       -0.7770   -0.5450    4.0710 h1        1 DMH      0.040200
     20 HE21        2.4410    0.3120    2.4630 h1        1 DMH      0.040200
     21 HE22        1.7670    0.2030    0.7630 h1        1 DMH      0.040200
     22 HE23        1.3270    1.6110    1.8430 h1        1 DMH      0.040200
@<TRIPOS>BOND
     1    1    2 1   
     2    1   12 1   
     3    1   13 1   
     4    2    3 1   
     5    2    9 1   
     6    2   14 1   
     7    3    4 1   
     8    3   15 1   
     9    3   16 1   
    10    4    5 2   
    11    4    6 1   
    12    6    7 1   
    13    6    8 1   
    14    7   17 1   
    15    7   18 1   
    16    7   19 1   
    17    8   20 1   
    18    8   21 1   
    19    8   22 1   
    20    9   10 1   
    21    9   11 1   
@<TRIPOS>SUBSTRUCTURE
     1 DMH         1 TEMP              0 ****  ****    0 ROOT
