@<TRIPOS>MOLECULE
DMI
   16    16     1     0     0
SMALL
bcc


@<TRIPOS>ATOM
      1 N1         -1.0620   -1.0610    0.0780 na        1 DMI     -0.143100
      2 C2          0.2690   -0.6900    0.0400 cc        1 DMI      0.035100
      3 CM2         1.4380   -1.6030    0.0800 c3        1 DMI     -0.065800
      4 N3          0.3160    0.6910   -0.0460 na        1 DMI     -0.022100
      5 CM3         1.5150    1.4820   -0.0970 c3        1 DMI     -0.004400
      6 C4         -0.9990    1.1860   -0.0600 cc        1 DMI     -0.116300
      7 C5         -1.8600    0.0870    0.0170 cd        1 DMI     -0.107300
      8 HN1        -1.3900   -2.0000    0.1380 hn        1 DMI      0.357700
      9 HM21        2.0480   -1.4770   -0.8530 hc        1 DMI      0.103033
     10 HM22        2.0800   -1.3560    0.9660 hc        1 DMI      0.103033
     11 HM23        1.1150   -2.6720    0.1570 hc        1 DMI      0.103033
     12 HM31        1.2480    2.5410   -0.3600 h1        1 DMI      0.095700
     13 HM32        2.0250    1.4620    0.9060 h1        1 DMI      0.095700
     14 HM33        2.2090    1.0650   -0.8770 h1        1 DMI      0.095700
     15 H4         -1.2210    2.2570   -0.1230 h4        1 DMI      0.234000
     16 H5         -2.9550    0.0440    0.0320 h4        1 DMI      0.236000
@<TRIPOS>BOND
     1    1    2 2   
     2    1    7 1   
     3    1    8 1   
     4    2    3 1   
     5    2    4 1   
     6    3    9 1   
     7    3   10 1   
     8    3   11 1   
     9    4    5 1   
    10    4    6 1   
    11    5   12 1   
    12    5   13 1   
    13    5   14 1   
    14    6    7 2   
    15    6   15 1   
    16    7   16 1   
@<TRIPOS>SUBSTRUCTURE
     1 DMI         1 TEMP              0 ****  ****    0 ROOT
