@<TRIPOS>MOLECULE
DMI
   16    11     1     0     0
SMALL
bcc


@<TRIPOS>ATOM
      1 N1         -1.5770    0.0020   -0.6280 n2        1 DMI     -0.115500
      2 C2         -0.2210    0.0020   -0.6280 c1        1 DMI      0.090000
      3 CM2         0.6680    0.0010   -1.8520 c2        1 DMI     -0.146500
      4 N3          0.1980    0.0020    0.6610 n2        1 DMI     -0.115500
      5 CM3         1.5530   -0.0040    1.1000 c2        1 DMI     -0.146500
      6 C4         -0.8820    0.0020    1.4470 c1        1 DMI     -0.088000
      7 C5         -1.9900    0.0020    0.6430 c1        1 DMI     -0.088000
      8 HN1        -2.1130    0.0020   -1.3660 DU        1 DMI      0.259333
      9 HM21        1.2330    0.7970   -1.8440 ha        1 DMI      0.138667
     10 HM22        1.2290   -0.7970   -1.8460 ha        1 DMI      0.138667
     11 HM23        0.1140    0.0040   -2.6560 ha        1 DMI      0.138667
     12 HM31        2.0010   -0.8020    0.7600 ha        1 DMI      0.138667
     13 HM32        1.5780   -0.0070    2.0760 ha        1 DMI      0.138667
     14 HM33        2.0070    0.7920    0.7650 ha        1 DMI      0.138667
     15 H4         -0.8820    0.0020    2.4230 DU        1 DMI      0.259333
     16 H5         -2.9180    0.0020    0.9440 DU        1 DMI      0.259333
@<TRIPOS>BOND
     1    1    2 1   
     2    1    7 1   
     3    2    4 1   
     4    3    9 1   
     5    3   10 1   
     6    3   11 1   
     7    4    6 1   
     8    5   12 1   
     9    5   13 1   
    10    5   14 1   
    11    6    7 1   
@<TRIPOS>SUBSTRUCTURE
     1 DMI         1 TEMP              0 ****  ****    0 ROOT
