@<TRIPOS>MOLECULE
DMI
   16    16     1     0     0
SMALL
bcc


@<TRIPOS>ATOM
      1 N1         -0.0560    0.0040   -0.0210 na        1 DMI     -0.142100
      2 C2          1.3260   -0.0020   -0.0280 cc        1 DMI      0.034100
      3 CM2         2.1990   -0.0100   -1.2280 c3        1 DMI     -0.065800
      4 N3          1.7530    0.0010    1.2890 na        1 DMI     -0.022100
      5 CM3         3.1240   -0.0030    1.7180 c3        1 DMI     -0.003400
      6 C4          0.6250    0.0080    2.1270 cc        1 DMI     -0.116300
      7 C5         -0.5070    0.0100    1.3050 cd        1 DMI     -0.108300
      8 HN1        -0.6300    0.0030   -0.8340 hn        1 DMI      0.357700
      9 HM21        2.8490   -0.9240   -1.2160 hc        1 DMI      0.103033
     10 HM22        2.8570    0.8990   -1.2230 hc        1 DMI      0.103033
     11 HM23        1.5940   -0.0110   -2.1700 hc        1 DMI      0.103033
     12 HM31        3.6450    0.9140    1.3270 h1        1 DMI      0.095700
     13 HM32        3.6400   -0.9220    1.3250 h1        1 DMI      0.095700
     14 HM33        3.1590   -0.0050    2.8410 h1        1 DMI      0.095700
     15 H4          0.7070    0.0120    3.2190 h4        1 DMI      0.234000
     16 H5         -1.5710    0.0160    1.5640 h4        1 DMI      0.236000
@<TRIPOS>BOND
     1    1    2 2   
     2    1    7 1   
     3    1    8 1   
     4    2    3 1   
     5    2    4 1   
     6    3    9 1   
     7    3   10 1   
     8    3   11 1   
     9    4    5 1   
    10    4    6 1   
    11    5   12 1   
    12    5   13 1   
    13    5   14 1   
    14    6    7 2   
    15    6   15 1   
    16    7   16 1   
@<TRIPOS>SUBSTRUCTURE
     1 DMI         1 TEMP              0 ****  ****    0 ROOT
