@<TRIPOS>MOLECULE
DMJ
   24    24     1     0     0
SMALL
bcc


@<TRIPOS>ATOM
      1 C4          0.8840    0.1780   -0.1420 c3        1 DMJ      0.115100
      2 O4          2.2330   -0.0920    0.2020 oh        1 DMJ     -0.602800
      3 C3          0.4780   -0.6150   -1.3980 c3        1 DMJ      0.072100
      4 O3          1.2380   -0.1620   -2.5010 oh        1 DMJ     -0.601800
      5 C2         -1.0310   -0.5080   -1.6650 c3        1 DMJ      0.116100
      6 O2         -1.3450    0.7730   -2.1790 oh        1 DMJ     -0.602800
      7 C1         -1.8300   -0.8500   -0.3970 c3        1 DMJ      0.131800
      8 N5         -1.4010   -0.0790    0.7490 n3        1 DMJ     -0.833200
      9 C5          0.0140   -0.2540    1.0610 c3        1 DMJ      0.173500
     10 C6          0.4300    0.5650    2.2960 c3        1 DMJ      0.131400
     11 O6         -0.2480    0.0030    3.4090 oh        1 DMJ     -0.612800
     12 H4          0.7710    1.2820   -0.3370 h1        1 DMJ      0.045700
     13 HO4         2.7370   -0.0650   -0.6240 ho        1 DMJ      0.422000
     14 H3          0.7710   -1.6950   -1.2700 h1        1 DMJ      0.088700
     15 HO3         0.8010    0.6270   -2.8520 ho        1 DMJ      0.420000
     16 H2         -1.3160   -1.2130   -2.4960 h1        1 DMJ      0.088700
     17 HO2        -1.3350    1.3990   -1.4430 ho        1 DMJ      0.418000
     18 H11        -1.7440   -1.9640   -0.2330 h1        1 DMJ      0.047700
     19 H12        -2.9140   -0.6050   -0.5830 h1        1 DMJ      0.047700
     20 HN5        -1.9530   -0.2900    1.5590 hn        1 DMJ      0.392800
     21 H5          0.2580   -1.3390    1.2830 h1        1 DMJ      0.049700
     22 H61         0.1510    1.6450    2.1810 h1        1 DMJ      0.044200
     23 H62         1.5420    0.4730    2.4260 h1        1 DMJ      0.044200
     24 HO6         0.0610    0.4800    4.1880 ho        1 DMJ      0.406000
@<TRIPOS>BOND
     1    1    2 1   
     2    1    3 1   
     3    1    9 1   
     4    1   12 1   
     5    2   13 1   
     6    3    4 1   
     7    3    5 1   
     8    3   14 1   
     9    4   15 1   
    10    5    6 1   
    11    5    7 1   
    12    5   16 1   
    13    6   17 1   
    14    7    8 1   
    15    7   18 1   
    16    7   19 1   
    17    8    9 1   
    18    8   20 1   
    19    9   10 1   
    20    9   21 1   
    21   10   11 1   
    22   10   22 1   
    23   10   23 1   
    24   11   24 1   
@<TRIPOS>SUBSTRUCTURE
     1 DMJ         1 TEMP              0 ****  ****    0 ROOT
