@<TRIPOS>MOLECULE
DMJ
   24    24     1     0     0
SMALL
bcc


@<TRIPOS>ATOM
      1 C4         -0.3030   -0.4220   -0.8560 c3        1 DMJ      0.114100
      2 O4         -0.7490   -0.3630   -2.1570 oh        1 DMJ     -0.595800
      3 C3          1.1840   -0.4060   -0.8660 c3        1 DMJ      0.063100
      4 O3          1.6710   -1.6480   -1.5540 oh        1 DMJ     -0.612800
      5 C2          1.7560   -0.3540    0.4280 c3        1 DMJ      0.075100
      6 O2          1.4810   -1.6840    1.1230 oh        1 DMJ     -0.599800
      7 C1          1.2380    0.7090    1.2690 c3        1 DMJ      0.164800
      8 N5         -0.2270    0.7380    1.3560 n3        1 DMJ     -0.786200
      9 C5         -0.9730    0.8040   -0.0340 c3        1 DMJ      0.172500
     10 C6         -2.2410    0.6170    0.1080 c3        1 DMJ      0.135400
     11 O6         -2.8200    1.7490    0.7420 oh        1 DMJ     -0.587800
     12 H4         -0.6010   -1.2620   -0.4650 h1        1 DMJ      0.053700
     13 HO4        -1.1900   -1.0820   -2.3440 ho        1 DMJ      0.417000
     14 H3          1.4900    0.3800   -1.3760 h1        1 DMJ      0.062700
     15 HO3         2.3280   -1.4120   -2.2140 ho        1 DMJ      0.410000
     16 H2          2.7690   -0.2370    0.3340 h1        1 DMJ      0.040700
     17 HO2         2.1550   -1.9380    1.4940 ho        1 DMJ      0.415000
     18 H11         1.5460    1.5790    0.9020 h1        1 DMJ      0.067200
     19 H12         1.6240    0.5950    2.2150 h1        1 DMJ      0.067200
     20 HN5        -0.5070    0.0370    1.8080 hn        1 DMJ      0.366800
     21 H5         -0.8060    1.6070   -0.4540 h1        1 DMJ      0.090700
     22 H61        -2.3980   -0.2050    0.6720 h1        1 DMJ      0.034700
     23 H62        -2.6610    0.4900   -0.7930 h1        1 DMJ      0.034700
     24 HO6        -3.7660    1.7090    0.6620 ho        1 DMJ      0.397000
@<TRIPOS>BOND
     1    1    2 1   
     2    1    3 1   
     3    1    9 1   
     4    1   12 1   
     5    2   13 1   
     6    3    4 1   
     7    3    5 1   
     8    3   14 1   
     9    4   15 1   
    10    5    6 1   
    11    5    7 1   
    12    5   16 1   
    13    6   17 1   
    14    7    8 1   
    15    7   18 1   
    16    7   19 1   
    17    8    9 1   
    18    8   20 1   
    19    9   10 1   
    20    9   21 1   
    21   10   11 1   
    22   10   22 1   
    23   10   23 1   
    24   11   24 1   
@<TRIPOS>SUBSTRUCTURE
     1 DMJ         1 TEMP              0 ****  ****    0 ROOT
