@<TRIPOS>MOLECULE
DMJ
   24    24     1     0     0
SMALL
bcc


@<TRIPOS>ATOM
      1 C4         -0.0180    0.0120   -0.0130 c3        1 DMJ      0.115100
      2 O4         -0.6160    0.1610   -1.2900 oh        1 DMJ     -0.602800
      3 C3          1.5170    0.0570   -0.1270 c3        1 DMJ      0.072100
      4 O3          1.9620   -1.0590   -0.8760 oh        1 DMJ     -0.601800
      5 C2          2.1810    0.1140    1.2560 c3        1 DMJ      0.116100
      6 O2          2.1070   -1.1510    1.8850 oh        1 DMJ     -0.602800
      7 C1          1.5630    1.2360    2.1070 c3        1 DMJ      0.131800
      8 N5          0.1210    1.1440    2.1730 n3        1 DMJ     -0.833200
      9 C5         -0.5170    1.1860    0.8610 c3        1 DMJ      0.173500
     10 C6         -2.0500    1.1070    0.9710 c3        1 DMJ      0.131400
     11 O6         -2.4790    2.3010    1.6080 oh        1 DMJ     -0.612800
     12 H4         -0.3370   -0.9740    0.4270 h1        1 DMJ      0.045700
     13 HO4        -0.1160   -0.4060   -1.8950 ho        1 DMJ      0.422000
     14 H3          1.8210    0.9530   -0.7390 h1        1 DMJ      0.088700
     15 HO3         2.0240   -1.8100   -0.2690 ho        1 DMJ      0.420000
     16 H2          3.2870    0.2950    1.1350 h1        1 DMJ      0.088700
     17 HO2         1.2070   -1.2660    2.2180 ho        1 DMJ      0.418000
     18 H11         1.9210    2.2190    1.6820 h1        1 DMJ      0.047700
     19 H12         1.9570    1.1430    3.1580 h1        1 DMJ      0.047700
     20 HN5        -0.2640    1.8640    2.7570 hn        1 DMJ      0.392800
     21 H5         -0.2720    2.1460    0.3100 h1        1 DMJ      0.049700
     22 H61        -2.4790    1.0390   -0.0650 h1        1 DMJ      0.044200
     23 H62        -2.3700    0.2150    1.5710 h1        1 DMJ      0.044200
     24 HO6        -3.4420    2.2750    1.6210 ho        1 DMJ      0.406000
@<TRIPOS>BOND
     1    1    2 1   
     2    1    3 1   
     3    1    9 1   
     4    1   12 1   
     5    2   13 1   
     6    3    4 1   
     7    3    5 1   
     8    3   14 1   
     9    4   15 1   
    10    5    6 1   
    11    5    7 1   
    12    5   16 1   
    13    6   17 1   
    14    7    8 1   
    15    7   18 1   
    16    7   19 1   
    17    8    9 1   
    18    8   20 1   
    19    9   10 1   
    20    9   21 1   
    21   10   11 1   
    22   10   22 1   
    23   10   23 1   
    24   11   24 1   
@<TRIPOS>SUBSTRUCTURE
     1 DMJ         1 TEMP              0 ****  ****    0 ROOT
