@<TRIPOS>MOLECULE
DMJ
   24    24     1     0     0
SMALL
bcc


@<TRIPOS>ATOM
      1 C4         -0.0040    0.0220   -0.0240 c3        1 DMJ      0.115100
      2 O4         -0.5850    0.1850   -1.3070 oh        1 DMJ     -0.602800
      3 C3          1.5320    0.0750   -0.1170 c3        1 DMJ      0.072100
      4 O3          1.9920   -1.0290   -0.8730 oh        1 DMJ     -0.601800
      5 C2          2.1770    0.1170    1.2760 c3        1 DMJ      0.116100
      6 O2          2.1000   -1.1570    1.8880 oh        1 DMJ     -0.602800
      7 C1          1.5430    1.2250    2.1330 c3        1 DMJ      0.131800
      8 N5          0.1000    1.1270    2.1780 n3        1 DMJ     -0.833200
      9 C5         -0.5200    1.1820    0.8590 c3        1 DMJ      0.173500
     10 C6         -2.0540    1.0950    0.9470 c3        1 DMJ      0.131400
     11 O6         -2.4970    2.2790    1.5930 oh        1 DMJ     -0.612800
     12 H4         -0.3240   -0.9710    0.3990 h1        1 DMJ      0.045700
     13 HO4        -0.0750   -0.3720   -1.9120 ho        1 DMJ      0.422000
     14 H3          1.8400    0.9800   -0.7120 h1        1 DMJ      0.088700
     15 HO3         2.0490   -1.7880   -0.2750 ho        1 DMJ      0.420000
     16 H2          3.2840    0.3040    1.1730 h1        1 DMJ      0.088700
     17 HO2         1.1960   -1.2790    2.2070 ho        1 DMJ      0.418000
     18 H11         1.9030    2.2150    1.7260 h1        1 DMJ      0.047700
     19 H12         1.9230    1.1200    3.1880 h1        1 DMJ      0.047700
     20 HN5        -0.2950    1.8370    2.7660 hn        1 DMJ      0.392800
     21 H5         -0.2720    2.1510    0.3240 h1        1 DMJ      0.049700
     22 H61        -2.4690    1.0390   -0.0960 h1        1 DMJ      0.044200
     23 H62        -2.3780    0.1940    1.5310 h1        1 DMJ      0.044200
     24 HO6        -3.4600    2.2480    1.5930 ho        1 DMJ      0.406000
@<TRIPOS>BOND
     1    1    2 1   
     2    1    3 1   
     3    1    9 1   
     4    1   12 1   
     5    2   13 1   
     6    3    4 1   
     7    3    5 1   
     8    3   14 1   
     9    4   15 1   
    10    5    6 1   
    11    5    7 1   
    12    5   16 1   
    13    6   17 1   
    14    7    8 1   
    15    7   18 1   
    16    7   19 1   
    17    8    9 1   
    18    8   20 1   
    19    9   10 1   
    20    9   21 1   
    21   10   11 1   
    22   10   22 1   
    23   10   23 1   
    24   11   24 1   
@<TRIPOS>SUBSTRUCTURE
     1 DMJ         1 TEMP              0 ****  ****    0 ROOT
