@<TRIPOS>MOLECULE
DMK
   20    19     1     0     0
SMALL
bcc


@<TRIPOS>ATOM
      1 N          -2.5870   -1.3610   -0.5160 n3        1 DMK     -0.915800
      2 CA         -2.8720   -0.0120   -0.9730 c3        1 DMK      0.074500
      3 CB         -2.0550    1.1010   -0.2520 c3        1 DMK     -0.174000
      4 CG1        -2.2830    1.0260    1.2810 c         1 DMK      0.908600
      5 CG2        -0.5720    0.9250   -0.5260 c3        1 DMK     -0.063600
      6 CG3        -2.5160    2.4520   -0.7660 c3        1 DMK     -0.063600
      7 OD1        -2.9910    1.9070    1.8570 o         1 DMK     -0.878300
      8 OD2        -1.7330    0.0880    1.9420 o         1 DMK     -0.878300
      9 C          -2.7240    0.0970   -2.5230 c         1 DMK      0.913600
     10 O          -1.7140   -0.4150   -3.0980 o         1 DMK     -0.877800
     11 OXT        -3.6400    0.6840   -3.1730 o         1 DMK     -0.877800
     12 H          -2.3810   -1.3410    0.4700 hn        1 DMK      0.340800
     13 H2         -1.7650   -1.6880   -0.9930 hn        1 DMK      0.340800
     14 HCA        -3.9580    0.1880   -0.7310 h1        1 DMK      0.041700
     15 HG21       -0.0040    1.8290   -0.1930 hc        1 DMK      0.017867
     16 HG22       -0.3960    0.7630   -1.6180 hc        1 DMK      0.017867
     17 HG23       -0.1840    0.0440    0.0410 hc        1 DMK      0.017867
     18 HG31       -3.5830    2.6150   -0.4830 hc        1 DMK      0.017867
     19 HG32       -1.9070    3.2680   -0.3070 hc        1 DMK      0.017867
     20 HG33       -2.4230    2.5010   -1.8790 hc        1 DMK      0.017867
@<TRIPOS>BOND
     1    1    2 1   
     2    1   12 1   
     3    1   13 1   
     4    2    3 1   
     5    2    9 1   
     6    2   14 1   
     7    3    4 1   
     8    3    5 1   
     9    3    6 1   
    10    4    7 1   
    11    4    8 1   
    12    5   15 1   
    13    5   16 1   
    14    5   17 1   
    15    6   18 1   
    16    6   19 1   
    17    6   20 1   
    18    9   10 1   
    19    9   11 1   
@<TRIPOS>SUBSTRUCTURE
     1 DMK         1 TEMP              0 ****  ****    0 ROOT
