@<TRIPOS>MOLECULE
DMN
   11    10     1     0     0
SMALL
bcc


@<TRIPOS>ATOM
      1 N1          0.0270   -0.0000    0.0370 n4        1 DMN     -0.753000
      2 C2          1.5080   -0.0000   -0.0350 c3        1 DMN      0.074100
      3 C3         -0.4670   -0.0000    1.4350 c3        1 DMN      0.074100
      4 HN1        -0.3340   -0.8320   -0.4490 hn        1 DMN      0.459800
      5 H21         1.8270   -0.0000   -1.1130 hx        1 DMN      0.114367
      6 H22         1.9090    0.9170    0.4770 hx        1 DMN      0.114367
      7 H23         1.9090   -0.9170    0.4770 hx        1 DMN      0.114367
      8 H31        -1.5920   -0.0000    1.4300 hx        1 DMN      0.114367
      9 H32        -0.0930    0.9170    1.9650 hx        1 DMN      0.114367
     10 H33        -0.0930   -0.9170    1.9660 hx        1 DMN      0.114367
     11 H12        -0.3340    0.8310   -0.4500 hn        1 DMN      0.459800
@<TRIPOS>BOND
     1    1    2 1   
     2    1    3 1   
     3    1    4 1   
     4    1   11 1   
     5    2    5 1   
     6    2    6 1   
     7    2    7 1   
     8    3    8 1   
     9    3    9 1   
    10    3   10 1   
@<TRIPOS>SUBSTRUCTURE
     1 DMN         1 TEMP              0 ****  ****    0 ROOT
