@<TRIPOS>MOLECULE
DMN
   10     9     1     0     0
SMALL
bcc


@<TRIPOS>ATOM
      1 N1          0.5000   -0.0540    0.0000 n3        1 DMN     -0.829200
      2 C2         -0.2750    0.0360    1.2080 c3        1 DMN      0.151100
      3 C3         -0.2750    0.0360   -1.2080 c3        1 DMN      0.151100
      4 HN1         1.2330    0.6310   -0.0000 hn        1 DMN      0.357800
      5 H21         0.4160   -0.0560    2.0870 h1        1 DMN      0.028367
      6 H22        -0.8510    0.9970    1.3080 h1        1 DMN      0.028367
      7 H23        -1.0080   -0.8130    1.2380 h1        1 DMN      0.028367
      8 H31         0.4160   -0.0560   -2.0870 h1        1 DMN      0.028367
      9 H32        -1.0080   -0.8130   -1.2380 h1        1 DMN      0.028367
     10 H33        -0.8510    0.9970   -1.3080 h1        1 DMN      0.028367
@<TRIPOS>BOND
     1    1    2 1   
     2    1    3 1   
     3    1    4 1   
     4    2    5 1   
     5    2    6 1   
     6    2    7 1   
     7    3    8 1   
     8    3    9 1   
     9    3   10 1   
@<TRIPOS>SUBSTRUCTURE
     1 DMN         1 TEMP              0 ****  ****    0 ROOT
