@<TRIPOS>MOLECULE
DMN
   11    10     1     0     0
SMALL
bcc


@<TRIPOS>ATOM
      1 N1          0.0260   -0.0070    0.0380 ny        1 DMN     -0.753000
      2 C2          1.5070    0.0130   -0.0380 c3        1 DMN      0.074100
      3 C3         -0.4650   -0.0090    1.4370 c3        1 DMN      0.074100
      4 HN1        -0.3250   -0.8450   -0.4440 hn        1 DMN      0.459800
      5 H21         1.8230    0.0140   -1.1170 hx        1 DMN      0.114367
      6 H22         1.8960    0.9380    0.4690 hx        1 DMN      0.114367
      7 H23         1.9210   -0.8960    0.4760 hx        1 DMN      0.114367
      8 H31        -1.5890   -0.0250    1.4350 hx        1 DMN      0.114367
      9 H32        -0.1020    0.9160    1.9630 hx        1 DMN      0.114367
     10 H33        -0.0760   -0.9180    1.9700 hx        1 DMN      0.114367
     11 H12        -0.3480    0.8170   -0.4510 hn        1 DMN      0.459800
@<TRIPOS>BOND
     1    1    2 1   
     2    1    3 1   
     3    1    4 1   
     4    1   11 1   
     5    2    5 1   
     6    2    6 1   
     7    2    7 1   
     8    3    8 1   
     9    3    9 1   
    10    3   10 1   
@<TRIPOS>SUBSTRUCTURE
     1 DMN         1 TEMP              0 ****  ****    0 ROOT
