@<TRIPOS>MOLECULE
DMN
   10     9     1     0     0
SMALL
bcc


@<TRIPOS>ATOM
      1 N1         -0.4150    0.0740   -0.5870 n3        1 DMN     -0.829200
      2 C2          1.0110    0.0740   -0.5870 c3        1 DMN      0.151100
      3 C3         -0.8900    0.0740    0.7570 c3        1 DMN      0.151100
      4 HN1        -0.7190   -0.6700   -1.0170 hn        1 DMN      0.357800
      5 H21         1.3360    0.0750   -1.5070 h1        1 DMN      0.028367
      6 H22         1.3360   -0.7230   -0.1270 h1        1 DMN      0.028367
      7 H23         1.3360    0.8710   -0.1270 h1        1 DMN      0.028367
      8 H31        -0.5650   -0.7230    1.2180 h1        1 DMN      0.028367
      9 H32        -0.5650    0.8710    1.2180 h1        1 DMN      0.028367
     10 H33        -1.8660    0.0750    0.7570 h1        1 DMN      0.028367
@<TRIPOS>BOND
     1    1    2 1   
     2    1    3 1   
     3    1    4 1   
     4    2    5 1   
     5    2    6 1   
     6    2    7 1   
     7    3    8 1   
     8    3    9 1   
     9    3   10 1   
@<TRIPOS>SUBSTRUCTURE
     1 DMN         1 TEMP              0 ****  ****    0 ROOT
