@<TRIPOS>MOLECULE
DMO
   25    24     1     0     0
SMALL
bcc


@<TRIPOS>ATOM
      1 CAO        -0.2990   -0.1560    0.0270 c3        1 DMO     -0.100800
      2 CO          1.1440    0.2240   -0.4940 c3        1 DMO      0.427900
      3 NO         -0.4370    0.2480    1.4650 nz        1 DMO     -0.827600
      4 CBO        -0.4940   -1.6620   -0.1980 c3        1 DMO     -0.098400
      5 CGO        -1.9190   -2.1580   -0.0270 c3        1 DMO     -0.111400
      6 CDO        -2.6550   -2.4680   -1.3300 c3        1 DMO      0.115800
      7 NEO        -3.2430   -1.2880   -2.0190 nz        1 DMO     -0.862600
      8 C          -1.4540    0.5570   -0.7990 c         1 DMO      0.917600
      9 O          -2.5260    0.7480   -0.1560 o         1 DMO     -0.764300
     10 OH         -1.2720    0.7110   -2.0220 o         1 DMO     -0.764300
     11 F1          1.2400    0.1210   -1.8530 f         1 DMO     -0.200800
     12 F2          1.4500    1.5370   -0.2250 f         1 DMO     -0.200800
     13 HCO1        1.9020   -0.4590    0.0020 h2        1 DMO      0.070700
     14 HNO1        0.0760    1.1250    1.6170 hn        1 DMO      0.466133
     15 HNO2       -1.4470    0.4270    1.6340 hn        1 DMO      0.466133
     16 HBO1       -0.1380   -1.8630   -1.2480 hc        1 DMO      0.086700
     17 HBO2        0.1810   -2.2410    0.4900 hc        1 DMO      0.086700
     18 HGO1       -1.8880   -3.1320    0.5380 hc        1 DMO      0.090200
     19 HGO2       -2.5230   -1.4380    0.5900 hc        1 DMO      0.090200
     20 HDO1       -3.5060   -3.1730   -1.0910 hx        1 DMO      0.103700
     21 HDO2       -1.9610   -2.9820   -2.0560 hx        1 DMO      0.103700
     22 HEO1       -2.5200   -0.7860   -2.5720 hn        1 DMO      0.480133
     23 HEO2       -3.6070   -0.6030   -1.3290 hn        1 DMO      0.480133
     24 HO3        -0.0930   -0.4740    2.0950 hn        1 DMO      0.466133
     25 HEO3       -3.9960   -1.5810   -2.6430 hn        1 DMO      0.480133
@<TRIPOS>BOND
     1    1    2 1   
     2    1    3 1   
     3    1    4 1   
     4    1    8 1   
     5    2   11 1   
     6    2   12 1   
     7    2   13 1   
     8    3   14 1   
     9    3   15 1   
    10    3   24 1   
    11    4    5 1   
    12    4   16 1   
    13    4   17 1   
    14    5    6 1   
    15    5   18 1   
    16    5   19 1   
    17    6    7 1   
    18    6   20 1   
    19    6   21 1   
    20    7   22 1   
    21    7   23 1   
    22    7   25 1   
    23    8    9 1   
    24    8   10 1   
@<TRIPOS>SUBSTRUCTURE
     1 DMO         1 TEMP              0 ****  ****    0 ROOT
