@<TRIPOS>MOLECULE
DMO
   23    22     1     0     0
SMALL
bcc


@<TRIPOS>ATOM
      1 CAO         0.5180    1.2580    0.0700 c3        1 DMO     -0.017800
      2 CO          1.2250    2.1660   -0.9130 c3        1 DMO      0.423900
      3 NO          1.4330    0.8470    1.0770 n3        1 DMO     -0.886800
      4 CBO        -0.0090    0.0420   -0.6580 c3        1 DMO     -0.052400
      5 CGO        -0.4180   -1.0100    0.3490 c3        1 DMO     -0.119400
      6 CDO        -0.8910   -2.2490   -0.3790 c3        1 DMO      0.142800
      7 NEO        -1.2450   -3.2520    0.5700 n3        1 DMO     -0.907800
      8 C          -0.6330    2.0030    0.7070 c         1 DMO      0.903600
      9 O          -0.7930    1.9650    1.9550 o         1 DMO     -0.819800
     10 OH         -1.4310    2.6610   -0.0110 o         1 DMO     -0.819800
     11 F1          1.7640    3.2030   -0.2550 f         1 DMO     -0.254300
     12 F2          0.3440    2.6190   -1.8160 f         1 DMO     -0.254300
     13 HCO1        1.9330    1.6660   -1.3690 h2        1 DMO      0.024700
     14 HNO1        2.1780    0.4870    0.6850 hn        1 DMO      0.344300
     15 HNO2        1.6740    1.5710    1.5840 hn        1 DMO      0.344300
     16 HBO1       -0.7840    0.2960   -1.1980 hc        1 DMO      0.041200
     17 HBO2        0.6900   -0.3180   -1.2400 hc        1 DMO      0.041200
     18 HGO1       -1.1430   -0.6630    0.9070 hc        1 DMO      0.053700
     19 HGO2        0.3480   -1.2370    0.9140 hc        1 DMO      0.053700
     20 HDO1       -0.1730   -2.5830   -0.9560 h1        1 DMO      0.044700
     21 HDO2       -1.6730   -2.0270   -0.9270 h1        1 DMO      0.044700
     22 HEO1       -0.7700   -4.0160    0.3970 hn        1 DMO      0.334800
     23 HEO2       -2.1420   -3.4290    0.5070 hn        1 DMO      0.334800
@<TRIPOS>BOND
     1    1    2 1   
     2    1    3 1   
     3    1    4 1   
     4    1    8 1   
     5    2   11 1   
     6    2   12 1   
     7    2   13 1   
     8    3   14 1   
     9    3   15 1   
    10    4    5 1   
    11    4   16 1   
    12    4   17 1   
    13    5    6 1   
    14    5   18 1   
    15    5   19 1   
    16    6    7 1   
    17    6   20 1   
    18    6   21 1   
    19    7   22 1   
    20    7   23 1   
    21    8    9 1   
    22    8   10 1   
@<TRIPOS>SUBSTRUCTURE
     1 DMO         1 TEMP              0 ****  ****    0 ROOT
