@<TRIPOS>MOLECULE
DMO
   25    24     1     0     0
SMALL
bcc


@<TRIPOS>ATOM
      1 CAO        -0.3010   -0.1410    0.0100 c3        1 DMO     -0.100800
      2 CO          1.1550    0.2000   -0.5030 c3        1 DMO      0.427900
      3 NO         -0.4610    0.3350    1.4230 n4        1 DMO     -0.827600
      4 CBO        -0.5080   -1.6550   -0.1440 c3        1 DMO     -0.098400
      5 CGO        -1.9400   -2.1280    0.0240 c3        1 DMO     -0.111400
      6 CDO        -2.6560   -2.4950   -1.2750 c3        1 DMO      0.115800
      7 NEO        -3.2190   -1.3450   -2.0330 n4        1 DMO     -0.862600
      8 C          -1.4340    0.5420   -0.8720 c         1 DMO      0.917600
      9 O          -2.5150    0.7730   -0.2580 o         1 DMO     -0.764300
     10 OH         -1.2290    0.6330   -2.0960 o         1 DMO     -0.764300
     11 F1          1.2740    0.0300   -1.8530 f         1 DMO     -0.200800
     12 F2          1.4690    1.5210   -0.2930 f         1 DMO     -0.200800
     13 HCO1        1.8970   -0.4650    0.0400 h2        1 DMO      0.070700
     14 HNO1        0.0580    1.2130    1.5420 hn        1 DMO      0.466133
     15 HNO2       -1.4720    0.5310    1.5650 hn        1 DMO      0.466133
     16 HBO1        0.1490   -2.2050    0.5830 hc        1 DMO      0.086700
     17 HBO2       -0.1350   -1.9110   -1.1770 hc        1 DMO      0.086700
     18 HGO1       -2.5480   -1.3730    0.5940 hc        1 DMO      0.090200
     19 HGO2       -1.9290   -3.0740    0.6370 hc        1 DMO      0.090200
     20 HDO1       -1.9540   -3.0500   -1.9630 hx        1 DMO      0.103700
     21 HDO2       -3.5180   -3.1790   -1.0180 hx        1 DMO      0.103700
     22 HEO1       -3.9640   -1.6620   -2.6540 hn        1 DMO      0.480133
     23 HEO2       -3.5890   -0.6240   -1.3830 hn        1 DMO      0.480133
     24 HO3        -0.1350   -0.3590    2.0940 hn        1 DMO      0.466133
     25 HEO3       -2.4820   -0.8780   -2.5950 hn        1 DMO      0.480133
@<TRIPOS>BOND
     1    1    2 1   
     2    1    3 1   
     3    1    4 1   
     4    1    8 1   
     5    2   11 1   
     6    2   12 1   
     7    2   13 1   
     8    3   14 1   
     9    3   15 1   
    10    3   24 1   
    11    4    5 1   
    12    4   16 1   
    13    4   17 1   
    14    5    6 1   
    15    5   18 1   
    16    5   19 1   
    17    6    7 1   
    18    6   20 1   
    19    6   21 1   
    20    7   22 1   
    21    7   23 1   
    22    7   25 1   
    23    8    9 1   
    24    8   10 1   
@<TRIPOS>SUBSTRUCTURE
     1 DMO         1 TEMP              0 ****  ****    0 ROOT
