@<TRIPOS>MOLECULE
DMO
   23    22     1     0     0
SMALL
bcc


@<TRIPOS>ATOM
      1 CAO        -1.4770    2.2800    0.0410 c3        1 DMO     -0.017800
      2 CO         -2.6350    3.1920    0.5810 c3        1 DMO      0.423900
      3 NO         -2.0460    1.4030   -0.9890 n3        1 DMO     -0.886800
      4 CBO        -0.9530    1.4890    1.2510 c3        1 DMO     -0.052400
      5 CGO         0.1300    0.5050    0.8690 c3        1 DMO     -0.119400
      6 CDO         0.8730    0.0120    2.1100 c3        1 DMO      0.142800
      7 NEO         1.9670   -0.9020    1.8750 n3        1 DMO     -0.907800
      8 C          -0.2660    3.1490   -0.4960 c         1 DMO      0.903600
      9 O           0.2120    2.8200   -1.6170 o         1 DMO     -0.819800
     10 OH          0.1680    4.0700    0.2390 o         1 DMO     -0.819800
     11 F1         -2.2560    4.0650    1.5720 f         1 DMO     -0.254300
     12 F2         -3.1630    4.0330   -0.3770 f         1 DMO     -0.254300
     13 HCO1       -3.4690    2.5320    0.9820 h2        1 DMO      0.024700
     14 HNO1       -1.2880    0.8470   -1.3490 hn        1 DMO      0.344300
     15 HNO2       -2.3480    1.9950   -1.7440 hn        1 DMO      0.344300
     16 HBO1       -1.7940    0.9470    1.7580 hc        1 DMO      0.041200
     17 HBO2       -0.5400    2.2480    1.9700 hc        1 DMO      0.041200
     18 HGO1        0.8450    1.0080    0.1620 hc        1 DMO      0.053700
     19 HGO2       -0.3170   -0.3710    0.3310 hc        1 DMO      0.053700
     20 HDO1        0.1390   -0.5060    2.7910 h1        1 DMO      0.044700
     21 HDO2        1.2820    0.9030    2.6670 h1        1 DMO      0.044700
     22 HEO1        2.6970   -0.4400    1.3670 hn        1 DMO      0.334800
     23 HEO2        1.6550   -1.6780    1.3210 hn        1 DMO      0.334800
@<TRIPOS>BOND
     1    1    2 1   
     2    1    3 1   
     3    1    4 1   
     4    1    8 1   
     5    2   11 1   
     6    2   12 1   
     7    2   13 1   
     8    3   14 1   
     9    3   15 1   
    10    4    5 1   
    11    4   16 1   
    12    4   17 1   
    13    5    6 1   
    14    5   18 1   
    15    5   19 1   
    16    6    7 1   
    17    6   20 1   
    18    6   21 1   
    19    7   22 1   
    20    7   23 1   
    21    8    9 1   
    22    8   10 1   
@<TRIPOS>SUBSTRUCTURE
     1 DMO         1 TEMP              0 ****  ****    0 ROOT
