@<TRIPOS>MOLECULE
DMP
   80    84     1     0     0
SMALL
bcc


@<TRIPOS>ATOM
      1 C1          1.2560   -0.0590   -0.2480 c         1 DMP      0.791500
      2 C3         -0.5310    1.6190    0.1630 c3        1 DMP      0.099200
      3 C4         -0.8970    1.3590   -1.3220 c3        1 DMP      0.107100
      4 C5         -1.6230    0.0220   -1.5490 c3        1 DMP      0.107100
      5 C6         -0.8410   -1.1650   -0.9280 c3        1 DMP      0.099200
      6 C21         1.7430    0.3350    2.7960 ca        1 DMP     -0.110300
      7 C22         2.9440   -0.3700    2.6510 ca        1 DMP     -0.111000
      8 C23         3.3620   -1.2530    3.6430 ca        1 DMP     -0.127250
      9 C24         2.5840   -1.4450    4.7920 ca        1 DMP     -0.084800
     10 C25         1.3840   -0.7440    4.9350 ca        1 DMP     -0.127250
     11 C26         0.9670    0.1400    3.9410 ca        1 DMP     -0.111000
     12 C27         3.0730   -2.4000    5.8290 c3        1 DMP      0.176200
     13 C30        -1.8220    1.5760    1.0090 c3        1 DMP     -0.043100
     14 C31        -1.7950    2.4680    2.1980 ca        1 DMP     -0.083300
     15 C32        -1.5770    3.8450    2.0580 ca        1 DMP     -0.129000
     16 C33        -1.5970    4.6810    3.1720 ca        1 DMP     -0.128750
     17 C34        -1.8430    4.1530    4.4400 ca        1 DMP     -0.130000
     18 C35        -2.0720    2.7860    4.5870 ca        1 DMP     -0.128750
     19 C36        -2.0510    1.9470    3.4730 ca        1 DMP     -0.129000
     20 C60        -1.3980   -2.4970   -1.4680 c3        1 DMP     -0.043100
     21 C61        -2.7670   -2.7520   -0.9370 ca        1 DMP     -0.083300
     22 C62        -3.8920   -2.3250   -1.6530 ca        1 DMP     -0.129000
     23 C63        -5.1730   -2.5910   -1.1720 ca        1 DMP     -0.128750
     24 C64        -5.3400   -3.2830    0.0280 ca        1 DMP     -0.130000
     25 C65        -4.2230   -3.7070    0.7470 ca        1 DMP     -0.128750
     26 C66        -2.9400   -3.4430    0.2680 ca        1 DMP     -0.129000
     27 C71         1.6350   -0.7540   -3.2930 ca        1 DMP     -0.110300
     28 C72         2.8170   -0.0050   -3.3410 ca        1 DMP     -0.111000
     29 C73         3.1220    0.7520   -4.4680 ca        1 DMP     -0.127250
     30 C74         2.2480    0.7690   -5.5630 ca        1 DMP     -0.084800
     31 C75         1.0630    0.0310   -5.5110 ca        1 DMP     -0.127250
     32 C76         0.7570   -0.7240   -4.3800 ca        1 DMP     -0.111000
     33 C77         2.6250    1.5680   -6.7660 c3        1 DMP      0.176200
     34 N2          0.5180    0.7480    0.6800 n         1 DMP     -0.448300
     35 N7          0.5990   -1.0390   -1.0180 n         1 DMP     -0.448300
     36 O1          2.5070    0.0290   -0.3030 o         1 DMP     -0.675500
     37 O4         -1.8100    2.3540   -1.7720 oh        1 DMP     -0.603800
     38 O5         -1.7880   -0.2060   -2.9390 oh        1 DMP     -0.603800
     39 O27         2.1390   -2.4660    6.8980 oh        1 DMP     -0.599300
     40 O77         1.4870    1.7320   -7.6010 oh        1 DMP     -0.599300
     41 H3         -0.1490    2.6900    0.1900 h1        1 DMP      0.059200
     42 H4          0.0300    1.4040   -1.9630 h1        1 DMP      0.066200
     43 H5         -2.6430    0.0600   -1.0660 h1        1 DMP      0.066200
     44 H6         -1.0930   -1.1500    0.1810 h1        1 DMP      0.059200
     45 H201        0.6920    2.1260    2.2530 h1        1 DMP      0.064450
     46 H202        2.2430    1.8200    1.3270 h1        1 DMP      0.064450
     47 H22         3.5500   -0.2290    1.7400 ha        1 DMP      0.149750
     48 H23         4.3060   -1.8040    3.5220 ha        1 DMP      0.139750
     49 H25         0.7720   -0.8950    5.8380 ha        1 DMP      0.139750
     50 H26         0.0200    0.6900    4.0620 ha        1 DMP      0.149750
     51 H271        4.0700   -2.0550    6.2220 h1        1 DMP      0.030700
     52 H272        3.1980   -3.4220    5.3750 h1        1 DMP      0.030700
     53 H301       -2.6690    1.9130    0.3450 hc        1 DMP      0.069200
     54 H302       -2.0410    0.5200    1.3210 hc        1 DMP      0.069200
     55 H32        -1.4020    4.2720    1.0590 ha        1 DMP      0.135750
     56 H33        -1.4230    5.7600    3.0500 ha        1 DMP      0.132500
     57 H34        -1.8580    4.8130    5.3190 ha        1 DMP      0.132000
     58 H35        -2.2720    2.3650    5.5840 ha        1 DMP      0.132500
     59 H36        -2.2410    0.8700    3.5950 ha        1 DMP      0.135750
     60 H601       -1.4240   -2.4670   -2.5910 hc        1 DMP      0.069200
     61 H602       -0.7250   -3.3410   -1.1550 hc        1 DMP      0.069200
     62 H62        -3.7510   -1.7700   -2.5950 ha        1 DMP      0.135750
     63 H63        -6.0520   -2.2550   -1.7410 ha        1 DMP      0.132500
     64 H64        -6.3510   -3.4940    0.4060 ha        1 DMP      0.132000
     65 H65        -4.3520   -4.2510    1.6940 ha        1 DMP      0.132500
     66 H66        -2.0610   -3.7810    0.8360 ha        1 DMP      0.135750
     67 H701        2.3450   -1.9610   -1.6680 h1        1 DMP      0.064450
     68 H702        0.8070   -2.5490   -2.4590 h1        1 DMP      0.064450
     69 H72         3.4970   -0.0100   -2.4720 ha        1 DMP      0.149750
     70 H73         4.0510    1.3390   -4.4980 ha        1 DMP      0.139750
     71 H75         0.3710    0.0560   -6.3670 ha        1 DMP      0.139750
     72 H76        -0.1920   -1.2820   -4.3320 ha        1 DMP      0.149750
     73 H771        3.0100    2.5790   -6.4550 h1        1 DMP      0.030700
     74 H772        3.4360    1.0320   -7.3330 h1        1 DMP      0.030700
     75 HO4        -1.3380    3.1950   -1.7680 ho        1 DMP      0.415500
     76 HO5        -2.1790    0.5980   -3.3070 ho        1 DMP      0.415500
     77 HO27        2.5050   -3.0910    7.5350 ho        1 DMP      0.401000
     78 HO77        1.7920    2.2170   -8.3770 ho        1 DMP      0.401000
     79 C20         1.3180    1.3290    1.7530 c3        1 DMP      0.136300
     80 C70         1.3540   -1.6310   -2.1030 c3        1 DMP      0.136300
@<TRIPOS>BOND
     1    1   34 1   
     2    1   35 1   
     3    1   36 2   
     4    2    3 1   
     5    2   13 1   
     6    2   34 1   
     7    2   41 1   
     8    3    4 1   
     9    3   37 1   
    10    3   42 1   
    11    4    5 1   
    12    4   38 1   
    13    4   43 1   
    14    5   20 1   
    15    5   35 1   
    16    5   44 1   
    17    6    7 ar  
    18    6   11 ar  
    19    6   79 1   
    20    7    8 ar  
    21    7   47 1   
    22    8    9 ar  
    23    8   48 1   
    24    9   10 ar  
    25    9   12 1   
    26   10   11 ar  
    27   10   49 1   
    28   11   50 1   
    29   12   39 1   
    30   12   51 1   
    31   12   52 1   
    32   13   14 1   
    33   13   53 1   
    34   13   54 1   
    35   14   15 ar  
    36   14   19 ar  
    37   15   16 ar  
    38   15   55 1   
    39   16   17 ar  
    40   16   56 1   
    41   17   18 ar  
    42   17   57 1   
    43   18   19 ar  
    44   18   58 1   
    45   19   59 1   
    46   20   21 1   
    47   20   60 1   
    48   20   61 1   
    49   21   22 ar  
    50   21   26 ar  
    51   22   23 ar  
    52   22   62 1   
    53   23   24 ar  
    54   23   63 1   
    55   24   25 ar  
    56   24   64 1   
    57   25   26 ar  
    58   25   65 1   
    59   26   66 1   
    60   27   28 ar  
    61   27   32 ar  
    62   27   80 1   
    63   28   29 ar  
    64   28   69 1   
    65   29   30 ar  
    66   29   70 1   
    67   30   31 ar  
    68   30   33 1   
    69   31   32 ar  
    70   31   71 1   
    71   32   72 1   
    72   33   40 1   
    73   33   73 1   
    74   33   74 1   
    75   34   79 1   
    76   35   80 1   
    77   37   75 1   
    78   38   76 1   
    79   39   77 1   
    80   40   78 1   
    81   45   79 1   
    82   46   79 1   
    83   67   80 1   
    84   68   80 1   
@<TRIPOS>SUBSTRUCTURE
     1 DMP         1 TEMP              0 ****  ****    0 ROOT
