@<TRIPOS>MOLECULE
DMP
   80    72     1     0     0
SMALL
bcc


@<TRIPOS>ATOM
      1 C1          0.5110    1.0610    1.4990 c2        1 DMP      0.358000
      2 C3          2.8450    0.4060    1.8510 c3        1 DMP     -0.036000
      3 C4          3.2850    1.7510    2.4910 c3        1 DMP     -0.046000
      4 C5          0.9210    2.6510    5.8380 c1        1 DMP      0.288000
      5 C6         -0.4600   -1.2210    1.6620 c3        1 DMP     -0.017000
      6 C21         4.7270   -1.4640   -1.1580 c1        1 DMP     -0.143000
      7 C22         1.7670   -6.0150   -4.1230 c2        1 DMP     -0.215000
      8 C23         1.5390   -6.8790   -5.0610 c1        1 DMP      0.000000
      9 C24         1.3020   -7.7540   -6.0070 c2        1 DMP     -0.298000
     10 C25         4.1660   -2.3580    0.9970 c1        1 DMP     -0.114000
     11 C26         4.1160   -2.4000   -0.3070 c2        1 DMP      0.009000
     12 C27         1.1270   -7.3400   -7.3970 c1        1 DMP      0.064000
     13 C30         2.5880   -0.5570    2.9700 c2        1 DMP     -0.148000
     14 C31         3.1950   -1.7320    3.1590 c2        1 DMP     -0.112000
     15 C32         5.5350    1.9860    7.0270 c1        1 DMP     -0.219500
     16 C33         5.8740    0.9810    6.4740 c1        1 DMP     -0.219500
     17 C34         6.1020   -3.6360    3.5850 c1        1 DMP     -0.183000
     18 C35         5.2310   -3.0590    3.0010 c1        1 DMP     -0.133000
     19 C36         4.2040   -2.3700    2.3120 c2        1 DMP      0.084000
     20 C60        -0.8300   -1.6660    0.2450 c3        1 DMP     -0.181000
     21 C61        -0.7120   -3.1740    0.1400 c3        1 DMP     -0.078000
     22 C62         0.7720    3.8060    6.4620 c2        1 DMP     -0.246000
     23 C63         1.1950    4.0350    7.7710 c1        1 DMP     -0.100000
     24 C64         1.5450    4.2660    8.8930 c1        1 DMP     -0.210000
     25 C65        -0.3720   -4.3630   -2.0480 c1        1 DMP      0.151000
     26 C66        -1.0880   -3.6470   -1.2150 c2        1 DMP     -0.466000
     27 C71        -1.9560    0.4790    3.8590 c2        1 DMP     -0.151000
     28 C72        -1.8390    4.5690    2.3390 c1        1 DMP     -0.175000
     29 C73        -2.7670    5.1980    2.7670 c1        1 DMP     -0.065000
     30 C74        -3.8120    5.9040    3.2480 c1        1 DMP     -0.082000
     31 C75        -4.2340   -0.2760    4.8590 c2        1 DMP     -0.172000
     32 C76        -3.1000    0.0930    4.3490 c1        1 DMP     -0.152000
     33 C77        -4.7390    6.5340    3.6710 c1        1 DMP     -0.034000
     34 N2          1.7260    0.5110    0.9150 n         1 DMP     -0.290000
     35 N7         -0.5130    0.2060    1.8740 n         1 DMP     -0.298000
     36 O1          0.3880    2.3090    1.6260 o         1 DMP     -0.445000
     37 O4          3.3460    2.7840    1.5330 oh        1 DMP     -0.333000
     38 O5          1.0350    1.6290    5.2390 o         1 DMP     -0.158000
     39 O27         0.8900   -8.2340   -8.3000 oh        1 DMP     -0.165000
     40 O77        -5.7870    7.1420    4.1970 oh        1 DMP     -0.140000
     41 H3          3.7080    0.0340    1.2150 h1        1 DMP      0.131000
     42 H4          2.5920    2.0220    3.3320 h1        1 DMP      0.096500
     43 H5          4.3320    1.6430    2.8800 h1        1 DMP      0.096500
     44 H6         -1.1760   -1.7000    2.3920 h1        1 DMP      0.101500
     45 H201        5.6960    0.0160   -2.5620 ha        1 DMP      0.229000
     46 H202        1.9990    1.1250    0.1620 hn        1 DMP      0.195000
     47 H22         2.7860   -5.7110   -3.8420 ha        1 DMP      0.167000
     48 H23         0.9520   -5.5260   -3.5550 ha        1 DMP      0.167000
     49 H25         1.2320   -8.8310   -5.7520 ha        1 DMP      0.119000
     50 H26         3.5540   -3.2130   -0.8140 ha        1 DMP      0.157000
     51 H271        0.7450  -11.2790   -7.2210 ha        1 DMP      0.004500
     52 H272        0.8690  -10.8900   -6.6810 ha        1 DMP      0.004500
     53 H301        1.8520   -4.8160   -1.5530 ha        1 DMP      0.004500
     54 H302        1.6880   -4.5660   -0.9410 ha        1 DMP      0.004500
     55 H32         1.8440   -0.2050    3.7120 ha        1 DMP      0.141000
     56 H33         5.2350    2.8780    7.5160 ha        1 DMP      0.219000
     57 H34         6.1750    0.0900    5.9830 ha        1 DMP      0.219000
     58 H35         6.8730   -4.1480    4.1040 ha        1 DMP      0.227000
     59 H36         2.9550   -2.3200    4.0660 ha        1 DMP      0.137000
     60 H601        0.3400   -3.4860    0.3840 hc        1 DMP      0.090000
     61 H602        0.5760   -1.5980    1.9060 h1        1 DMP      0.101500
     62 H62        -1.8770   -1.3490    0.0030 hc        1 DMP      0.095000
     63 H63         0.2830    4.6380    5.9210 ha        1 DMP      0.201000
     64 H64        -1.3890   -3.6630    0.8920 hc        1 DMP      0.090000
     65 H65         1.8500    4.4740    9.8860 ha        1 DMP      0.227000
     66 H66        -2.1080   -3.3470   -1.5400 ha        1 DMP      0.193000
     67 H701       -0.1480   -1.1810   -0.5010 hc        1 DMP      0.095000
     68 H702       -2.6030    0.3210    1.7980 h1        1 DMP      0.113000
     69 H72        -1.7530    1.8760    2.2540 h1        1 DMP      0.113000
     70 H73        -1.0130    4.0110    1.9600 ha        1 DMP      0.256000
     71 H75        -4.9980    0.4500    5.1760 ha        1 DMP      0.134500
     72 H76        -1.0850    0.6560    4.5170 ha        1 DMP      0.153000
     73 H771       -7.6940    7.6570    5.4200 ha        1 DMP      0.004500
     74 H772       -7.6820    8.2700    5.1320 ha        1 DMP      0.004500
     75 HO4         2.4490    3.1330    1.4250 ho        1 DMP      0.219000
     76 HO5        -4.4980   -1.3340    5.0050 ha        1 DMP      0.134500
     77 HO27        0.8390   -9.1700   -7.9980 ho        1 DMP      0.152000
     78 HO77       -5.8040    8.0420    3.8120 ho        1 DMP      0.235000
     79 C20         5.2420   -0.6790   -1.9020 c1        1 DMP     -0.173000
     80 C70        -1.7500    0.7530    2.3970 c3        1 DMP      0.012000
@<TRIPOS>BOND
     1    1   34 1   
     2    1   35 1   
     3    1   36 1   
     4    2    3 1   
     5    2   13 1   
     6    2   34 1   
     7    2   41 1   
     8    3   37 1   
     9    3   42 1   
    10    3   43 1   
    11    4   22 1   
    12    4   38 1   
    13    5   20 1   
    14    5   35 1   
    15    5   44 1   
    16    5   61 1   
    17    6   11 1   
    18    6   79 1   
    19    7    8 1   
    20    7   47 1   
    21    7   48 1   
    22    8    9 1   
    23    9   12 1   
    24    9   49 1   
    25   10   11 1   
    26   10   19 1   
    27   11   50 1   
    28   12   39 1   
    29   13   14 1   
    30   13   55 1   
    31   14   19 1   
    32   14   59 1   
    33   15   16 1   
    34   15   56 1   
    35   16   57 1   
    36   17   18 1   
    37   17   58 1   
    38   18   19 1   
    39   20   21 1   
    40   20   62 1   
    41   20   67 1   
    42   21   26 1   
    43   21   60 1   
    44   21   64 1   
    45   22   23 1   
    46   22   63 1   
    47   23   24 1   
    48   24   65 1   
    49   25   26 1   
    50   26   66 1   
    51   27   32 1   
    52   27   72 1   
    53   27   80 1   
    54   28   29 1   
    55   28   70 1   
    56   29   30 1   
    57   30   33 1   
    58   31   32 1   
    59   31   71 1   
    60   31   76 1   
    61   33   40 1   
    62   34   46 1   
    63   35   80 1   
    64   37   75 1   
    65   39   77 1   
    66   40   78 1   
    67   45   79 1   
    68   51   52 1   
    69   53   54 1   
    70   68   80 1   
    71   69   80 1   
    72   73   74 1   
@<TRIPOS>SUBSTRUCTURE
     1 DMP         1 TEMP              0 ****  ****    0 ROOT
