@<TRIPOS>MOLECULE
DMQ
   78    82     1     0     0
SMALL
bcc


@<TRIPOS>ATOM
      1 C1         -0.1730   -0.1930    0.2010 c         1 DMQ      0.796500
      2 O1         -0.7470   -1.2080   -0.2750 o         1 DMQ     -0.698500
      3 N2          1.1620    0.1410   -0.2070 n         1 DMQ     -0.449300
      4 C2          1.5860   -0.4950   -1.4490 c3        1 DMQ      0.116300
      5 C3          2.1880    0.1920    0.8320 c3        1 DMQ      0.106700
      6 C4          2.1650    1.5610    1.5560 c3        1 DMQ      0.107600
      7 O4          3.3100    1.5760    2.3970 oh        1 DMQ     -0.599300
      8 C5          0.9120    1.7660    2.4140 c3        1 DMQ      0.107600
      9 O5          1.0400    2.9970    3.1160 oh        1 DMQ     -0.599300
     10 C6         -0.3970    1.8980    1.5930 c3        1 DMQ      0.106700
     11 C7         -2.2810    0.3210    1.2970 c3        1 DMQ      0.116300
     12 N7         -0.8740    0.6190    1.1010 n         1 DMQ     -0.449300
     13 C20         2.3600    0.4410   -2.3410 ca        1 DMQ     -0.070300
     14 C21         3.6600    0.1080   -2.7390 ca        1 DMQ     -0.064500
     15 C22         4.3650    0.9350   -3.6140 ca        1 DMQ     -0.096500
     16 C23         3.7890    2.1050   -4.1030 ca        1 DMQ     -0.097500
     17 C28         2.4840    2.4380   -3.6960 ca        1 DMQ     -0.075400
     18 N29         1.8650    3.6590   -4.2150 n4        1 DMQ     -0.701500
     19 C29         1.7650    1.6140   -2.8150 ca        1 DMQ     -0.087000
     20 C31         2.1570   -0.9580    1.8570 c3        1 DMQ     -0.055600
     21 C32         2.7240   -2.2250    1.3210 ca        1 DMQ     -0.109800
     22 C33         1.9280   -3.1090    0.5800 ca        1 DMQ     -0.139500
     23 C34         2.4590   -4.3090    0.1130 ca        1 DMQ     -0.125000
     24 C35         3.7870   -4.6410    0.3840 ca        1 DMQ     -0.116000
     25 C36         4.5840   -3.7660    1.1210 ca        1 DMQ     -0.125000
     26 C37         4.0560   -2.5630    1.5880 ca        1 DMQ     -0.139500
     27 C61        -0.2580    3.0020    0.5280 c3        1 DMQ     -0.055600
     28 C62        -1.5720    3.4560    0.0020 ca        1 DMQ     -0.109800
     29 C63        -2.0860    2.9290   -1.1890 ca        1 DMQ     -0.139500
     30 C64        -3.3050    3.3790   -1.6920 ca        1 DMQ     -0.125000
     31 C65        -4.0200    4.3660   -1.0120 ca        1 DMQ     -0.116000
     32 C66        -3.5130    4.8980    0.1740 ca        1 DMQ     -0.125000
     33 C67        -2.2950    4.4460    0.6800 ca        1 DMQ     -0.139500
     34 C70        -2.5570   -0.6200    2.4430 ca        1 DMQ     -0.070300
     35 C71        -2.3500   -1.9920    2.2630 ca        1 DMQ     -0.087000
     36 C72        -2.6620   -2.8710    3.3110 ca        1 DMQ     -0.075400
     37 N79        -2.4650   -4.3100    3.1290 n4        1 DMQ     -0.701500
     38 C77        -3.1700   -2.3960    4.5350 ca        1 DMQ     -0.097500
     39 C78        -3.3620   -1.0260    4.6930 ca        1 DMQ     -0.096500
     40 C79        -3.0570   -0.1410    3.6560 ca        1 DMQ     -0.064500
     41 H21A        0.6770   -0.8460   -2.0230 h1        1 DMQ      0.089700
     42 H22A        2.2160   -1.4090   -1.2320 h1        1 DMQ      0.089700
     43 H3          3.1940    0.1430    0.3100 h1        1 DMQ      0.085700
     44 H4          2.2440    2.3930    0.8000 h1        1 DMQ      0.057700
     45 HO4         3.4810    2.5010    2.6180 ho        1 DMQ      0.423000
     46 H5          0.8200    0.9170    3.1480 h1        1 DMQ      0.057700
     47 HO5         1.5830    2.8200    3.8960 ho        1 DMQ      0.423000
     48 H6         -1.1700    2.2730    2.3390 h1        1 DMQ      0.085700
     49 H71A       -2.6990   -0.1480    0.3550 h1        1 DMQ      0.089700
     50 H72        -2.8390    1.2870    1.4710 h1        1 DMQ      0.089700
     51 H21         4.1330   -0.8160   -2.3610 ha        1 DMQ      0.172000
     52 H22         5.3890    0.6640   -3.9250 ha        1 DMQ      0.180000
     53 H23         4.3610    2.7460   -4.7940 ha        1 DMQ      0.163500
     54 HN21        1.0620    3.9240   -3.6340 hn        1 DMQ      0.465800
     55 HN22        2.5510    4.4230   -4.2140 hn        1 DMQ      0.465800
     56 H29         0.7430    1.8700   -2.4860 ha        1 DMQ      0.173500
     57 H311        2.7630   -0.6270    2.7480 hc        1 DMQ      0.066450
     58 H312        1.1070   -1.1350    2.2120 hc        1 DMQ      0.066450
     59 H33         0.8820   -2.8430    0.3550 ha        1 DMQ      0.134000
     60 H34         1.8320   -4.9960   -0.4750 ha        1 DMQ      0.145000
     61 H35         4.2050   -5.5920    0.0180 ha        1 DMQ      0.151000
     62 H36         5.6320   -4.0260    1.3400 ha        1 DMQ      0.145000
     63 H37         4.6880   -1.8780    2.1760 ha        1 DMQ      0.134000
     64 H611        0.3880    2.6560   -0.3200 hc        1 DMQ      0.066450
     65 H612        0.2660    3.8640    1.0300 hc        1 DMQ      0.066450
     66 H63        -1.5310    2.1440   -1.7230 ha        1 DMQ      0.134000
     67 H64        -3.7080    2.9550   -2.6240 ha        1 DMQ      0.145000
     68 H65        -4.9820    4.7240   -1.4100 ha        1 DMQ      0.151000
     69 H66        -4.0740    5.6790    0.7110 ha        1 DMQ      0.145000
     70 H67        -1.8940    4.8730    1.6130 ha        1 DMQ      0.134000
     71 H71        -1.9440   -2.3430    1.2940 ha        1 DMQ      0.173500
     72 HN71       -1.9680   -4.4900    2.2490 hn        1 DMQ      0.465800
     73 HN72       -1.9170   -4.6870    3.9110 hn        1 DMQ      0.465800
     74 H77        -3.4180   -3.0800    5.3620 ha        1 DMQ      0.163500
     75 H78        -3.7600   -0.6420    5.6480 ha        1 DMQ      0.180000
     76 H79        -3.2200    0.9420    3.7980 ha        1 DMQ      0.172000
     77 H293        1.5460    3.4990   -5.1790 hn        1 DMQ      0.465800
     78 H793       -3.3780   -4.7800    3.1020 hn        1 DMQ      0.465800
@<TRIPOS>BOND
     1    1    2 2   
     2    1    3 1   
     3    1   12 1   
     4    3    4 1   
     5    3    5 1   
     6    4   13 1   
     7    4   41 1   
     8    4   42 1   
     9    5    6 1   
    10    5   20 1   
    11    5   43 1   
    12    6    7 1   
    13    6    8 1   
    14    6   44 1   
    15    7   45 1   
    16    8    9 1   
    17    8   10 1   
    18    8   46 1   
    19    9   47 1   
    20   10   12 1   
    21   10   27 1   
    22   10   48 1   
    23   11   12 1   
    24   11   34 1   
    25   11   49 1   
    26   11   50 1   
    27   13   14 ar  
    28   13   19 ar  
    29   14   15 ar  
    30   14   51 1   
    31   15   16 ar  
    32   15   52 1   
    33   16   17 ar  
    34   16   53 1   
    35   17   18 1   
    36   17   19 ar  
    37   18   54 1   
    38   18   55 1   
    39   18   77 1   
    40   19   56 1   
    41   20   21 1   
    42   20   57 1   
    43   20   58 1   
    44   21   22 ar  
    45   21   26 ar  
    46   22   23 ar  
    47   22   59 1   
    48   23   24 ar  
    49   23   60 1   
    50   24   25 ar  
    51   24   61 1   
    52   25   26 ar  
    53   25   62 1   
    54   26   63 1   
    55   27   28 1   
    56   27   64 1   
    57   27   65 1   
    58   28   29 ar  
    59   28   33 ar  
    60   29   30 ar  
    61   29   66 1   
    62   30   31 ar  
    63   30   67 1   
    64   31   32 ar  
    65   31   68 1   
    66   32   33 ar  
    67   32   69 1   
    68   33   70 1   
    69   34   35 ar  
    70   34   40 ar  
    71   35   36 ar  
    72   35   71 1   
    73   36   37 1   
    74   36   38 ar  
    75   37   72 1   
    76   37   73 1   
    77   37   78 1   
    78   38   39 ar  
    79   38   74 1   
    80   39   40 ar  
    81   39   75 1   
    82   40   76 1   
@<TRIPOS>SUBSTRUCTURE
     1 DMQ         1 TEMP              0 ****  ****    0 ROOT
