@<TRIPOS>MOLECULE
DMQ
   76    80     1     0     0
SMALL
bcc


@<TRIPOS>ATOM
      1 C1          0.0480   -0.0970   -0.4140 c         1 DMQ      0.796500
      2 O1         -0.6090   -0.2780   -1.4710 o         1 DMQ     -0.681500
      3 N2          1.4340   -0.2840   -0.4250 n         1 DMQ     -0.453800
      4 C2          2.0850   -0.4580   -1.7110 c3        1 DMQ      0.126300
      5 C3          2.2810   -0.2400    0.7460 c3        1 DMQ      0.116700
      6 C4          2.2390    1.1260    1.4790 c3        1 DMQ      0.100600
      7 O4          3.3680    1.1370    2.3490 oh        1 DMQ     -0.606300
      8 C5          0.9720    1.3430    2.3130 c3        1 DMQ      0.100600
      9 O5          1.1120    2.5590    3.0420 oh        1 DMQ     -0.606300
     10 C6         -0.3040    1.4890    1.4460 c3        1 DMQ      0.116700
     11 C7         -2.0460   -0.1330    0.8250 c3        1 DMQ      0.126300
     12 N7         -0.6320    0.2220    0.8090 n         1 DMQ     -0.453800
     13 C20         2.6110    0.8160   -2.3150 ca        1 DMQ     -0.068800
     14 C21         3.9870    1.0460   -2.3860 ca        1 DMQ     -0.166000
     15 C22         4.4590    2.2160   -2.9790 ca        1 DMQ     -0.095500
     16 C23         3.5780    3.1580   -3.4970 ca        1 DMQ     -0.188000
     17 C28         2.1810    2.9360   -3.4370 ca        1 DMQ      0.137600
     18 N29         1.2900    3.8290   -4.0410 nv        1 DMQ     -0.819700
     19 C29         1.7120    1.7500   -2.8260 ca        1 DMQ     -0.177500
     20 C31         2.0570   -1.3940    1.7420 c3        1 DMQ     -0.060100
     21 C32         2.5490   -2.6930    1.2100 ca        1 DMQ     -0.085300
     22 C33         1.6470   -3.6780    0.7900 ca        1 DMQ     -0.129250
     23 C34         2.1140   -4.9010    0.3110 ca        1 DMQ     -0.130250
     24 C35         3.4840   -5.1520    0.2500 ca        1 DMQ     -0.132000
     25 C36         4.3880   -4.1760    0.6700 ca        1 DMQ     -0.130250
     26 C37         3.9240   -2.9530    1.1490 ca        1 DMQ     -0.129250
     27 C61        -0.1710    2.6990    0.5010 c3        1 DMQ     -0.060100
     28 C62        -1.4910    3.2250    0.0590 ca        1 DMQ     -0.085300
     29 C63        -2.1150    2.7100   -1.0850 ca        1 DMQ     -0.129250
     30 C64        -3.3360    3.2290   -1.5120 ca        1 DMQ     -0.130250
     31 C65        -3.9440    4.2650   -0.8030 ca        1 DMQ     -0.132000
     32 C66        -3.3290    4.7800    0.3380 ca        1 DMQ     -0.130250
     33 C67        -2.1070    4.2630    0.7670 ca        1 DMQ     -0.129250
     34 C70        -2.5130   -0.5620    2.1890 ca        1 DMQ     -0.068800
     35 C71        -2.0300   -1.7470    2.7420 ca        1 DMQ     -0.177500
     36 C72        -2.4990   -2.1940    3.9990 ca        1 DMQ      0.137600
     37 N79        -2.0930   -3.4310    4.5130 nv        1 DMQ     -0.819700
     38 C77        -3.4510   -1.4040    4.6850 ca        1 DMQ     -0.188000
     39 C78        -3.9170   -0.2230    4.1200 ca        1 DMQ     -0.095500
     40 C79        -3.4540    0.2070    2.8780 ca        1 DMQ     -0.166000
     41 H21A        2.9320   -1.1920   -1.5780 h1        1 DMQ      0.073950
     42 H22A        1.3420   -0.9140   -2.4320 h1        1 DMQ      0.073950
     43 H3          3.3540   -0.3390    0.3820 h1        1 DMQ      0.083200
     44 H4          2.3400    1.9610    0.7290 h1        1 DMQ      0.063200
     45 HO4         3.5170    2.0610    2.5850 ho        1 DMQ      0.409000
     46 H5          0.8390    0.4860    3.0320 h1        1 DMQ      0.063200
     47 HO5         1.5890    2.3370    3.8500 ho        1 DMQ      0.409000
     48 H6         -1.1430    1.7220    2.1750 h1        1 DMQ      0.083200
     49 H71A       -2.2090   -0.9890    0.1070 h1        1 DMQ      0.073950
     50 H72        -2.6740    0.7350    0.4630 h1        1 DMQ      0.073950
     51 H21         4.6940    0.3090   -1.9790 ha        1 DMQ      0.134000
     52 H22         5.5420    2.3980   -3.0400 ha        1 DMQ      0.130000
     53 H23         3.9730    4.0720   -3.9640 ha        1 DMQ      0.131000
     54 HN21        0.3550    3.7710   -3.7030 hn        1 DMQ      0.390550
     55 HN22        1.6270    4.7620   -4.1140 hn        1 DMQ      0.390550
     56 H29         0.6310    1.5400   -2.7620 ha        1 DMQ      0.143500
     57 H311        2.6300   -1.1340    2.6750 hc        1 DMQ      0.068700
     58 H312        0.9730   -1.4810    2.0190 hc        1 DMQ      0.068700
     59 H33         0.5640   -3.4820    0.8330 ha        1 DMQ      0.139500
     60 H34         1.3980   -5.6680   -0.0210 ha        1 DMQ      0.132500
     61 H35         3.8520   -6.1170   -0.1280 ha        1 DMQ      0.131000
     62 H36         5.4690   -4.3720    0.6250 ha        1 DMQ      0.132500
     63 H37         4.6370   -2.1850    1.4840 ha        1 DMQ      0.139500
     64 H611        0.3830    3.5040    1.0600 hc        1 DMQ      0.068700
     65 H612        0.4440    2.4280   -0.3990 hc        1 DMQ      0.068700
     66 H63        -1.6420    1.8790   -1.6380 ha        1 DMQ      0.139500
     67 H64        -3.8200    2.8180   -2.4100 ha        1 DMQ      0.132500
     68 H65        -4.9060    4.6750   -1.1430 ha        1 DMQ      0.131000
     69 H66        -3.8060    5.5960    0.9000 ha        1 DMQ      0.132500
     70 H67        -1.6230    4.6720    1.6670 ha        1 DMQ      0.139500
     71 H71        -1.2850   -2.3360    2.1860 ha        1 DMQ      0.143500
     72 HN71       -2.1780   -3.5120    5.5020 hn        1 DMQ      0.390550
     73 HN72       -1.2160   -3.7520    4.1670 hn        1 DMQ      0.390550
     74 H77        -3.8340   -1.7260    5.6650 ha        1 DMQ      0.131000
     75 H78        -4.6610    0.3800    4.6630 ha        1 DMQ      0.130000
     76 H79        -3.8290    1.1450    2.4420 ha        1 DMQ      0.134000
@<TRIPOS>BOND
     1    1    2 2   
     2    1    3 1   
     3    1   12 1   
     4    3    4 1   
     5    3    5 1   
     6    4   13 1   
     7    4   41 1   
     8    4   42 1   
     9    5    6 1   
    10    5   20 1   
    11    5   43 1   
    12    6    7 1   
    13    6    8 1   
    14    6   44 1   
    15    7   45 1   
    16    8    9 1   
    17    8   10 1   
    18    8   46 1   
    19    9   47 1   
    20   10   12 1   
    21   10   27 1   
    22   10   48 1   
    23   11   12 1   
    24   11   34 1   
    25   11   49 1   
    26   11   50 1   
    27   13   14 ar  
    28   13   19 ar  
    29   14   15 ar  
    30   14   51 1   
    31   15   16 ar  
    32   15   52 1   
    33   16   17 ar  
    34   16   53 1   
    35   17   18 1   
    36   17   19 ar  
    37   18   54 1   
    38   18   55 1   
    39   19   56 1   
    40   20   21 1   
    41   20   57 1   
    42   20   58 1   
    43   21   22 ar  
    44   21   26 ar  
    45   22   23 ar  
    46   22   59 1   
    47   23   24 ar  
    48   23   60 1   
    49   24   25 ar  
    50   24   61 1   
    51   25   26 ar  
    52   25   62 1   
    53   26   63 1   
    54   27   28 1   
    55   27   64 1   
    56   27   65 1   
    57   28   29 ar  
    58   28   33 ar  
    59   29   30 ar  
    60   29   66 1   
    61   30   31 ar  
    62   30   67 1   
    63   31   32 ar  
    64   31   68 1   
    65   32   33 ar  
    66   32   69 1   
    67   33   70 1   
    68   34   35 ar  
    69   34   40 ar  
    70   35   36 ar  
    71   35   71 1   
    72   36   37 1   
    73   36   38 ar  
    74   37   72 1   
    75   37   73 1   
    76   38   39 ar  
    77   38   74 1   
    78   39   40 ar  
    79   39   75 1   
    80   40   76 1   
@<TRIPOS>SUBSTRUCTURE
     1 DMQ         1 TEMP              0 ****  ****    0 ROOT
