@<TRIPOS>MOLECULE
DMQ
   76    80     1     0     0
SMALL
bcc


@<TRIPOS>ATOM
      1 C1          2.5030   -2.8410    0.2420 c         1 DMQ      0.795500
      2 O1          2.6040   -4.0940    0.2110 o         1 DMQ     -0.682500
      3 N2          2.9000   -2.1130    1.4130 n         1 DMQ     -0.451800
      4 C2          3.7780   -2.8560    2.3100 c3        1 DMQ      0.125800
      5 C3          1.8830   -1.3070    2.0740 c3        1 DMQ      0.102200
      6 C4          1.7570    0.0830    1.3990 c3        1 DMQ      0.116600
      7 O4          0.9070    0.8490    2.2420 oh        1 DMQ     -0.607800
      8 C5          1.1590    0.0040   -0.0110 c3        1 DMQ      0.116600
      9 O5          0.9820    1.3590   -0.4160 oh        1 DMQ     -0.607800
     10 C6          2.0620   -0.7200   -1.0430 c3        1 DMQ      0.102200
     11 C7          1.5680   -2.9420   -2.0130 c3        1 DMQ      0.125800
     12 N7          2.0710   -2.1590   -0.9000 n         1 DMQ     -0.451800
     13 C20         4.7370   -1.9650    3.0500 ca        1 DMQ     -0.068300
     14 C21         4.6860   -1.8950    4.4440 ca        1 DMQ     -0.168500
     15 C22         5.6110   -1.1080    5.1280 ca        1 DMQ     -0.095500
     16 C23         6.5790   -0.3850    4.4400 ca        1 DMQ     -0.187500
     17 C28         6.6330   -0.4340    3.0280 ca        1 DMQ      0.138600
     18 N29         7.5390    0.3650    2.3190 nh        1 DMQ     -0.819700
     19 C29         5.6990   -1.2450    2.3430 ca        1 DMQ     -0.177000
     20 C31         0.4940   -1.9610    2.2090 c3        1 DMQ     -0.063600
     21 C32         0.4460   -2.9840    3.2890 ca        1 DMQ     -0.084300
     22 C33         0.7520   -4.3230    3.0160 ca        1 DMQ     -0.129250
     23 C34         0.6700   -5.2810    4.0250 ca        1 DMQ     -0.130250
     24 C35         0.2840   -4.9120    5.3130 ca        1 DMQ     -0.132500
     25 C36        -0.0170   -3.5790    5.5920 ca        1 DMQ     -0.130250
     26 C37         0.0620   -2.6180    4.5850 ca        1 DMQ     -0.129250
     27 C61         3.4590   -0.0700   -1.0780 c3        1 DMQ     -0.063600
     28 C62         4.1800   -0.3650   -2.3460 ca        1 DMQ     -0.084300
     29 C63         5.2220   -1.2980   -2.3710 ca        1 DMQ     -0.129250
     30 C64         5.9040   -1.5590   -3.5590 ca        1 DMQ     -0.130250
     31 C65         5.5550   -0.8870   -4.7300 ca        1 DMQ     -0.132500
     32 C66         4.5200    0.0480   -4.7110 ca        1 DMQ     -0.130250
     33 C67         3.8360    0.3080   -3.5250 ca        1 DMQ     -0.129250
     34 C70         0.0690   -3.0690   -2.0470 ca        1 DMQ     -0.068300
     35 C71        -0.5710   -3.8470   -1.0840 ca        1 DMQ     -0.177000
     36 C72        -1.9750   -4.0150   -1.1150 ca        1 DMQ      0.138600
     37 N79        -2.6110   -4.8720   -0.2130 nh        1 DMQ     -0.819700
     38 C77        -2.7100   -3.3600   -2.1320 ca        1 DMQ     -0.187500
     39 C78        -2.0540   -2.5890   -3.0840 ca        1 DMQ     -0.095500
     40 C79        -0.6700   -2.4340   -3.0490 ca        1 DMQ     -0.168500
     41 H21A        4.3780   -3.5880    1.6940 h1        1 DMQ      0.072700
     42 H22A        3.1680   -3.4570    3.0490 h1        1 DMQ      0.072700
     43 H3          2.2580   -1.0950    3.1260 h1        1 DMQ      0.075700
     44 H4          2.7680    0.5790    1.3510 h1        1 DMQ      0.063700
     45 HO4         0.8080    1.7120    1.8190 ho        1 DMQ      0.416500
     46 H5          0.1530   -0.5020    0.0360 h1        1 DMQ      0.063700
     47 HO5         0.4420    1.3460   -1.2140 ho        1 DMQ      0.416500
     48 H6          1.5870   -0.5010   -2.0540 h1        1 DMQ      0.075700
     49 H71A        2.0120   -3.9800   -1.9570 h1        1 DMQ      0.072700
     50 H72         1.9290   -2.4650   -2.9700 h1        1 DMQ      0.072700
     51 H21         3.9230   -2.4590    5.0000 ha        1 DMQ      0.133000
     52 H22         5.5750   -1.0550    6.2260 ha        1 DMQ      0.130000
     53 H23         7.2950    0.2330    5.0010 ha        1 DMQ      0.131500
     54 HN21        7.7440    0.0360    1.4020 hn        1 DMQ      0.390550
     55 HN22        8.3530    0.6150    2.8360 hn        1 DMQ      0.390550
     56 H29         5.7170   -1.3060    1.2440 ha        1 DMQ      0.142500
     57 H311        0.1850   -2.4290    1.2360 hc        1 DMQ      0.071200
     58 H312       -0.2410   -1.1410    2.4400 hc        1 DMQ      0.071200
     59 H33         1.0740   -4.6140    2.0010 ha        1 DMQ      0.138500
     60 H34         0.9140   -6.3310    3.8020 ha        1 DMQ      0.132000
     61 H35         0.2190   -5.6700    6.1080 ha        1 DMQ      0.130500
     62 H36        -0.3200   -3.2840    6.6070 ha        1 DMQ      0.132000
     63 H37        -0.1770   -1.5670    4.8070 ha        1 DMQ      0.138500
     64 H611        4.0770   -0.4000   -0.2020 hc        1 DMQ      0.071200
     65 H612        3.3050    1.0410   -0.9850 hc        1 DMQ      0.071200
     66 H63         5.5000   -1.8310   -1.4490 ha        1 DMQ      0.138500
     67 H64         6.7200   -2.2970   -3.5710 ha        1 DMQ      0.132000
     68 H65         6.0940   -1.0930   -5.6660 ha        1 DMQ      0.130500
     69 H66         4.2440    0.5820   -5.6320 ha        1 DMQ      0.132000
     70 H67         3.0250    1.0520   -3.5100 ha        1 DMQ      0.138500
     71 H71         0.0380   -4.3430   -0.3090 ha        1 DMQ      0.142500
     72 HN71       -3.5740   -4.6720   -0.0600 hn        1 DMQ      0.390550
     73 HN72       -2.1020   -5.0450    0.6250 hn        1 DMQ      0.390550
     74 H77        -3.8040   -3.4700   -2.1810 ha        1 DMQ      0.131500
     75 H78        -2.6390   -2.0940   -3.8740 ha        1 DMQ      0.130000
     76 H79        -0.1620   -1.8240   -3.8090 ha        1 DMQ      0.133000
@<TRIPOS>BOND
     1    1    2 2   
     2    1    3 1   
     3    1   12 1   
     4    3    4 1   
     5    3    5 1   
     6    4   13 1   
     7    4   41 1   
     8    4   42 1   
     9    5    6 1   
    10    5   20 1   
    11    5   43 1   
    12    6    7 1   
    13    6    8 1   
    14    6   44 1   
    15    7   45 1   
    16    8    9 1   
    17    8   10 1   
    18    8   46 1   
    19    9   47 1   
    20   10   12 1   
    21   10   27 1   
    22   10   48 1   
    23   11   12 1   
    24   11   34 1   
    25   11   49 1   
    26   11   50 1   
    27   13   14 ar  
    28   13   19 ar  
    29   14   15 ar  
    30   14   51 1   
    31   15   16 ar  
    32   15   52 1   
    33   16   17 ar  
    34   16   53 1   
    35   17   18 1   
    36   17   19 ar  
    37   18   54 1   
    38   18   55 1   
    39   19   56 1   
    40   20   21 1   
    41   20   57 1   
    42   20   58 1   
    43   21   22 ar  
    44   21   26 ar  
    45   22   23 ar  
    46   22   59 1   
    47   23   24 ar  
    48   23   60 1   
    49   24   25 ar  
    50   24   61 1   
    51   25   26 ar  
    52   25   62 1   
    53   26   63 1   
    54   27   28 1   
    55   27   64 1   
    56   27   65 1   
    57   28   29 ar  
    58   28   33 ar  
    59   29   30 ar  
    60   29   66 1   
    61   30   31 ar  
    62   30   67 1   
    63   31   32 ar  
    64   31   68 1   
    65   32   33 ar  
    66   32   69 1   
    67   33   70 1   
    68   34   35 ar  
    69   34   40 ar  
    70   35   36 ar  
    71   35   71 1   
    72   36   37 1   
    73   36   38 ar  
    74   37   72 1   
    75   37   73 1   
    76   38   39 ar  
    77   38   74 1   
    78   39   40 ar  
    79   39   75 1   
    80   40   76 1   
@<TRIPOS>SUBSTRUCTURE
     1 DMQ         1 TEMP              0 ****  ****    0 ROOT
