@<TRIPOS>MOLECULE
DMR
   13    11     1     0     0
SMALL
bcc


@<TRIPOS>ATOM
      1 C1         -1.7920   -0.4620    0.2670 c1        1 DMR      0.301000
      2 O1A        -2.3530    0.1980    1.1810 o         1 DMR     -0.629000
      3 O1B        -2.4870   -1.0930   -0.5720 os        1 DMR     -0.593000
      4 C2         -0.2830   -0.4980    0.1780 c3        1 DMR     -0.017000
      5 O2          0.2620   -0.6000    1.4720 oh        1 DMR     -0.368000
      6 C3          0.2130    0.7700   -0.4790 c3        1 DMR     -0.213000
      7 C4          1.7120    0.6880   -0.6660 c2        1 DMR      0.329000
      8 O4A         2.1950   -0.0410   -1.5720 o         1 DMR     -0.621500
      9 O4B         2.4770    1.3480    0.0850 o         1 DMR     -0.621500
     10 H21        -0.0060   -1.2700   -0.3530 h1        1 DMR      0.110000
     11 HO21        0.2810   -1.4540    1.7190 ho        1 DMR      0.195000
     12 H31        -0.0030    1.5370    0.0880 hc        1 DMR      0.065000
     13 H32        -0.2180    0.8760   -1.3500 hc        1 DMR      0.065000
@<TRIPOS>BOND
     1    1    2 1   
     2    1    4 1   
     3    4    5 1   
     4    4    6 1   
     5    4   10 1   
     6    5   11 1   
     7    6    7 1   
     8    6   12 1   
     9    6   13 1   
    10    7    8 1   
    11    7    9 1   
@<TRIPOS>SUBSTRUCTURE
     1 DMR         1 TEMP              0 ****  ****    0 ROOT
