@<TRIPOS>MOLECULE
DMR
   13    12     1     0     0
SMALL
bcc


@<TRIPOS>ATOM
      1 C1          0.0660   -0.2520   -0.0680 c         1 DMR      0.881600
      2 O1A        -0.6210    0.0680    0.9560 o         1 DMR     -0.876300
      3 O1B        -0.4670   -0.6910   -1.1280 o         1 DMR     -0.876300
      4 C2          1.6010   -0.1070    0.0320 c3        1 DMR      0.044100
      5 O2          1.9890   -0.1530    1.4030 oh        1 DMR     -0.640800
      6 C3          2.0700    1.1820   -0.6260 c3        1 DMR     -0.184400
      7 C4          3.5550    1.2370   -0.9910 c         1 DMR      0.909600
      8 O4A         4.1670    2.3420   -0.8280 o         1 DMR     -0.886800
      9 O4B         4.1370    0.2280   -1.4920 o         1 DMR     -0.886800
     10 H21         2.1170   -0.9830   -0.4470 h1        1 DMR      0.070700
     11 HO21        1.2900    0.3020    1.8930 ho        1 DMR      0.396000
     12 H31         1.4930    1.3100   -1.5790 hc        1 DMR      0.025700
     13 H32         1.8330    2.0450    0.0450 hc        1 DMR      0.025700
@<TRIPOS>BOND
     1    1    2 1   
     2    1    3 1   
     3    1    4 1   
     4    4    5 1   
     5    4    6 1   
     6    4   10 1   
     7    5   11 1   
     8    6    7 1   
     9    6   12 1   
    10    6   13 1   
    11    7    8 1   
    12    7    9 1   
@<TRIPOS>SUBSTRUCTURE
     1 DMR         1 TEMP              0 ****  ****    0 ROOT
