@<TRIPOS>MOLECULE
DMR
   13    12     1     0     0
SMALL
bcc


@<TRIPOS>ATOM
      1 C1          1.8670    0.2020    0.0920 c         1 DMR      0.881600
      2 O1A         2.5910   -0.2640   -0.8470 o         1 DMR     -0.876300
      3 O1B         2.2830    1.0950    0.8860 o         1 DMR     -0.876300
      4 C2          0.4460   -0.3840    0.2520 c3        1 DMR      0.044100
      5 O2          0.4060   -1.6850   -0.3300 oh        1 DMR     -0.640800
      6 C3         -0.5930    0.5300   -0.3810 c3        1 DMR     -0.184400
      7 C4         -2.0350    0.3120    0.0800 c         1 DMR      0.909600
      8 O4A        -2.9600    0.4140   -0.7900 o         1 DMR     -0.886800
      9 O4B        -2.2990    0.0940    1.3010 o         1 DMR     -0.886800
     10 H21         0.1990   -0.5410    1.3360 h1        1 DMR      0.070700
     11 HO21        0.9770   -1.6460   -1.1110 ho        1 DMR      0.396000
     12 H31        -0.3220    1.5870   -0.1230 hc        1 DMR      0.025700
     13 H32        -0.5510    0.4200   -1.4940 hc        1 DMR      0.025700
@<TRIPOS>BOND
     1    1    2 1   
     2    1    3 1   
     3    1    4 1   
     4    4    5 1   
     5    4    6 1   
     6    4   10 1   
     7    5   11 1   
     8    6    7 1   
     9    6   12 1   
    10    6   13 1   
    11    7    8 1   
    12    7    9 1   
@<TRIPOS>SUBSTRUCTURE
     1 DMR         1 TEMP              0 ****  ****    0 ROOT
