@<TRIPOS>MOLECULE
DMR
   13    12     1     0     0
SMALL
bcc


@<TRIPOS>ATOM
      1 C1          0.0760   -0.2720   -0.0490 c         1 DMR      0.881600
      2 O1A        -0.6100    0.0540    0.9730 o         1 DMR     -0.876300
      3 O1B        -0.4540   -0.7340   -1.1000 o         1 DMR     -0.876300
      4 C2          1.6110   -0.1060    0.0420 c3        1 DMR      0.044100
      5 O2          2.0050   -0.1250    1.4130 oh        1 DMR     -0.640800
      6 C3          2.0590    1.1790   -0.6380 c3        1 DMR     -0.184400
      7 C4          3.5420    1.2480   -1.0090 c         1 DMR      0.909600
      8 O4A         4.1390    2.3640   -0.8670 o         1 DMR     -0.886800
      9 O4B         4.1350    0.2390   -1.4970 o         1 DMR     -0.886800
     10 H21         2.1360   -0.9820   -0.4250 h1        1 DMR      0.070700
     11 HO21        1.3010    0.3280    1.8990 ho        1 DMR      0.396000
     12 H31         1.4770    1.2850   -1.5900 hc        1 DMR      0.025700
     13 H32         1.8140    2.0500    0.0210 hc        1 DMR      0.025700
@<TRIPOS>BOND
     1    1    2 1   
     2    1    3 1   
     3    1    4 1   
     4    4    5 1   
     5    4    6 1   
     6    4   10 1   
     7    5   11 1   
     8    6    7 1   
     9    6   12 1   
    10    6   13 1   
    11    7    8 1   
    12    7    9 1   
@<TRIPOS>SUBSTRUCTURE
     1 DMR         1 TEMP              0 ****  ****    0 ROOT
