@<TRIPOS>MOLECULE
DMS
   10     9     1     0     0
SMALL
bcc


@<TRIPOS>ATOM
      1 S          -0.0390   -0.0030    0.0010 s4        1 DMS      0.268600
      2 O           1.4460    0.0950    0.0870 o         1 DMS     -0.506200
      3 C1         -0.6070    0.0170    1.6450 c3        1 DMS     -0.130800
      4 C2         -0.5860    1.5650   -0.5160 c3        1 DMS     -0.130800
      5 H11        -0.1300    0.8010    2.2760 h1        1 DMS      0.083367
      6 H12        -1.7090    0.1700    1.6810 h1        1 DMS      0.083367
      7 H13        -0.3760   -0.9670    2.1180 h1        1 DMS      0.083367
      8 H21        -1.6880    1.6590   -0.3940 h1        1 DMS      0.083367
      9 H22        -0.1060    2.4100    0.0290 h1        1 DMS      0.083367
     10 H23        -0.3410    1.6930   -1.5970 h1        1 DMS      0.083367
@<TRIPOS>BOND
     1    1    2 2   
     2    1    3 1   
     3    1    4 1   
     4    3    5 1   
     5    3    6 1   
     6    3    7 1   
     7    4    8 1   
     8    4    9 1   
     9    4   10 1   
@<TRIPOS>SUBSTRUCTURE
     1 DMS         1 TEMP              0 ****  ****    0 ROOT
