@<TRIPOS>MOLECULE
DMS
   10     9     1     0     0
SMALL
bcc


@<TRIPOS>ATOM
      1 S          -0.0280    0.0020    0.0020 s4        1 DMS      0.268600
      2 O           1.4550    0.1220    0.0870 o         1 DMS     -0.506200
      3 C1         -0.5970    0.0140    1.6450 c3        1 DMS     -0.130800
      4 C2         -0.5970    1.5620   -0.5160 c3        1 DMS     -0.130800
      5 H11        -0.1300    0.8050    2.2770 h1        1 DMS      0.083367
      6 H12        -1.7000    0.1540    1.6800 h1        1 DMS      0.083367
      7 H13        -0.3530   -0.9660    2.1180 h1        1 DMS      0.083367
      8 H21        -1.7010    1.6400   -0.3950 h1        1 DMS      0.083367
      9 H22        -0.1310    2.4140    0.0290 h1        1 DMS      0.083367
     10 H23        -0.3530    1.6930   -1.5970 h1        1 DMS      0.083367
@<TRIPOS>BOND
     1    1    2 2   
     2    1    3 1   
     3    1    4 1   
     4    3    5 1   
     5    3    6 1   
     6    3    7 1   
     7    4    8 1   
     8    4    9 1   
     9    4   10 1   
@<TRIPOS>SUBSTRUCTURE
     1 DMS         1 TEMP              0 ****  ****    0 ROOT
