@<TRIPOS>MOLECULE
DMS
   10     9     1     0     0
SMALL
bcc


@<TRIPOS>ATOM
      1 S           0.1240   -0.3860    0.0000 s4        1 DMS      0.268600
      2 O           1.3460    0.4690    0.0010 o         1 DMS     -0.506200
      3 C1         -0.8460    0.1790    1.3280 c3        1 DMS     -0.130800
      4 C2         -0.8440    0.1790   -1.3290 c3        1 DMS     -0.130800
      5 H11        -0.3780   -0.1580    2.2840 h1        1 DMS      0.083367
      6 H12        -0.9330    1.2880    1.3820 h1        1 DMS      0.083367
      7 H13        -1.8740   -0.2450    1.2750 h1        1 DMS      0.083367
      8 H21        -0.3750   -0.1570   -2.2840 h1        1 DMS      0.083367
      9 H22        -1.8720   -0.2440   -1.2780 h1        1 DMS      0.083367
     10 H23        -0.9320    1.2880   -1.3830 h1        1 DMS      0.083367
@<TRIPOS>BOND
     1    1    2 2   
     2    1    3 1   
     3    1    4 1   
     4    3    5 1   
     5    3    6 1   
     6    3    7 1   
     7    4    8 1   
     8    4    9 1   
     9    4   10 1   
@<TRIPOS>SUBSTRUCTURE
     1 DMS         1 TEMP              0 ****  ****    0 ROOT
