@<TRIPOS>MOLECULE
DMT
   35    34     1     0     0
SMALL
bcc


@<TRIPOS>ATOM
      1 N           1.4370   -0.4640    2.1080 n3        1 DMT     -0.800200
      2 CN          2.5950    0.3780    2.1980 c3        1 DMT      0.165100
      3 CA          0.2000    0.2260    1.7760 c3        1 DMT      0.009500
      4 C          -0.8730   -0.0060    2.9050 c         1 DMT      0.933600
      5 CB         -0.4580   -0.2050    0.4430 c3        1 DMT      0.149100
      6 CG2         0.1970    0.3040   -0.8680 c3        1 DMT     -0.046000
      7 CD1        -0.8160    0.0180   -1.9890 c3        1 DMT     -0.053200
      8 CD2         0.4460    1.8000   -0.7640 c3        1 DMT     -0.084600
      9 CD3         1.4960   -0.4240   -1.1640 c3        1 DMT     -0.084600
     10 CE         -0.3200    0.2870   -3.3600 c2        1 DMT     -0.137200
     11 CZ         -0.6540   -0.4570   -4.4200 c2        1 DMT     -0.212200
     12 CH         -0.1970   -0.1830   -5.7950 c3        1 DMT     -0.051900
     13 O          -1.0350    0.9250    3.7350 o         1 DMT     -0.836800
     14 OXT        -1.5360   -1.0830    2.8780 o         1 DMT     -0.836800
     15 OG1        -0.5290   -1.6220    0.3430 oh        1 DMT     -0.656800
     16 H           1.5860   -1.2230    1.4680 hn        1 DMT      0.354800
     17 HCN1        3.4860   -0.2580    2.4440 h1        1 DMT      0.008367
     18 HCN2        2.8350    0.9620    1.2640 h1        1 DMT      0.008367
     19 HCN3        2.4380    1.1170    3.0280 h1        1 DMT      0.008367
     20 HA          0.3700    1.3410    1.7370 h1        1 DMT      0.042700
     21 HB         -1.5110    0.2050    0.4710 h1        1 DMT      0.036700
     22 HD12       -1.1370   -1.0550   -1.8940 hc        1 DMT      0.059200
     23 HD13       -1.7260    0.6570   -1.8150 hc        1 DMT      0.059200
     24 HD21       -0.4720    2.3220   -0.4030 hc        1 DMT      0.031200
     25 HD22        1.2790    2.0080   -0.0490 hc        1 DMT      0.031200
     26 HD23        0.7310    2.2230   -1.7570 hc        1 DMT      0.031200
     27 HD31        1.3450   -1.5260   -1.0560 hc        1 DMT      0.031200
     28 HD32        1.8370   -0.2070   -2.2050 hc        1 DMT      0.031200
     29 HD33        2.3020   -0.1020   -0.4630 hc        1 DMT      0.031200
     30 HE          0.3400    1.1630   -3.4750 ha        1 DMT      0.112000
     31 HZ         -1.3060   -1.3390   -4.3090 ha        1 DMT      0.118000
     32 HH1        -1.0750   -0.0150   -6.4690 hc        1 DMT      0.028367
     33 HH2         0.4590    0.7200   -5.8450 hc        1 DMT      0.028367
     34 HH3         0.3800   -1.0570   -6.1910 hc        1 DMT      0.028367
     35 HG1        -0.9100   -1.9330    1.1850 ho        1 DMT      0.460000
@<TRIPOS>BOND
     1    1    2 1   
     2    1    3 1   
     3    1   16 1   
     4    2   17 1   
     5    2   18 1   
     6    2   19 1   
     7    3    4 1   
     8    3    5 1   
     9    3   20 1   
    10    4   13 1   
    11    4   14 1   
    12    5    6 1   
    13    5   15 1   
    14    5   21 1   
    15    6    7 1   
    16    6    8 1   
    17    6    9 1   
    18    7   10 1   
    19    7   22 1   
    20    7   23 1   
    21    8   24 1   
    22    8   25 1   
    23    8   26 1   
    24    9   27 1   
    25    9   28 1   
    26    9   29 1   
    27   10   11 2   
    28   10   30 1   
    29   11   12 1   
    30   11   31 1   
    31   12   32 1   
    32   12   33 1   
    33   12   34 1   
    34   15   35 1   
@<TRIPOS>SUBSTRUCTURE
     1 DMT         1 TEMP              0 ****  ****    0 ROOT
