@<TRIPOS>MOLECULE
DMU
   75    76     1     0     0
SMALL
bcc


@<TRIPOS>ATOM
      1 C1         -0.6390   -2.3530    0.7160 c3        1 DMU      0.086100
      2 C2         -2.1110   -2.1820    0.3050 c3        1 DMU      0.121100
      3 C3         -2.4580   -0.6840    0.2140 c3        1 DMU      0.128100
      4 C4         -1.4500    0.0210   -0.7150 c3        1 DMU      0.107100
      5 O5         -0.1170   -0.1700   -0.2400 os        1 DMU     -0.444600
      6 C6          0.2690   -1.5390   -0.2240 c3        1 DMU      0.306900
      7 O7         -3.7340   -0.5030   -0.3990 os        1 DMU     -0.458600
      8 O16         1.5470   -1.5050    0.3670 os        1 DMU     -0.422600
      9 C18         2.5440   -0.8870   -0.4580 c3        1 DMU      0.136400
     10 C19         3.8440   -0.9600    0.3230 c3        1 DMU     -0.084400
     11 C22         4.9680   -0.3290   -0.4690 c3        1 DMU     -0.078400
     12 C25         6.2730   -0.3920    0.2950 c3        1 DMU     -0.078400
     13 C28         7.4010    0.2390   -0.4940 c3        1 DMU     -0.079400
     14 C31         8.7060    0.1760    0.2690 c3        1 DMU     -0.079400
     15 C34         9.8340    0.8070   -0.5190 c3        1 DMU     -0.079400
     16 C37        11.1400    0.7430    0.2430 c3        1 DMU     -0.079400
     17 C40        12.2690    1.3740   -0.5440 c3        1 DMU     -0.080400
     18 C43        13.5710    1.3130    0.2120 c3        1 DMU     -0.093100
     19 O49        -0.3520   -3.7360    0.6080 oh        1 DMU     -0.603800
     20 O55        -2.9470   -2.7600    1.2920 oh        1 DMU     -0.604800
     21 C57        -1.6650    1.5380   -0.7400 c3        1 DMU      0.140400
     22 O61        -0.6860    2.1720   -1.5310 oh        1 DMU     -0.592800
     23 C5         -6.0990   -0.7500   -0.4200 c3        1 DMU      0.095100
     24 C7         -6.4080    0.6080   -1.0640 c3        1 DMU      0.073100
     25 C8         -6.4490    1.7010    0.0160 c3        1 DMU      0.129100
     26 C9         -5.1100    1.7110    0.7640 c3        1 DMU      0.098100
     27 O1         -4.8510    0.4310    1.3530 os        1 DMU     -0.441600
     28 C10        -4.8460   -0.6660    0.4710 c3        1 DMU      0.302900
     29 O2         -6.6100    2.9810   -0.5700 oh        1 DMU     -0.594800
     30 O3         -5.9650   -1.7440   -1.4140 oh        1 DMU     -0.590800
     31 O4         -7.6820    0.6000   -1.6850 oh        1 DMU     -0.605800
     32 H1         -0.4900   -2.0070    1.7770 h1        1 DMU      0.079700
     33 H2         -2.2940   -2.6830   -0.6860 h1        1 DMU      0.062700
     34 H3         -2.4530   -0.2250    1.2400 h1        1 DMU      0.087700
     35 H4         -1.5390   -0.3980   -1.7560 h1        1 DMU      0.062700
     36 H5          0.2890   -1.9620   -1.2660 h2        1 DMU      0.054700
     37 H6          2.6190   -1.4470   -1.4280 h1        1 DMU      0.038700
     38 H7          2.2500    0.1750   -0.6630 h1        1 DMU      0.038700
     39 H8          3.7170   -0.4320    1.3040 hc        1 DMU      0.055200
     40 H9          4.0840   -2.0310    0.5500 hc        1 DMU      0.055200
     41 H10         5.0810   -0.8580   -1.4520 hc        1 DMU      0.042200
     42 H11         4.7160    0.7410   -0.6950 hc        1 DMU      0.042200
     43 H12         6.1600    0.1370    1.2780 hc        1 DMU      0.041700
     44 H13         6.5250   -1.4620    0.5220 hc        1 DMU      0.041700
     45 H14         7.5140   -0.2890   -1.4770 hc        1 DMU      0.040200
     46 H15         7.1490    1.3090   -0.7210 hc        1 DMU      0.040200
     47 H16         8.5930    0.7040    1.2520 hc        1 DMU      0.040200
     48 H17         8.9580   -0.8940    0.4960 hc        1 DMU      0.040200
     49 H18         9.9470    0.2790   -1.5030 hc        1 DMU      0.039700
     50 H19         9.5820    1.8760   -0.7460 hc        1 DMU      0.039700
     51 H20        11.0270    1.2720    1.2270 hc        1 DMU      0.039700
     52 H21        11.3920   -0.3260    0.4700 hc        1 DMU      0.039700
     53 H22        12.3790    0.8460   -1.5280 hc        1 DMU      0.038700
     54 H23        12.0140    2.4430   -0.7710 hc        1 DMU      0.038700
     55 H24        13.4890    1.8560    1.1840 hc        1 DMU      0.032700
     56 H25        13.8540    0.2540    0.4250 hc        1 DMU      0.032700
     57 H26        14.3890    1.7830   -0.3860 hc        1 DMU      0.032700
     58 H27         0.5680   -3.8480    0.8860 ho        1 DMU      0.426000
     59 H28        -2.6740   -3.6830    1.3800 ho        1 DMU      0.427000
     60 H29        -2.6440    1.7600   -1.2440 h1        1 DMU      0.065200
     61 H30        -1.6610    1.9470    0.3040 h1        1 DMU      0.065200
     62 H31         0.1710    1.9930   -1.1210 ho        1 DMU      0.412000
     63 H32        -6.9710   -1.0870    0.2090 h1        1 DMU      0.102700
     64 H33        -5.6200    0.8550   -1.8300 h1        1 DMU      0.062700
     65 H34        -7.2990    1.4990    0.7250 h1        1 DMU      0.059700
     66 H35        -4.2740    1.9620    0.0550 h1        1 DMU      0.074700
     67 H36        -4.7390   -1.5730    1.1340 h2        1 DMU      0.126700
     68 H37        -7.3860    2.9220   -1.1440 ho        1 DMU      0.426000
     69 H38        -5.1300   -1.5830   -1.8770 ho        1 DMU      0.419000
     70 H39        -7.7230   -0.2010   -2.2250 ho        1 DMU      0.424000
     71 H42        -3.6670    1.8970    2.8910 ho        1 DMU      0.408000
     72 C11        -5.1330    2.7020    1.9300 c3        1 DMU      0.140400
     73 O6         -3.8710    2.7800    2.5550 oh        1 DMU     -0.596800
     74 H40        -5.3380    3.7320    1.5300 h1        1 DMU      0.064700
     75 H41        -5.9210    2.4060    2.6710 h1        1 DMU      0.064700
@<TRIPOS>BOND
     1    1    2 1   
     2    1    6 1   
     3    1   19 1   
     4    1   32 1   
     5    2    3 1   
     6    2   20 1   
     7    2   33 1   
     8    3    4 1   
     9    3    7 1   
    10    3   34 1   
    11    4    5 1   
    12    4   21 1   
    13    4   35 1   
    14    5    6 1   
    15    6    8 1   
    16    6   36 1   
    17    7   28 1   
    18    8    9 1   
    19    9   10 1   
    20    9   37 1   
    21    9   38 1   
    22   10   11 1   
    23   10   39 1   
    24   10   40 1   
    25   11   12 1   
    26   11   41 1   
    27   11   42 1   
    28   12   13 1   
    29   12   43 1   
    30   12   44 1   
    31   13   14 1   
    32   13   45 1   
    33   13   46 1   
    34   14   15 1   
    35   14   47 1   
    36   14   48 1   
    37   15   16 1   
    38   15   49 1   
    39   15   50 1   
    40   16   17 1   
    41   16   51 1   
    42   16   52 1   
    43   17   18 1   
    44   17   53 1   
    45   17   54 1   
    46   18   55 1   
    47   18   56 1   
    48   18   57 1   
    49   19   58 1   
    50   20   59 1   
    51   21   22 1   
    52   21   60 1   
    53   21   61 1   
    54   22   62 1   
    55   23   24 1   
    56   23   28 1   
    57   23   30 1   
    58   23   63 1   
    59   24   25 1   
    60   24   31 1   
    61   24   64 1   
    62   25   26 1   
    63   25   29 1   
    64   25   65 1   
    65   26   27 1   
    66   26   66 1   
    67   26   72 1   
    68   27   28 1   
    69   28   67 1   
    70   29   68 1   
    71   30   69 1   
    72   31   70 1   
    73   71   73 1   
    74   72   73 1   
    75   72   74 1   
    76   72   75 1   
@<TRIPOS>SUBSTRUCTURE
     1 DMU         1 TEMP              0 ****  ****    0 ROOT
