@<TRIPOS>MOLECULE
DMV
   21    20     1     0     0
SMALL
bcc


@<TRIPOS>ATOM
      1 C1          0.0910    0.0790   -0.1640 c         1 DMV      0.891600
      2 C2          1.6360    0.1160   -0.0440 c3        1 DMV     -0.010900
      3 C3          2.0920    0.0660    1.4350 c3        1 DMV      0.158800
      4 C32         1.4700   -1.1360    2.1350 c3        1 DMV     -0.113100
      5 C4          3.6230    0.0160    1.4920 c3        1 DMV     -0.069400
      6 C5          4.1680   -0.0470    2.8940 c3        1 DMV     -0.083100
      7 O11        -0.5750    0.9910    0.4040 o         1 DMV     -0.834300
      8 O12        -0.4080   -0.8720   -0.8290 o         1 DMV     -0.834300
      9 O21         2.2420   -0.9420   -0.7650 oh        1 DMV     -0.638800
     10 O31         1.7040    1.2640    2.1020 oh        1 DMV     -0.644800
     11 H2          2.0180    1.0710   -0.4980 h1        1 DMV      0.046700
     12 H323        1.8520   -2.0760    1.6700 hc        1 DMV      0.036367
     13 H322        1.7200   -1.1270    3.2210 hc        1 DMV      0.036367
     14 H321        0.3590   -1.1000    2.0190 hc        1 DMV      0.036367
     15 H42         4.0160    0.9340    0.9820 hc        1 DMV      0.043200
     16 H41         3.9580   -0.8750    0.9000 hc        1 DMV      0.043200
     17 H53         5.2760    0.0960    2.8880 hc        1 DMV      0.021700
     18 H52         3.9470   -1.0360    3.3630 hc        1 DMV      0.021700
     19 H51         3.7060    0.7520    3.5230 hc        1 DMV      0.021700
     20 H21         1.5310   -1.5570   -1.0150 ho        1 DMV      0.425000
     21 H31         0.7850    1.4470    1.8430 ho        1 DMV      0.446000
@<TRIPOS>BOND
     1    1    2 1   
     2    1    7 1   
     3    1    8 1   
     4    2    3 1   
     5    2    9 1   
     6    2   11 1   
     7    3    4 1   
     8    3    5 1   
     9    3   10 1   
    10    4   12 1   
    11    4   13 1   
    12    4   14 1   
    13    5    6 1   
    14    5   15 1   
    15    5   16 1   
    16    6   17 1   
    17    6   18 1   
    18    6   19 1   
    19    9   20 1   
    20   10   21 1   
@<TRIPOS>SUBSTRUCTURE
     1 DMV         1 TEMP              0 ****  ****    0 ROOT
