@<TRIPOS>MOLECULE
DMV
   21    20     1     0     0
SMALL
bcc


@<TRIPOS>ATOM
      1 C1         -0.0910    0.1350   -1.7340 c         1 DMV      0.891600
      2 C2          0.5230    0.6590   -0.4100 c3        1 DMV     -0.010900
      3 C3         -0.1520    0.0080    0.8240 c3        1 DMV      0.158800
      4 C32        -0.1050   -1.5100    0.7070 c3        1 DMV     -0.113100
      5 C4          0.5490    0.4940    2.0990 c3        1 DMV     -0.069400
      6 C5         -0.0270   -0.0940    3.3590 c3        1 DMV     -0.083100
      7 O11        -1.3290    0.2990   -1.9260 o         1 DMV     -0.834300
      8 O12         0.6970   -0.4300   -2.5440 o         1 DMV     -0.834300
      9 O21         1.9210    0.4400   -0.3590 oh        1 DMV     -0.638800
     10 O31        -1.5060    0.4430    0.9200 oh        1 DMV     -0.644800
     11 H2          0.3710    1.7710   -0.3490 h1        1 DMV      0.046700
     12 H323        0.9560   -1.8520    0.7280 hc        1 DMV      0.036367
     13 H322       -0.6680   -1.9830    1.5450 hc        1 DMV      0.036367
     14 H321       -0.5680   -1.8220   -0.2620 hc        1 DMV      0.036367
     15 H42         0.4610    1.6110    2.1350 hc        1 DMV      0.043200
     16 H41         1.6370    0.2380    2.0080 hc        1 DMV      0.043200
     17 H53         0.3950    0.4200    4.2560 hc        1 DMV      0.021700
     18 H52        -1.1380    0.0250    3.3650 hc        1 DMV      0.021700
     19 H51         0.2100   -1.1820    3.4360 hc        1 DMV      0.021700
     20 H21         2.1400   -0.1590   -1.0920 ho        1 DMV      0.425000
     21 H31        -1.8850    0.3870    0.0260 ho        1 DMV      0.446000
@<TRIPOS>BOND
     1    1    2 1   
     2    1    7 1   
     3    1    8 1   
     4    2    3 1   
     5    2    9 1   
     6    2   11 1   
     7    3    4 1   
     8    3    5 1   
     9    3   10 1   
    10    4   12 1   
    11    4   13 1   
    12    4   14 1   
    13    5    6 1   
    14    5   15 1   
    15    5   16 1   
    16    6   17 1   
    17    6   18 1   
    18    6   19 1   
    19    9   20 1   
    20   10   21 1   
@<TRIPOS>SUBSTRUCTURE
     1 DMV         1 TEMP              0 ****  ****    0 ROOT
