@<TRIPOS>MOLECULE
DMV
   21    20     1     0     0
SMALL
bcc


@<TRIPOS>ATOM
      1 C1          0.0930    0.0850   -0.1660 c         1 DMV      0.891600
      2 C2          1.6380    0.1260   -0.0430 c3        1 DMV     -0.010900
      3 C3          2.0900    0.0640    1.4370 c3        1 DMV      0.158800
      4 C32         1.4710   -1.1470    2.1240 c3        1 DMV     -0.113100
      5 C4          3.6220    0.0200    1.4970 c3        1 DMV     -0.069400
      6 C5          4.1640   -0.0540    2.8990 c3        1 DMV     -0.083100
      7 O11        -0.5780    0.9880    0.4080 o         1 DMV     -0.834300
      8 O12        -0.4010   -0.8630   -0.8410 o         1 DMV     -0.834300
      9 O21         2.2490   -0.9230   -0.7720 oh        1 DMV     -0.638800
     10 O31         1.6960    1.2550    2.1140 oh        1 DMV     -0.644800
     11 H2          2.0170    1.0870   -0.4880 h1        1 DMV      0.046700
     12 H323        0.3600   -1.1130    2.0060 hc        1 DMV      0.036367
     13 H322        1.8580   -2.0800    1.6520 hc        1 DMV      0.036367
     14 H321        1.7190   -1.1470    3.2110 hc        1 DMV      0.036367
     15 H42         3.9610   -0.8650    0.8970 hc        1 DMV      0.043200
     16 H41         4.0120    0.9440    0.9960 hc        1 DMV      0.043200
     17 H53         3.6960    0.7380    3.5340 hc        1 DMV      0.021700
     18 H52         5.2710    0.0940    2.8970 hc        1 DMV      0.021700
     19 H51         3.9450   -1.0480    3.3590 hc        1 DMV      0.021700
     20 H21         1.5420   -1.5380   -1.0290 ho        1 DMV      0.425000
     21 H31         0.7760    1.4360    1.8540 ho        1 DMV      0.446000
@<TRIPOS>BOND
     1    1    2 1   
     2    1    7 1   
     3    1    8 1   
     4    2    3 1   
     5    2    9 1   
     6    2   11 1   
     7    3    4 1   
     8    3    5 1   
     9    3   10 1   
    10    4   12 1   
    11    4   13 1   
    12    4   14 1   
    13    5    6 1   
    14    5   15 1   
    15    5   16 1   
    16    6   17 1   
    17    6   18 1   
    18    6   19 1   
    19    9   20 1   
    20   10   21 1   
@<TRIPOS>SUBSTRUCTURE
     1 DMV         1 TEMP              0 ****  ****    0 ROOT
