@<TRIPOS>MOLECULE
DMV
   21    19     1     0     0
SMALL
bcc


@<TRIPOS>ATOM
      1 C1         -1.6560    1.1260   -1.4970 c1        1 DMV      0.311000
      2 C2         -0.5630    0.0970   -1.3130 c2        1 DMV     -0.073000
      3 C3         -0.0380    0.1680    0.1030 c3        1 DMV      0.071000
      4 C32         0.6670    1.4900    0.3140 c3        1 DMV     -0.232000
      5 C4          0.9370   -0.9660    0.3370 c3        1 DMV     -0.150000
      6 C5          1.1140   -1.1810    1.8240 c3        1 DMV     -0.200000
      7 O11        -2.7560    0.9890   -0.9000 o         1 DMV     -0.569000
      8 O12        -1.4660    2.1190   -2.2460 o         1 DMV     -0.569000
      9 O21        -1.0830   -1.1880   -1.5570 oh        1 DMV     -0.354000
     10 O31        -1.1100    0.0590    1.0080 oh        1 DMV     -0.367000
     11 H2          0.1640    0.2790   -1.9400 h4        1 DMV      0.099000
     12 H323        1.1670    1.4630    1.1570 hc        1 DMV      0.077333
     13 H322        0.0050    2.2120    0.3500 hc        1 DMV      0.077333
     14 H321        1.2870    1.6520   -0.4280 hc        1 DMV      0.077333
     15 H42         0.5890   -1.7840   -0.0710 hc        1 DMV      0.080500
     16 H41         1.8000   -0.7420   -0.0650 hc        1 DMV      0.080500
     17 H53         1.0720   -0.3170    2.2860 hc        1 DMV      0.062000
     18 H52         0.4000   -1.7640    2.1570 hc        1 DMV      0.062000
     19 H51         1.9830   -1.6000    1.9920 hc        1 DMV      0.062000
     20 H21        -1.0130   -1.3760   -2.4230 ho        1 DMV      0.217000
     21 H31        -1.4990   -0.7350    0.9120 ho        1 DMV      0.238000
@<TRIPOS>BOND
     1    1    7 1   
     2    1    8 1   
     3    2    3 1   
     4    2    9 1   
     5    2   11 1   
     6    3    4 1   
     7    3    5 1   
     8    3   10 1   
     9    4   12 1   
    10    4   13 1   
    11    4   14 1   
    12    5    6 1   
    13    5   15 1   
    14    5   16 1   
    15    6   17 1   
    16    6   18 1   
    17    6   19 1   
    18    9   20 1   
    19   10   21 1   
@<TRIPOS>SUBSTRUCTURE
     1 DMV         1 TEMP              0 ****  ****    0 ROOT
