@<TRIPOS>MOLECULE
DMW
   24    22     1     0     0
SMALL
bcc


@<TRIPOS>ATOM
      1 C5         -0.9180    0.0270   -1.3780 c1        1 DMW     -0.110000
      2 C5M        -1.6750   -0.0360   -2.6860 c2        1 DMW     -0.192000
      3 C4          0.5750    0.0270   -1.3780 c2        1 DMW      0.294000
      4 O4          1.1820    0.0170   -2.4300 o         1 DMW     -0.277000
      5 C3          1.3510    0.0270   -0.0340 c2        1 DMW     -0.112000
      6 C2          0.6490    0.0270    1.1850 c2        1 DMW     -0.112000
      7 C1         -0.9030    0.0270    1.1900 c2        1 DMW      0.294000
      8 O1         -1.5070    0.0170    2.2440 o         1 DMW     -0.277000
      9 C6         -1.6530    0.0270   -0.1010 c2        1 DMW     -0.110000
     10 C3A         2.7470    0.0270   -0.0350 c1        1 DMW     -0.086000
     11 C3B         3.4460    0.0270    1.1720 c1        1 DMW     -0.117000
     12 C3C         2.7450    0.0270    2.3890 c1        1 DMW     -0.117000
     13 C3D         1.3500    0.0270    2.3920 c1        1 DMW     -0.086000
     14 C6M        -3.1640   -0.0460   -0.0970 c3        1 DMW     -0.192000
     15 H5M1       -2.2860    0.7230   -2.7460 ha        1 DMW      0.099000
     16 H5M2       -2.1840   -0.8680   -2.7280 ha        1 DMW      0.099000
     17 H5M3       -1.0430   -0.0030   -3.4300 ha        1 DMW      0.099000
     18 H3A         3.2340    0.0270   -0.8810 ha        1 DMW      0.160000
     19 H3B         4.4220    0.0270    1.1710 ha        1 DMW      0.142000
     20 H3C         3.2350    0.0270    3.2340 ha        1 DMW      0.142000
     21 H3D         0.8640    0.0270    3.2390 ha        1 DMW      0.160000
     22 H6M1       -3.5280    0.7130   -0.5910 hc        1 DMW      0.099000
     23 H6M2       -3.4890   -0.0220    0.8230 hc        1 DMW      0.099000
     24 H6M3       -3.4500   -0.8780   -0.5220 hc        1 DMW      0.099000
@<TRIPOS>BOND
     1    1    3 1   
     2    1    9 1   
     3    2   15 1   
     4    2   16 1   
     5    2   17 1   
     6    3    4 1   
     7    3    5 1   
     8    5    6 1   
     9    5   10 1   
    10    6    7 1   
    11    6   13 1   
    12    7    8 1   
    13    7    9 1   
    14    9   14 1   
    15   10   18 1   
    16   11   12 1   
    17   11   19 1   
    18   12   20 1   
    19   13   21 1   
    20   14   22 1   
    21   14   23 1   
    22   14   24 1   
@<TRIPOS>SUBSTRUCTURE
     1 DMW         1 TEMP              0 ****  ****    0 ROOT
