@<TRIPOS>MOLECULE
DMW
   24    25     1     0     0
SMALL
bcc


@<TRIPOS>ATOM
      1 C5          0.6760   -0.0010    1.7140 cc        1 DMW     -0.133400
      2 C5M         1.4450   -0.0020    2.9810 c3        1 DMW     -0.069900
      3 C4          1.4630   -0.0020    0.4580 c         1 DMW      0.572900
      4 O4          2.7020   -0.0020    0.4670 o         1 DMW     -0.516100
      5 C3          0.7020   -0.0010   -0.8100 ca        1 DMW     -0.132600
      6 C2         -0.7020   -0.0000   -0.8100 ca        1 DMW     -0.132600
      7 C1         -1.4630    0.0000    0.4580 c         1 DMW      0.572900
      8 O1         -2.7010    0.0010    0.4670 o         1 DMW     -0.516100
      9 C6         -0.6760   -0.0000    1.7140 cd        1 DMW     -0.133400
     10 C3A         1.3950   -0.0010   -2.0250 ca        1 DMW     -0.086000
     11 C3B         0.6970   -0.0010   -3.2330 ca        1 DMW     -0.117000
     12 C3C        -0.6970    0.0000   -3.2330 ca        1 DMW     -0.117000
     13 C3D        -1.3950    0.0000   -2.0250 ca        1 DMW     -0.086000
     14 C6M        -1.4440    0.0000    2.9810 c3        1 DMW     -0.069900
     15 H5M1        2.5470   -0.0020    2.7890 hc        1 DMW      0.059700
     16 H5M2        1.1870    0.9040    3.5870 hc        1 DMW      0.059700
     17 H5M3        1.1860   -0.9070    3.5870 hc        1 DMW      0.059700
     18 H3A         2.4980   -0.0020   -2.0140 ha        1 DMW      0.160000
     19 H3B         1.2500   -0.0010   -4.1840 ha        1 DMW      0.142000
     20 H3C        -1.2500    0.0000   -4.1840 ha        1 DMW      0.142000
     21 H3D        -2.4980    0.0010   -2.0140 ha        1 DMW      0.160000
     22 H6M1       -2.5460    0.0010    2.7890 hc        1 DMW      0.059700
     23 H6M2       -1.1870   -0.9060    3.5870 hc        1 DMW      0.059700
     24 H6M3       -1.1860    0.9060    3.5870 hc        1 DMW      0.059700
@<TRIPOS>BOND
     1    1    2 1   
     2    1    3 1   
     3    1    9 2   
     4    2   15 1   
     5    2   16 1   
     6    2   17 1   
     7    3    4 2   
     8    3    5 1   
     9    5    6 ar  
    10    5   10 ar  
    11    6    7 1   
    12    6   13 ar  
    13    7    8 2   
    14    7    9 1   
    15    9   14 1   
    16   10   11 ar  
    17   10   18 1   
    18   11   12 ar  
    19   11   19 1   
    20   12   13 ar  
    21   12   20 1   
    22   13   21 1   
    23   14   22 1   
    24   14   23 1   
    25   14   24 1   
@<TRIPOS>SUBSTRUCTURE
     1 DMW         1 TEMP              0 ****  ****    0 ROOT
