@<TRIPOS>MOLECULE
DMX
   36    36     1     0     0
SMALL
bcc


@<TRIPOS>ATOM
      1 C1         -0.4760   -0.0350    0.3960 ca        1 DMX     -0.101000
      2 C2          0.8890    0.1950    0.2140 ca        1 DMX     -0.127000
      3 C3          1.7650    0.0840    1.2920 ca        1 DMX     -0.106000
      4 C4          1.2780   -0.2590    2.5590 ca        1 DMX     -0.148300
      5 C5         -0.0910   -0.4870    2.7390 ca        1 DMX     -0.106000
      6 C6         -0.9640   -0.3750    1.6570 ca        1 DMX     -0.127000
      7 C7          2.2020   -0.3080    3.7310 c3        1 DMX      0.169100
      8 N8          2.8290   -1.6600    3.9900 n4        1 DMX     -0.587800
      9 C9          3.7520   -1.4890    5.1770 c3        1 DMX      0.098800
     10 C10         4.2540   -2.9810    7.1150 c3        1 DMX     -0.306600
     11 S11         2.5670   -3.4490    7.5040 s6        1 DMX      1.434800
     12 C12         3.6100   -2.0980    2.8050 c3        1 DMX      0.070600
     13 C13         1.7540   -2.6530    4.2800 c3        1 DMX      0.070600
     14 O14         1.8460   -2.2410    7.2530 o         1 DMX     -0.744867
     15 O15         2.2570   -4.4140    6.5120 o         1 DMX     -0.744867
     16 O16         2.5990   -3.8850    8.8290 o         1 DMX     -0.744867
     17 C17         4.4850   -2.7460    5.6490 c3        1 DMX     -0.039400
     18 H1         -1.1670    0.0550   -0.4570 ha        1 DMX      0.145000
     19 H2          1.2740    0.4680   -0.7800 ha        1 DMX      0.146500
     20 H3          2.8390    0.2750    1.1480 ha        1 DMX      0.142000
     21 H5         -0.4790   -0.7500    3.7360 ha        1 DMX      0.142000
     22 H6         -2.0410   -0.5530    1.8040 ha        1 DMX      0.146500
     23 H71         1.6390   -0.0300    4.6720 hx        1 DMX      0.099700
     24 H72         3.0430    0.4280    3.5810 hx        1 DMX      0.099700
     25 H91         4.5050   -0.7050    4.8860 hx        1 DMX      0.106700
     26 H92         3.1080   -1.0900    6.0250 hx        1 DMX      0.106700
     27 H101        4.9310   -3.8010    7.4590 h1        1 DMX      0.086200
     28 H102        4.5250   -2.0740    7.7050 h1        1 DMX      0.086200
     29 H121        4.0800   -3.0940    3.0190 hx        1 DMX      0.104200
     30 H122        4.4110   -1.3450    2.5840 hx        1 DMX      0.104200
     31 H123        2.9260   -2.1880    1.9190 hx        1 DMX      0.104200
     32 H131        1.2070   -2.3440    5.2200 hx        1 DMX      0.104200
     33 H132        1.0540   -2.6960    3.4070 hx        1 DMX      0.104200
     34 H133        2.1980   -3.6720    4.4750 hx        1 DMX      0.104200
     35 H171        4.1620   -3.6670    5.0910 hc        1 DMX      0.053200
     36 H172        5.5790   -2.6060    5.4410 hc        1 DMX      0.053200
@<TRIPOS>BOND
     1    1    2 ar  
     2    1    6 ar  
     3    1   18 1   
     4    2    3 ar  
     5    2   19 1   
     6    3    4 ar  
     7    3   20 1   
     8    4    5 ar  
     9    4    7 1   
    10    5    6 ar  
    11    5   21 1   
    12    6   22 1   
    13    7    8 1   
    14    7   23 1   
    15    7   24 1   
    16    8    9 1   
    17    8   12 1   
    18    8   13 1   
    19    9   17 1   
    20    9   25 1   
    21    9   26 1   
    22   10   11 1   
    23   10   17 1   
    24   10   27 1   
    25   10   28 1   
    26   11   14 1   
    27   11   15 1   
    28   11   16 1   
    29   12   29 1   
    30   12   30 1   
    31   12   31 1   
    32   13   32 1   
    33   13   33 1   
    34   13   34 1   
    35   17   35 1   
    36   17   36 1   
@<TRIPOS>SUBSTRUCTURE
     1 DMX         1 TEMP              0 ****  ****    0 ROOT
