@<TRIPOS>MOLECULE
DMX
   36    36     1     0     0
SMALL
bcc


@<TRIPOS>ATOM
      1 C1         -0.4790   -0.0950    0.3720 ca        1 DMX     -0.101000
      2 C2          0.8870    0.1200    0.1790 ca        1 DMX     -0.127000
      3 C3          1.7660    0.0260    1.2560 ca        1 DMX     -0.106000
      4 C4          1.2820   -0.2830    2.5320 ca        1 DMX     -0.148300
      5 C5         -0.0880   -0.4960    2.7230 ca        1 DMX     -0.106000
      6 C6         -0.9650   -0.4020    1.6430 ca        1 DMX     -0.127000
      7 C7          2.2110   -0.3130    3.7020 c3        1 DMX      0.169100
      8 N8          2.8290   -1.6640    3.9890 n4        1 DMX     -0.587800
      9 C9          3.7580   -1.4730    5.1680 c3        1 DMX      0.098800
     10 C10         4.2580   -2.9240    7.1370 c3        1 DMX     -0.306600
     11 S11         2.5700   -3.3690    7.5440 s6        1 DMX      1.434800
     12 C12         3.6000   -2.1350    2.8100 c3        1 DMX      0.070600
     13 C13         1.7470   -2.6420    4.3070 c3        1 DMX      0.070600
     14 O14         1.8570   -2.1620    7.2690 o         1 DMX     -0.744867
     15 O15         2.2470   -4.3540    6.5760 o         1 DMX     -0.744867
     16 O16         2.6040   -3.7760    8.8790 o         1 DMX     -0.744867
     17 C17         4.4840   -2.7240    5.6640 c3        1 DMX     -0.039400
     18 H1         -1.1730   -0.0190   -0.4790 ha        1 DMX      0.145000
     19 H2          1.2700    0.3670   -0.8220 ha        1 DMX      0.146500
     20 H3          2.8420    0.2050    1.1030 ha        1 DMX      0.142000
     21 H5         -0.4740   -0.7340    3.7280 ha        1 DMX      0.142000
     22 H6         -2.0420   -0.5680    1.7970 ha        1 DMX      0.146500
     23 H71         1.6540   -0.0100    4.6380 hx        1 DMX      0.099700
     24 H72         3.0570    0.4130    3.5310 hx        1 DMX      0.099700
     25 H91         4.5160   -0.7020    4.8540 hx        1 DMX      0.106700
     26 H92         3.1210   -1.0500    6.0090 hx        1 DMX      0.106700
     27 H101        4.5390   -2.0060    7.7050 h1        1 DMX      0.086200
     28 H102        4.9300   -3.7410    7.4970 h1        1 DMX      0.086200
     29 H121        4.0630   -3.1300    3.0450 hx        1 DMX      0.104200
     30 H122        2.9110   -2.2400    1.9310 hx        1 DMX      0.104200
     31 H123        4.4060   -1.3940    2.5690 hx        1 DMX      0.104200
     32 H131        2.1840   -3.6590    4.5230 hx        1 DMX      0.104200
     33 H132        1.2070   -2.3060    5.2420 hx        1 DMX      0.104200
     34 H133        1.0430   -2.6990    3.4380 hx        1 DMX      0.104200
     35 H171        4.1500   -3.6550    5.1300 hc        1 DMX      0.053200
     36 H172        5.5780   -2.5980    5.4490 hc        1 DMX      0.053200
@<TRIPOS>BOND
     1    1    2 ar  
     2    1    6 ar  
     3    1   18 1   
     4    2    3 ar  
     5    2   19 1   
     6    3    4 ar  
     7    3   20 1   
     8    4    5 ar  
     9    4    7 1   
    10    5    6 ar  
    11    5   21 1   
    12    6   22 1   
    13    7    8 1   
    14    7   23 1   
    15    7   24 1   
    16    8    9 1   
    17    8   12 1   
    18    8   13 1   
    19    9   17 1   
    20    9   25 1   
    21    9   26 1   
    22   10   11 1   
    23   10   17 1   
    24   10   27 1   
    25   10   28 1   
    26   11   14 1   
    27   11   15 1   
    28   11   16 1   
    29   12   29 1   
    30   12   30 1   
    31   12   31 1   
    32   13   32 1   
    33   13   33 1   
    34   13   34 1   
    35   17   35 1   
    36   17   36 1   
@<TRIPOS>SUBSTRUCTURE
     1 DMX         1 TEMP              0 ****  ****    0 ROOT
