@<TRIPOS>MOLECULE
DMX
   36    36     1     0     0
SMALL
bcc


@<TRIPOS>ATOM
      1 C1          5.9620   -0.0020    0.5920 ca        1 DMX     -0.095000
      2 C2          5.3180    1.2080    0.3250 ca        1 DMX     -0.123000
      3 C3          4.0320    1.2110   -0.2120 ca        1 DMX     -0.107000
      4 C4          3.3820    0.0010   -0.4830 ca        1 DMX     -0.155300
      5 C5          4.0320   -1.2100   -0.2180 ca        1 DMX     -0.107000
      6 C6          5.3180   -1.2100    0.3190 ca        1 DMX     -0.123000
      7 C7          2.0340    0.0030   -1.1250 c3        1 DMX      0.170100
      8 N8          0.8680    0.0010   -0.1640 n4        1 DMX     -0.606800
      9 C9         -0.4040    0.0030   -0.9920 c3        1 DMX      0.122800
     10 C10        -2.8710    0.0030   -1.0910 c3        1 DMX     -0.283600
     11 S11        -4.3700    0.0000   -0.0430 s6        1 DMX      1.437800
     12 C12         0.9120    1.2140    0.6970 c3        1 DMX      0.089100
     13 C13         0.9110   -1.2180    0.6900 c3        1 DMX      0.089100
     14 O14        -4.2020   -1.1820    0.7050 o         1 DMX     -0.736867
     15 O15        -4.2020    1.1790    0.7120 o         1 DMX     -0.736867
     16 O16        -5.4200    0.0030   -0.9670 o         1 DMX     -0.736867
     17 C17        -1.6880    0.0010   -0.1780 c3        1 DMX     -0.065400
     18 H1          6.9790   -0.0030    1.0140 ha        1 DMX      0.150000
     19 H2          5.8270    2.1610    0.5340 ha        1 DMX      0.150000
     20 H3          3.5320    2.1670   -0.4320 ha        1 DMX      0.138000
     21 H5          3.5320   -2.1650   -0.4430 ha        1 DMX      0.138000
     22 H6          5.8270   -2.1640    0.5230 ha        1 DMX      0.150000
     23 H71         1.9230   -0.9110   -1.7770 hx        1 DMX      0.095700
     24 H72         1.9230    0.9210   -1.7720 hx        1 DMX      0.095700
     25 H91        -0.3740    0.9220   -1.6430 hx        1 DMX      0.084700
     26 H92        -0.3740   -0.9120   -1.6480 hx        1 DMX      0.084700
     27 H101       -2.8950    0.9070   -1.7390 h1        1 DMX      0.071700
     28 H102       -2.8950   -0.8970   -1.7440 h1        1 DMX      0.071700
     29 H121        1.8970    1.2550    1.2330 hx        1 DMX      0.097533
     30 H122        0.7880    2.1260    0.0570 hx        1 DMX      0.097533
     31 H123        0.0750    1.1720    1.4460 hx        1 DMX      0.097533
     32 H131        0.0750   -1.1800    1.4400 hx        1 DMX      0.097533
     33 H132        0.7870   -2.1270    0.0450 hx        1 DMX      0.097533
     34 H133        1.8960   -1.2620    1.2260 hx        1 DMX      0.097533
     35 H171       -1.7460   -0.9120    0.4770 hc        1 DMX      0.076700
     36 H172       -1.7450    0.9100    0.4820 hc        1 DMX      0.076700
@<TRIPOS>BOND
     1    1    2 ar  
     2    1    6 ar  
     3    1   18 1   
     4    2    3 ar  
     5    2   19 1   
     6    3    4 ar  
     7    3   20 1   
     8    4    5 ar  
     9    4    7 1   
    10    5    6 ar  
    11    5   21 1   
    12    6   22 1   
    13    7    8 1   
    14    7   23 1   
    15    7   24 1   
    16    8    9 1   
    17    8   12 1   
    18    8   13 1   
    19    9   17 1   
    20    9   25 1   
    21    9   26 1   
    22   10   11 1   
    23   10   17 1   
    24   10   27 1   
    25   10   28 1   
    26   11   14 1   
    27   11   15 1   
    28   11   16 1   
    29   12   29 1   
    30   12   30 1   
    31   12   31 1   
    32   13   32 1   
    33   13   33 1   
    34   13   34 1   
    35   17   35 1   
    36   17   36 1   
@<TRIPOS>SUBSTRUCTURE
     1 DMX         1 TEMP              0 ****  ****    0 ROOT
