@<TRIPOS>MOLECULE
DMX
   36    36     1     0     0
SMALL
bcc


@<TRIPOS>ATOM
      1 C1         -0.4850   -0.0340    0.4040 ca        1 DMX     -0.101000
      2 C2          0.8830    0.1340    0.1870 ca        1 DMX     -0.127000
      3 C3          1.7770    0.0200    1.2500 ca        1 DMX     -0.106000
      4 C4          1.3040   -0.2630    2.5370 ca        1 DMX     -0.148300
      5 C5         -0.0690   -0.4280    2.7520 ca        1 DMX     -0.106000
      6 C6         -0.9600   -0.3140    1.6850 ca        1 DMX     -0.127000
      7 C7          2.2500   -0.3130    3.6910 c3        1 DMX      0.169100
      8 N8          2.8280   -1.6810    3.9800 n4        1 DMX     -0.587800
      9 C9          3.7810   -1.5120    5.1430 c3        1 DMX      0.098800
     10 C10         4.2640   -2.9630    7.1170 c3        1 DMX     -0.306600
     11 S11         2.5680   -3.3480    7.5540 s6        1 DMX      1.434800
     12 C12         3.5640   -2.1880    2.7940 c3        1 DMX      0.070600
     13 C13         1.7200   -2.6200    4.3240 c3        1 DMX      0.070600
     14 O14         1.8920   -2.1200    7.2790 o         1 DMX     -0.744867
     15 O15         2.1980   -4.3300    6.6000 o         1 DMX     -0.744867
     16 O16         2.6110   -3.7440    8.8920 o         1 DMX     -0.744867
     17 C17         4.4730   -2.7830    5.6390 c3        1 DMX     -0.039400
     18 H1         -1.1900    0.0580   -0.4370 ha        1 DMX      0.145000
     19 H2          1.2580    0.3600   -0.8230 ha        1 DMX      0.146500
     20 H3          2.8550    0.1620    1.0780 ha        1 DMX      0.142000
     21 H5         -0.4460   -0.6440    3.7650 ha        1 DMX      0.142000
     22 H6         -2.0390   -0.4430    1.8590 ha        1 DMX      0.146500
     23 H71         1.7200    0.0160    4.6340 hx        1 DMX      0.099700
     24 H72         3.1170    0.3820    3.5010 hx        1 DMX      0.099700
     25 H91         4.5590   -0.7690    4.8110 hx        1 DMX      0.106700
     26 H92         3.1730   -1.0610    5.9900 hx        1 DMX      0.106700
     27 H101        4.9140   -3.7990    7.4730 h1        1 DMX      0.086200
     28 H102        4.5840   -2.0500    7.6720 h1        1 DMX      0.086200
     29 H121        3.9980   -3.1960    3.0300 hx        1 DMX      0.104200
     30 H122        4.3900   -1.4760    2.5340 hx        1 DMX      0.104200
     31 H123        2.8580   -2.2760    1.9260 hx        1 DMX      0.104200
     32 H131        1.2060   -2.2590    5.2640 hx        1 DMX      0.104200
     33 H132        1.0000   -2.6610    3.4670 hx        1 DMX      0.104200
     34 H133        2.1260   -3.6490    4.5420 hx        1 DMX      0.104200
     35 H171        4.1000   -3.7070    5.1180 hc        1 DMX      0.053200
     36 H172        5.5670   -2.6940    5.4060 hc        1 DMX      0.053200
@<TRIPOS>BOND
     1    1    2 ar  
     2    1    6 ar  
     3    1   18 1   
     4    2    3 ar  
     5    2   19 1   
     6    3    4 ar  
     7    3   20 1   
     8    4    5 ar  
     9    4    7 1   
    10    5    6 ar  
    11    5   21 1   
    12    6   22 1   
    13    7    8 1   
    14    7   23 1   
    15    7   24 1   
    16    8    9 1   
    17    8   12 1   
    18    8   13 1   
    19    9   17 1   
    20    9   25 1   
    21    9   26 1   
    22   10   11 1   
    23   10   17 1   
    24   10   27 1   
    25   10   28 1   
    26   11   14 1   
    27   11   15 1   
    28   11   16 1   
    29   12   29 1   
    30   12   30 1   
    31   12   31 1   
    32   13   32 1   
    33   13   33 1   
    34   13   34 1   
    35   17   35 1   
    36   17   36 1   
@<TRIPOS>SUBSTRUCTURE
     1 DMX         1 TEMP              0 ****  ****    0 ROOT
