@<TRIPOS>MOLECULE
DMX
   36    32     1     0     0
SMALL
bcc


@<TRIPOS>ATOM
      1 C1         -2.3840    1.3350   -4.1630 c1        1 DMX     -0.055750
      2 C2         -0.9950    1.3350   -4.1630 c1        1 DMX     -0.055750
      3 C3         -0.2990    1.3350   -2.9580 c1        1 DMX     -0.055750
      4 C4         -0.9940    1.3350   -1.7530 c1        1 DMX     -0.114100
      5 C5         -2.3850    1.3350   -1.7550 c1        1 DMX     -0.056500
      6 C6         -3.0800    1.3350   -2.9600 c1        1 DMX     -0.055750
      7 C7         -0.2270    1.5050   -0.4220 c3        1 DMX      0.134900
      8 N8          0.0890    0.1820    0.1360 n4        1 DMX     -0.587800
      9 C9          0.8730    0.3450    1.3710 c3        1 DMX      0.098800
     10 C10         1.9580   -0.8690    3.2890 c3        1 DMX     -0.341100
     11 S11         2.2190   -2.4670    4.0470 s4        1 DMX      1.654500
     12 C12         0.8580   -0.5750   -0.8270 c3        1 DMX      0.070600
     13 C13        -1.1380   -0.5210    0.4330 c3        1 DMX      0.070600
     14 O14         0.8920   -3.1390    4.3230 os        1 DMX     -1.018000
     15 O15         3.1090   -3.3420    3.1930 o         1 DMX     -0.700900
     16 O16         3.0470   -2.3480    5.3090 o         1 DMX     -0.700900
     17 C17         1.1260   -1.0390    2.0080 c3        1 DMX     -0.039400
     18 H1         -2.8720    1.3350   -5.0080 ha        1 DMX      0.090250
     19 H2         -0.5080    1.3350   -5.0080 ha        1 DMX      0.090250
     20 H3          0.6770    1.3350   -2.9590 ha        1 DMX      0.090250
     21 H5         -2.8740    1.3350   -0.9100 ha        1 DMX      0.073500
     22 H6         -4.0560    1.3350   -2.9610 ha        1 DMX      0.090250
     23 H71        -0.7790    2.0010    0.2110 hx        1 DMX      0.099700
     24 H72         0.6020    1.9950   -0.5850 hx        1 DMX      0.099700
     25 H91         1.7280    0.7670    1.1600 hx        1 DMX      0.106700
     26 H92         0.3790    0.9060    1.9980 hx        1 DMX      0.106700
     27 H101        2.8200   -0.4700    3.0660 h1        1 DMX      0.086200
     28 H102        1.4810   -0.2870    3.9110 h1        1 DMX      0.086200
     29 H121        1.0740   -1.4510   -0.4540 hx        1 DMX      0.104200
     30 H122        1.6830   -0.0970   -1.0330 hx        1 DMX      0.104200
     31 H123        0.3350   -0.6890   -1.6430 hx        1 DMX      0.104200
     32 H131       -0.9320   -1.4370    0.7000 hx        1 DMX      0.104200
     33 H132       -1.7060   -0.5340   -0.3610 hx        1 DMX      0.104200
     34 H133       -1.6050   -0.0670    1.1600 hx        1 DMX      0.104200
     35 H171        1.6120   -1.6040    1.3770 hc        1 DMX      0.053200
     36 H172        0.2720   -1.4570    2.2280 hc        1 DMX      0.053200
@<TRIPOS>BOND
     1    1    6 3   
     2    1   18 1   
     3    2    3 3   
     4    2   19 1   
     5    3   20 1   
     6    4    5 3   
     7    4    7 1   
     8    5   21 1   
     9    6   22 1   
    10    7    8 1   
    11    7   23 1   
    12    7   24 1   
    13    8    9 1   
    14    8   12 1   
    15    8   13 1   
    16    9   17 1   
    17    9   25 1   
    18    9   26 1   
    19   10   11 1   
    20   10   17 1   
    21   10   27 1   
    22   10   28 1   
    23   11   15 1   
    24   11   16 1   
    25   12   29 1   
    26   12   30 1   
    27   12   31 1   
    28   13   32 1   
    29   13   33 1   
    30   13   34 1   
    31   17   35 1   
    32   17   36 1   
@<TRIPOS>SUBSTRUCTURE
     1 DMX         1 TEMP              0 ****  ****    0 ROOT
