@<TRIPOS>MOLECULE
DMY
   62    64     1     0     0
SMALL
bcc


@<TRIPOS>ATOM
      1 C1         -1.4260   -0.2160   10.0970 c         1 DMY      0.666900
      2 O1         -2.3060   -0.4630    9.2580 o         1 DMY     -0.594100
      3 N1         -0.1210    0.1050    9.7910 n         1 DMY     -0.457100
      4 C2          0.4030    0.2010    8.5050 cc        1 DMY     -0.031400
      5 C3         -0.2820   -0.0080    7.2600 cc        1 DMY     -0.151000
      6 C4          0.6610    0.2000    6.2320 cd        1 DMY     -0.183900
      7 N2          1.8920    0.5280    6.8140 na        1 DMY     -0.006100
      8 C5          1.7490    0.5310    8.1910 cd        1 DMY     -0.187300
      9 C6          3.1010    0.8130    6.1050 c3        1 DMY      0.019600
     10 C7          0.4720    0.1100    4.7680 c         1 DMY      0.712700
     11 O2          1.4080    0.3270    3.9690 o         1 DMY     -0.626100
     12 N3         -0.8020   -0.2290    4.3440 n         1 DMY     -0.433100
     13 C8         -1.1840   -0.3650    3.0150 cc        1 DMY     -0.020400
     14 C9         -0.3850   -0.1950    1.8340 cc        1 DMY     -0.150000
     15 C10        -1.2260   -0.4420    0.7280 cd        1 DMY     -0.187900
     16 N4         -2.5060   -0.7550    1.2010 na        1 DMY     -0.005100
     17 C11        -2.4960   -0.7130    2.5840 cd        1 DMY     -0.185300
     18 C12        -3.6420   -1.0690    0.3900 c3        1 DMY      0.018600
     19 C13        -0.8990   -0.3990   -0.7130 c         1 DMY      0.712700
     20 O3         -1.7560   -0.6400   -1.5910 o         1 DMY     -0.625100
     21 N5          0.4120   -0.0780   -1.0260 n         1 DMY     -0.435100
     22 C14         0.9180    0.0150   -2.3160 cc        1 DMY     -0.018400
     23 C15         0.2390   -0.2160   -3.5610 cc        1 DMY     -0.148000
     24 C16         1.1780    0.0050   -4.5890 cd        1 DMY     -0.187900
     25 N6          2.4020    0.3600   -4.0100 na        1 DMY     -0.008100
     26 C17         2.2590    0.3700   -2.6330 cd        1 DMY     -0.189300
     27 C18         3.6040    0.6650   -4.7220 c3        1 DMY      0.020600
     28 C19         0.9830   -0.0930   -6.0500 c         1 DMY      0.699700
     29 O4          1.8900    0.2030   -6.8620 o         1 DMY     -0.639100
     30 N7         -0.2400   -0.5650   -6.4870 n         1 DMY     -0.554900
     31 C20        -0.5800   -0.6020   -7.8820 c3        1 DMY      0.094000
     32 C21        -1.2140    0.6890   -8.4110 c3        1 DMY     -0.152700
     33 C22        -1.5720    0.5140   -9.8850 c2        1 DMY      0.610200
     34 N8         -2.8230    0.3700  -10.2040 n2        1 DMY     -0.843100
     35 N9         -0.4640    0.4550  -10.7530 nh        1 DMY     -0.969800
     36 H1         -1.6190   -0.2330   11.1960 h5        1 DMY      0.031200
     37 HN1         0.5140    0.2870   10.5330 hn        1 DMY      0.317500
     38 H3         -1.3320   -0.2760    7.1630 ha        1 DMY      0.182000
     39 H5          2.5830    0.7610    8.8530 h4        1 DMY      0.171000
     40 H61         3.3850   -0.0710    5.4710 h1        1 DMY      0.065033
     41 H62         2.9410    1.6920    5.4230 h1        1 DMY      0.065033
     42 H63         3.9210    1.0390    6.8350 h1        1 DMY      0.065033
     43 HN3        -1.5090   -0.3910    5.0250 hn        1 DMY      0.328500
     44 H9          0.6690    0.0750    1.8270 ha        1 DMY      0.181000
     45 H11        -3.3880   -0.9240    3.1730 h4        1 DMY      0.174000
     46 H121       -3.8670   -0.2070   -0.2950 h1        1 DMY      0.065367
     47 H122       -3.4150   -1.9680   -0.2470 h1        1 DMY      0.065367
     48 H123       -4.5270   -1.2790    1.0460 h1        1 DMY      0.065367
     49 HN5         1.0520    0.1050   -0.2860 hn        1 DMY      0.327500
     50 H15        -0.8050   -0.5060   -3.6610 ha        1 DMY      0.183000
     51 H17         3.0880    0.6190   -1.9710 h4        1 DMY      0.172000
     52 H181        3.8820   -0.2010   -5.3820 h1        1 DMY      0.064033
     53 H182        3.4370    1.5620   -5.3800 h1        1 DMY      0.064033
     54 H183        4.4310    0.8740   -3.9940 h1        1 DMY      0.064033
     55 HN7        -0.9820   -0.6540   -5.8320 hn        1 DMY      0.318500
     56 H201        0.3590   -0.8220   -8.4670 h1        1 DMY      0.070700
     57 H202       -1.3060   -1.4500   -8.0370 h1        1 DMY      0.070700
     58 H211       -2.1360    0.9380   -7.8230 hc        1 DMY      0.068200
     59 H212       -0.5000    1.5480   -8.2990 hc        1 DMY      0.068200
     60 HN8        -3.0300    0.2620  -11.1730 hn        1 DMY      0.380400
     61 HN91       -0.6220    0.6520  -11.7130 hn        1 DMY      0.402800
     62 HN92        0.3940    0.7970  -10.3910 hn        1 DMY      0.402800
@<TRIPOS>BOND
     1    1    2 2   
     2    1    3 1   
     3    1   36 1   
     4    3    4 1   
     5    3   37 1   
     6    4    5 1   
     7    4    8 2   
     8    5    6 2   
     9    5   38 1   
    10    6    7 1   
    11    6   10 1   
    12    7    8 1   
    13    7    9 1   
    14    8   39 1   
    15    9   40 1   
    16    9   41 1   
    17    9   42 1   
    18   10   11 2   
    19   10   12 1   
    20   12   13 1   
    21   12   43 1   
    22   13   14 1   
    23   13   17 2   
    24   14   15 2   
    25   14   44 1   
    26   15   16 1   
    27   15   19 1   
    28   16   17 1   
    29   16   18 1   
    30   17   45 1   
    31   18   46 1   
    32   18   47 1   
    33   18   48 1   
    34   19   20 2   
    35   19   21 1   
    36   21   22 1   
    37   21   49 1   
    38   22   23 1   
    39   22   26 2   
    40   23   24 2   
    41   23   50 1   
    42   24   25 1   
    43   24   28 1   
    44   25   26 1   
    45   25   27 1   
    46   26   51 1   
    47   27   52 1   
    48   27   53 1   
    49   27   54 1   
    50   28   29 2   
    51   28   30 1   
    52   30   31 1   
    53   30   55 1   
    54   31   32 1   
    55   31   56 1   
    56   31   57 1   
    57   32   33 1   
    58   32   58 1   
    59   32   59 1   
    60   33   34 2   
    61   33   35 1   
    62   34   60 1   
    63   35   61 1   
    64   35   62 1   
@<TRIPOS>SUBSTRUCTURE
     1 DMY         1 TEMP              0 ****  ****    0 ROOT
