@<TRIPOS>MOLECULE
DMY
   64    66     1     0     0
SMALL
bcc


@<TRIPOS>ATOM
      1 C1         -0.1640    0.2480   -0.1950 c         1 DMY      0.670900
      2 O1          1.0640    0.3510   -0.3430 o         1 DMY     -0.598100
      3 N1         -0.7820    0.0410    1.0230 ns        1 DMY     -0.460100
      4 C2         -0.1220   -0.0800    2.2400 cc        1 DMY     -0.022400
      5 C3          1.2920   -0.0160    2.4790 cc        1 DMY     -0.141000
      6 C4          1.4850   -0.1920    3.8660 cd        1 DMY     -0.205900
      7 N2          0.2330   -0.3590    4.4740 na        1 DMY     -0.004100
      8 C5         -0.7470   -0.2930    3.5010 cd        1 DMY     -0.169300
      9 C6          0.0040   -0.5640    5.8710 c3        1 DMY      0.018600
     10 C7          2.7490   -0.2080    4.6190 c         1 DMY      0.725700
     11 O2          2.7990   -0.3700    5.8580 o         1 DMY     -0.636100
     12 N3          3.9050   -0.0300    3.8630 ns        1 DMY     -0.444100
     13 C8          5.1880   -0.0140    4.3840 cc        1 DMY      0.004600
     14 C9          5.5960   -0.1660    5.7480 cc        1 DMY     -0.129000
     15 C10         7.0100   -0.0750    5.7730 cd        1 DMY     -0.235900
     16 N4          7.4670    0.1280    4.4600 na        1 DMY      0.000900
     17 C11         6.3780    0.1670    3.6140 cd        1 DMY     -0.150300
     18 C12         8.8330    0.2710    4.0640 c3        1 DMY      0.018600
     19 C13         7.9030   -0.1680    6.9220 c         1 DMY      0.739700
     20 O3          9.1480   -0.0750    6.8560 o         1 DMY     -0.648100
     21 N5          7.2790   -0.3750    8.1660 ns        1 DMY     -0.449100
     22 C14         7.9610   -0.4860    9.3550 cc        1 DMY      0.046600
     23 C15         9.3530   -0.4200    9.5880 cc        1 DMY     -0.152000
     24 C16         9.5600   -0.5950   11.0010 cd        1 DMY     -0.301900
     25 N6          8.2940   -0.7670   11.6130 na        1 DMY      0.043900
     26 C17         7.3340   -0.7030   10.6500 cd        1 DMY     -0.063300
     27 C18         8.0690   -0.9450   13.0200 c3        1 DMY     -0.013400
     28 C19        10.7780   -0.6170   11.7130 c         1 DMY      0.600700
     29 O4         11.0550   -0.7710   12.8990 o         1 DMY     -0.496100
     30 N7         12.0120   -0.4010   10.7870 ny        1 DMY     -0.678800
     31 C20        13.2840   -0.4220   11.5450 c3        1 DMY      0.101800
     32 C21        14.5210   -0.2140   10.6710 c3        1 DMY     -0.194700
     33 C22        15.7770   -0.2500   11.5180 c2        1 DMY      0.521200
     34 N8         15.9660   -0.4140   12.7670 n2        1 DMY     -0.676100
     35 N9         17.0260   -0.0500   10.7010 nz        1 DMY     -0.823600
     36 H1         -0.8860    0.3140   -1.0420 h5        1 DMY      0.044200
     37 HN1        -1.7730   -0.0300    1.0530 hn        1 DMY      0.324500
     38 H3          2.0460    0.1400    1.7090 ha        1 DMY      0.183000
     39 H5         -1.8050   -0.3980    3.7440 h4        1 DMY      0.180000
     40 H61        -1.0960   -0.6650    6.0620 h1        1 DMY      0.065367
     41 H62         0.4150    0.3050    6.4530 h1        1 DMY      0.065367
     42 H63         0.5370   -1.4950    6.2090 h1        1 DMY      0.065367
     43 HN3         3.8220    0.0950    2.8790 hn        1 DMY      0.338500
     44 H9          4.9170   -0.3220    6.5850 ha        1 DMY      0.184000
     45 H11         6.4870    0.3170    2.5370 h4        1 DMY      0.190000
     46 H121        8.8900    0.4210    2.9540 h1        1 DMY      0.065367
     47 H122        9.4090   -0.6490    4.3540 h1        1 DMY      0.065367
     48 H123        9.2890    1.1530    4.5910 h1        1 DMY      0.065367
     49 HN5         6.2840   -0.4470    8.1970 hn        1 DMY      0.351500
     50 H15        10.1090   -0.2660    8.8190 ha        1 DMY      0.185000
     51 H17         6.2650   -0.8070   10.8740 h4        1 DMY      0.217000
     52 H181        7.0300   -1.3370   13.1880 h1        1 DMY      0.091367
     53 H182        8.1870    0.0400   13.5490 h1        1 DMY      0.091367
     54 H183        8.8190   -1.6750   13.4330 h1        1 DMY      0.091367
     55 HN7        12.0010   -1.1400   10.0760 hn        1 DMY      0.460800
     56 H201       13.3400   -1.4190   12.0770 hx        1 DMY      0.125700
     57 H202       13.2170    0.3870   12.3330 hx        1 DMY      0.125700
     58 H211       14.5780   -1.0220    9.8880 hc        1 DMY      0.103700
     59 H212       14.4570    0.7790   10.1440 hc        1 DMY      0.103700
     60 HN8        15.2010   -0.5550   13.3950 hn        1 DMY      0.500400
     61 HN91       17.8720   -0.0780   11.2970 hn        1 DMY      0.484133
     62 HN92       16.9810    0.8620   10.2340 hn        1 DMY      0.484133
     63 H72        11.8890    0.4990   10.3100 hn        1 DMY      0.460800
     64 H93        17.0930   -0.7950    9.9990 hn        1 DMY      0.484133
@<TRIPOS>BOND
     1    1    2 2   
     2    1    3 1   
     3    1   36 1   
     4    3    4 1   
     5    3   37 1   
     6    4    5 1   
     7    4    8 2   
     8    5    6 2   
     9    5   38 1   
    10    6    7 1   
    11    6   10 1   
    12    7    8 1   
    13    7    9 1   
    14    8   39 1   
    15    9   40 1   
    16    9   41 1   
    17    9   42 1   
    18   10   11 2   
    19   10   12 1   
    20   12   13 1   
    21   12   43 1   
    22   13   14 1   
    23   13   17 2   
    24   14   15 2   
    25   14   44 1   
    26   15   16 1   
    27   15   19 1   
    28   16   17 1   
    29   16   18 1   
    30   17   45 1   
    31   18   46 1   
    32   18   47 1   
    33   18   48 1   
    34   19   20 2   
    35   19   21 1   
    36   21   22 1   
    37   21   49 1   
    38   22   23 1   
    39   22   26 2   
    40   23   24 2   
    41   23   50 1   
    42   24   25 1   
    43   24   28 1   
    44   25   26 1   
    45   25   27 1   
    46   26   51 1   
    47   27   52 1   
    48   27   53 1   
    49   27   54 1   
    50   28   29 2   
    51   28   30 1   
    52   30   31 1   
    53   30   55 1   
    54   30   63 1   
    55   31   32 1   
    56   31   56 1   
    57   31   57 1   
    58   32   33 1   
    59   32   58 1   
    60   32   59 1   
    61   33   34 2   
    62   33   35 1   
    63   34   60 1   
    64   35   61 1   
    65   35   62 1   
    66   35   64 1   
@<TRIPOS>SUBSTRUCTURE
     1 DMY         1 TEMP              0 ****  ****    0 ROOT
