@<TRIPOS>MOLECULE
DMY
   64    66     1     0     0
SMALL
bcc


@<TRIPOS>ATOM
      1 C1         -0.1600    0.2800   -0.1960 c         1 DMY      0.670900
      2 O1          1.0680    0.3770   -0.3440 o         1 DMY     -0.598100
      3 N1         -0.7790    0.0750    1.0220 n         1 DMY     -0.460100
      4 C2         -0.1200   -0.0500    2.2380 cc        1 DMY     -0.022400
      5 C3          1.2940    0.0050    2.4770 cc        1 DMY     -0.141000
      6 C4          1.4860   -0.1720    3.8650 cd        1 DMY     -0.205900
      7 N2          0.2340   -0.3330    4.4730 na        1 DMY     -0.004100
      8 C5         -0.7460   -0.2610    3.5000 cd        1 DMY     -0.169300
      9 C6          0.0030   -0.5370    5.8690 c3        1 DMY      0.018600
     10 C7          2.7500   -0.1960    4.6170 c         1 DMY      0.725700
     11 O2          2.7990   -0.3610    5.8560 o         1 DMY     -0.636100
     12 N3          3.9080   -0.0220    3.8620 n         1 DMY     -0.444100
     13 C8          5.1900   -0.0120    4.3830 cc        1 DMY      0.004600
     14 C9          5.5980   -0.1700    5.7460 cc        1 DMY     -0.129000
     15 C10         7.0120   -0.0850    5.7710 cd        1 DMY     -0.235900
     16 N4          7.4690    0.1200    4.4600 na        1 DMY      0.000900
     17 C11         6.3810    0.1660    3.6130 cd        1 DMY     -0.150300
     18 C12         8.8360    0.2590    4.0640 c3        1 DMY      0.018600
     19 C13         7.9040   -0.1820    6.9210 c         1 DMY      0.739700
     20 O3          9.1490   -0.0860    6.8560 o         1 DMY     -0.648100
     21 N5          7.2800   -0.3990    8.1630 n         1 DMY     -0.449100
     22 C14         7.9620   -0.5130    9.3520 cc        1 DMY      0.046600
     23 C15         9.3530   -0.4420    9.5870 cc        1 DMY     -0.152000
     24 C16         9.5600   -0.6250   10.9990 cd        1 DMY     -0.301900
     25 N6          8.2940   -0.8070   11.6080 na        1 DMY      0.043900
     26 C17         7.3340   -0.7420   10.6440 cd        1 DMY     -0.063300
     27 C18         8.0680   -0.9950   13.0140 c3        1 DMY     -0.013400
     28 C19        10.7770   -0.6430   11.7120 c         1 DMY      0.600700
     29 O4         11.0530   -0.8030   12.8980 o         1 DMY     -0.496100
     30 N7         12.0100   -0.4150   10.7880 n4        1 DMY     -0.678800
     31 C20        13.2810   -0.4270   11.5490 c3        1 DMY      0.101800
     32 C21        14.5180   -0.2070   10.6770 c3        1 DMY     -0.194700
     33 C22        15.7730   -0.2340   11.5260 c2        1 DMY      0.521200
     34 N8         15.9600   -0.3990   12.7750 n2        1 DMY     -0.676100
     35 N9         17.0210   -0.0210   10.7120 n4        1 DMY     -0.823600
     36 H1         -0.8820    0.3510   -1.0440 h5        1 DMY      0.044200
     37 HN1        -1.7710    0.0090    1.0510 hn        1 DMY      0.324500
     38 H3          2.0490    0.1570    1.7070 ha        1 DMY      0.183000
     39 H5         -1.8050   -0.3590    3.7420 h4        1 DMY      0.180000
     40 H61         0.4190    0.3300    6.4520 h1        1 DMY      0.065367
     41 H62         0.5310   -1.4700    6.2070 h1        1 DMY      0.065367
     42 H63        -1.0980   -0.6320    6.0600 h1        1 DMY      0.065367
     43 HN3         3.8240    0.1060    2.8780 hn        1 DMY      0.338500
     44 H9          4.9180   -0.3240    6.5830 ha        1 DMY      0.184000
     45 H11         6.4910    0.3170    2.5370 h4        1 DMY      0.190000
     46 H121        8.8940    0.4100    2.9540 h1        1 DMY      0.065367
     47 H122        9.2950    1.1380    4.5920 h1        1 DMY      0.065367
     48 H123        9.4090   -0.6640    4.3520 h1        1 DMY      0.065367
     49 HN5         6.2860   -0.4750    8.1920 hn        1 DMY      0.351500
     50 H15        10.1080   -0.2800    8.8190 ha        1 DMY      0.185000
     51 H17         6.2660   -0.8540   10.8670 h4        1 DMY      0.217000
     52 H181        7.0310   -1.3940   13.1780 h1        1 DMY      0.091367
     53 H182        8.8220   -1.7220   13.4240 h1        1 DMY      0.091367
     54 H183        8.1800   -0.0120   13.5490 h1        1 DMY      0.091367
     55 HN7        12.0070   -1.1530   10.0760 hn        1 DMY      0.460800
     56 H201       13.2060    0.3790   12.3390 hx        1 DMY      0.125700
     57 H202       13.3440   -1.4250   12.0780 hx        1 DMY      0.125700
     58 H211       14.5830   -1.0120    9.8930 hc        1 DMY      0.103700
     59 H212       14.4460    0.7870   10.1520 hc        1 DMY      0.103700
     60 HN8        15.1970   -0.5480   13.4020 hn        1 DMY      0.500400
     61 HN91       17.0950   -0.7650   10.0080 hn        1 DMY      0.484133
     62 HN92       17.8670   -0.0430   11.3090 hn        1 DMY      0.484133
     63 H72        11.8810    0.4850   10.3140 hn        1 DMY      0.460800
     64 H93        16.9690    0.8920   10.2460 hn        1 DMY      0.484133
@<TRIPOS>BOND
     1    1    2 2   
     2    1    3 1   
     3    1   36 1   
     4    3    4 1   
     5    3   37 1   
     6    4    5 1   
     7    4    8 2   
     8    5    6 2   
     9    5   38 1   
    10    6    7 1   
    11    6   10 1   
    12    7    8 1   
    13    7    9 1   
    14    8   39 1   
    15    9   40 1   
    16    9   41 1   
    17    9   42 1   
    18   10   11 2   
    19   10   12 1   
    20   12   13 1   
    21   12   43 1   
    22   13   14 1   
    23   13   17 2   
    24   14   15 2   
    25   14   44 1   
    26   15   16 1   
    27   15   19 1   
    28   16   17 1   
    29   16   18 1   
    30   17   45 1   
    31   18   46 1   
    32   18   47 1   
    33   18   48 1   
    34   19   20 2   
    35   19   21 1   
    36   21   22 1   
    37   21   49 1   
    38   22   23 1   
    39   22   26 2   
    40   23   24 2   
    41   23   50 1   
    42   24   25 1   
    43   24   28 1   
    44   25   26 1   
    45   25   27 1   
    46   26   51 1   
    47   27   52 1   
    48   27   53 1   
    49   27   54 1   
    50   28   29 2   
    51   28   30 1   
    52   30   31 1   
    53   30   55 1   
    54   30   63 1   
    55   31   32 1   
    56   31   56 1   
    57   31   57 1   
    58   32   33 1   
    59   32   58 1   
    60   32   59 1   
    61   33   34 2   
    62   33   35 1   
    63   34   60 1   
    64   35   61 1   
    65   35   62 1   
    66   35   64 1   
@<TRIPOS>SUBSTRUCTURE
     1 DMY         1 TEMP              0 ****  ****    0 ROOT
