@<TRIPOS>MOLECULE
DMY
   67    69     1     0     0
SMALL
bcc


@<TRIPOS>ATOM
      1 C1         -1.4100   -1.5310    0.8850 c         1 DMY      0.581900
      2 O1         -0.3380   -2.0680    1.0460 o         1 DMY     -0.386100
      3 N1         -1.8310   -0.4490    1.8850 n4        1 DMY     -0.542200
      4 C2         -0.7460    0.2300    2.5420 cc        1 DMY     -0.149400
      5 C3          0.3850   -0.3480    3.1880 cc        1 DMY     -0.034000
      6 C4          1.1670    0.7280    3.6850 cd        1 DMY     -0.265900
      7 N2          0.5160    1.9440    3.3480 na        1 DMY      0.051900
      8 C5         -0.6260    1.6580    2.6630 cd        1 DMY      0.000700
      9 C6          0.9810    3.2670    3.6850 c3        1 DMY     -0.022400
     10 C7          2.4100    0.7320    4.4230 c         1 DMY      0.595700
     11 O2          3.0190    1.6850    4.8850 o         1 DMY     -0.408100
     12 N3          3.0380   -0.6500    4.6780 n4        1 DMY     -0.504200
     13 C8          4.4650   -0.6270    4.8740 cc        1 DMY     -0.149400
     14 C9          5.1800   -0.5430    6.1070 cc        1 DMY     -0.040000
     15 C10         6.5610   -0.5710    5.7820 cd        1 DMY     -0.246900
     16 N4          6.6830   -0.6630    4.3700 na        1 DMY      0.053900
     17 C11         5.4380   -0.6960    3.8190 cd        1 DMY     -0.005300
     18 C12         7.9230   -0.7110    3.6340 c3        1 DMY     -0.025400
     19 C13         7.7500   -0.5020    6.6130 c         1 DMY      0.588700
     20 O3          8.9140   -0.4550    6.2440 o         1 DMY     -0.396100
     21 N5          7.5350   -0.4560    8.1310 n4        1 DMY     -0.496200
     22 C14         8.5900   -1.0760    8.8920 cc        1 DMY     -0.162400
     23 C15         9.7440   -0.4550    9.4640 cc        1 DMY     -0.032000
     24 C16        10.4660   -1.4760   10.1320 cd        1 DMY     -0.238900
     25 N6          9.7660   -2.7020    9.9630 na        1 DMY      0.059900
     26 C17         8.6460   -2.4730    9.2240 cd        1 DMY     -0.010300
     27 C18        10.1720   -3.9850   10.4870 c3        1 DMY     -0.029400
     28 C19        11.7120   -1.4620   10.8800 c         1 DMY      0.595700
     29 O4         12.2910   -2.4290   11.3530 o         1 DMY     -0.392100
     30 N7         12.3900   -0.1140   11.1230 n4        1 DMY     -0.668800
     31 C20        13.6370   -0.2770   11.9440 c3        1 DMY      0.101800
     32 C21        14.3650    1.0330   12.2490 c3        1 DMY     -0.192700
     33 C22        15.6080    0.7650   13.0860 c2        1 DMY      0.516200
     34 N8         16.1200   -0.3120   13.5320 n2        1 DMY     -0.653100
     35 N9         16.3580    2.0180   13.4410 n4        1 DMY     -0.820600
     36 H1         -2.1970   -1.7020    0.1080 hx        1 DMY      0.179200
     37 HN1        -2.4050    0.2490    1.3870 hn        1 DMY      0.484800
     38 H3          0.5980   -1.4160    3.2630 ha        1 DMY      0.187000
     39 H5         -1.3040    2.4450    2.2930 h4        1 DMY      0.242000
     40 H61         2.0040    3.4280    3.2440 h1        1 DMY      0.109700
     41 H62         1.0390    3.3700    4.8040 h1        1 DMY      0.109700
     42 H63         0.2700    4.0350    3.2730 h1        1 DMY      0.109700
     43 HN3         2.5970   -1.0440    5.5210 hn        1 DMY      0.474300
     44 H9          4.7390   -0.4620    7.1010 ha        1 DMY      0.181000
     45 H11         5.2820   -0.7700    2.7320 h4        1 DMY      0.235000
     46 H121        8.5050    0.2350    3.8180 h1        1 DMY      0.112033
     47 H122        7.7080   -0.8120    2.5340 h1        1 DMY      0.112033
     48 H123        8.5320   -1.5920    3.9790 h1        1 DMY      0.112033
     49 HN5         7.4720    0.5360    8.4080 hn        1 DMY      0.474300
     50 H15        10.0150    0.5980    9.3930 ha        1 DMY      0.183000
     51 H17         7.9420   -3.2790    8.9700 h4        1 DMY      0.231000
     52 H181        9.4080   -4.7650   10.2140 h1        1 DMY      0.117033
     53 H182       10.2600   -3.9240   11.6080 h1        1 DMY      0.117033
     54 H183       11.1720   -4.2700   10.0530 h1        1 DMY      0.117033
     55 HN7        12.6260    0.3080   10.2160 hn        1 DMY      0.469300
     56 H201       14.3190   -0.9780   11.3720 hx        1 DMY      0.137200
     57 H202       13.3320   -0.7860   12.9090 hx        1 DMY      0.137200
     58 H211       13.6860    1.7310   12.8150 hc        1 DMY      0.106200
     59 H212       14.6730    1.5380   11.2910 hc        1 DMY      0.106200
     60 HN8        15.7200   -1.2110   13.3660 hn        1 DMY      0.498400
     61 HN91       16.6580    2.4960   12.5830 hn        1 DMY      0.493133
     62 HN92       17.2020    1.7980   14.0070 hn        1 DMY      0.493133
     63 H12        -2.4280   -0.8920    2.6050 hn        1 DMY      0.484800
     64 H32         2.8270   -1.2660    3.8800 hn        1 DMY      0.474300
     65 H52         6.6470   -0.9190    8.3640 hn        1 DMY      0.474300
     66 H72        11.7320    0.5050   11.6120 hn        1 DMY      0.469300
     67 H93        15.7520    2.6390   13.9930 hn        1 DMY      0.493133
@<TRIPOS>BOND
     1    1    2 2   
     2    1    3 1   
     3    1   36 1   
     4    3    4 1   
     5    3   37 1   
     6    3   63 1   
     7    4    5 1   
     8    4    8 2   
     9    5    6 2   
    10    5   38 1   
    11    6    7 1   
    12    6   10 1   
    13    7    8 1   
    14    7    9 1   
    15    8   39 1   
    16    9   40 1   
    17    9   41 1   
    18    9   42 1   
    19   10   11 2   
    20   10   12 1   
    21   12   13 1   
    22   12   43 1   
    23   12   64 1   
    24   13   14 1   
    25   13   17 2   
    26   14   15 2   
    27   14   44 1   
    28   15   16 1   
    29   15   19 1   
    30   16   17 1   
    31   16   18 1   
    32   17   45 1   
    33   18   46 1   
    34   18   47 1   
    35   18   48 1   
    36   19   20 2   
    37   19   21 1   
    38   21   22 1   
    39   21   49 1   
    40   21   65 1   
    41   22   23 1   
    42   22   26 2   
    43   23   24 2   
    44   23   50 1   
    45   24   25 1   
    46   24   28 1   
    47   25   26 1   
    48   25   27 1   
    49   26   51 1   
    50   27   52 1   
    51   27   53 1   
    52   27   54 1   
    53   28   29 2   
    54   28   30 1   
    55   30   31 1   
    56   30   55 1   
    57   30   66 1   
    58   31   32 1   
    59   31   56 1   
    60   31   57 1   
    61   32   33 1   
    62   32   58 1   
    63   32   59 1   
    64   33   34 2   
    65   33   35 1   
    66   34   60 1   
    67   35   61 1   
    68   35   62 1   
    69   35   67 1   
@<TRIPOS>SUBSTRUCTURE
     1 DMY         1 TEMP              0 ****  ****    0 ROOT
