@<TRIPOS>MOLECULE
DMZ
   40    33     1     0     0
SMALL
bcc


@<TRIPOS>ATOM
      1 C18        -1.6790   -3.6570   -1.3780 c1        1 DMZ     -0.054833
      2 C19        -1.7340   -3.8080   -2.7650 c1        1 DMZ      0.031900
      3 C20        -0.8810   -3.0700   -3.5790 c1        1 DMZ     -0.104500
      4 C21         0.0240   -2.1860   -3.0130 c1        1 DMZ      0.053500
      5 C16         0.0790   -2.0340   -1.6170 c1        1 DMZ     -0.382400
      6 C17        -0.7670   -2.7660   -0.8090 c1        1 DMZ     -0.054833
      7 C41        -2.7020   -4.8160   -3.3870 c3        1 DMZ     -0.105000
      8 S2          1.3260   -0.9830   -0.8840 s4        1 DMZ      1.616200
      9 O3          2.3450   -0.6500   -1.8300 o         1 DMZ     -0.536400
     10 O4          2.0850   -1.6890    0.1060 o         1 DMZ     -0.536400
     11 N6          0.5390    0.5540   -0.1630 n2        1 DMZ     -1.166900
     12 C31        -0.2420    1.3600   -1.3540 c3        1 DMZ      0.184100
     13 C22         1.7510    1.5500    0.4710 ce        1 DMZ      0.377700
     14 C23         2.9740    1.7560   -0.0750 cg        1 DMZ     -0.222200
     15 C24         3.6120    2.7310    0.6610 ch        1 DMZ     -0.120000
     16 N7          2.7740    3.1210    1.6600 nf        1 DMZ     -0.280100
     17 N8          1.6220    2.3970    1.5520 nh        1 DMZ      0.101600
     18 C25         0.5730    2.4400    2.4080 c1        1 DMZ     -0.003300
     19 C30        -0.6110    3.0380    2.0140 c1        1 DMZ     -0.054833
     20 C29        -1.6280    3.2510    2.9440 c1        1 DMZ     -0.054833
     21 C28        -1.4520    2.8620    4.2680 c1        1 DMZ     -0.054833
     22 C27        -0.2630    2.2610    4.6650 c1        1 DMZ     -0.054833
     23 C26         0.7480    2.0490    3.7430 c1        1 DMZ     -0.068500
     24 H18        -2.2810   -4.1780   -0.8040 ha        1 DMZ      0.086667
     25 H20        -0.9200   -3.1790   -4.5770 ha        1 DMZ      0.086500
     26 H21         0.6270   -1.6640   -3.5890 ha        1 DMZ      0.097500
     27 H17        -0.7280   -2.6590    0.1780 ha        1 DMZ      0.086667
     28 H411       -2.9000   -4.5520   -4.3170 hc        1 DMZ      0.055033
     29 H412       -2.2940   -5.7090   -3.3810 hc        1 DMZ      0.055033
     30 H413       -3.5320   -4.8330   -2.8700 hc        1 DMZ      0.055033
     31 H311        0.3760    1.5100   -2.1120 h1        1 DMZ      0.046367
     32 H312       -1.0200    0.8260   -1.6620 h1        1 DMZ      0.046367
     33 H313       -0.5530    2.2200   -1.0130 h1        1 DMZ      0.046367
     34 H23         3.3370    1.2970   -0.8500 DU        1 DMZ      0.182500
     35 H24         4.5010    3.0790    0.4970 DU        1 DMZ      0.182500
     36 H30        -0.7340    3.3090    1.0920 ha        1 DMZ      0.086667
     37 H29        -2.4690    3.6760    2.6640 ha        1 DMZ      0.086667
     38 H28        -2.1700    3.0130    4.9240 ha        1 DMZ      0.086667
     39 H27        -0.1390    1.9860    5.6050 ha        1 DMZ      0.086667
     40 H26         1.5930    1.6220    4.0270 ha        1 DMZ      0.115500
@<TRIPOS>BOND
     1    1    6 3   
     2    1   24 1   
     3    2    3 3   
     4    2    7 1   
     5    3   25 1   
     6    4    5 3   
     7    4   26 1   
     8    5    8 1   
     9    6   27 1   
    10    7   28 1   
    11    7   29 1   
    12    7   30 1   
    13    8    9 1   
    14    8   10 1   
    15   11   12 1   
    16   11   13 2   
    17   12   31 1   
    18   12   32 1   
    19   12   33 1   
    20   13   14 1   
    21   13   17 1   
    22   14   15 3   
    23   15   16 1   
    24   16   17 2   
    25   17   18 1   
    26   18   23 3   
    27   19   20 3   
    28   19   36 1   
    29   20   37 1   
    30   21   22 3   
    31   21   38 1   
    32   22   39 1   
    33   23   40 1   
@<TRIPOS>SUBSTRUCTURE
     1 DMZ         1 TEMP              0 ****  ****    0 ROOT
