@<TRIPOS>MOLECULE
DMZ
   40    42     1     0     0
SMALL
bcc


@<TRIPOS>ATOM
      1 C18        -0.8010    0.5080   -4.4420 ca        1 DMZ     -0.162500
      2 C19         0.2030   -0.3940   -4.8180 ca        1 DMZ     -0.006300
      3 C20         0.7810   -1.2170   -3.8440 ca        1 DMZ     -0.162500
      4 C21         0.3630   -1.1340   -2.5190 ca        1 DMZ     -0.007000
      5 C16        -0.6350   -0.2300   -2.1330 ca        1 DMZ     -0.396500
      6 C17        -1.2120    0.5840   -3.1160 ca        1 DMZ     -0.007000
      7 C41         0.6330   -0.4890   -6.2320 c3        1 DMZ     -0.068800
      8 S2         -1.1670   -0.1650   -0.5390 sy        1 DMZ      1.509200
      9 O3         -0.8880   -1.3950    0.0840 o         1 DMZ     -0.642300
     10 O4         -2.5140    0.2600   -0.5330 o         1 DMZ     -0.642300
     11 N6         -0.2450    1.0370    0.1220 nh        1 DMZ     -0.653900
     12 C31        -0.6600    2.4140    0.0880 c3        1 DMZ      0.204100
     13 C22         1.0410    0.7980    0.6100 cc        1 DMZ      0.094300
     14 C23         2.2870    0.9710   -0.0370 cd        1 DMZ     -0.281300
     15 C24         3.2670    0.5680    0.9330 cd        1 DMZ      0.290200
     16 N7          2.6660    0.1830    2.0890 nc        1 DMZ     -0.485800
     17 N8          1.3460    0.3370    1.9280 na        1 DMZ      0.165300
     18 C25         0.4010   -0.0380    2.9320 ca        1 DMZ      0.008800
     19 C30         0.4710   -1.3130    3.5280 ca        1 DMZ     -0.108500
     20 C29        -0.4490   -1.6630    4.5130 ca        1 DMZ     -0.123500
     21 C28        -1.4370   -0.7650    4.9140 ca        1 DMZ     -0.120000
     22 C27        -1.5020    0.4990    4.3290 ca        1 DMZ     -0.123500
     23 C26        -0.5890    0.8740    3.3470 ca        1 DMZ     -0.108500
     24 H18        -1.2680    1.1550   -5.2000 ha        1 DMZ      0.141500
     25 H20         1.5660   -1.9330   -4.1280 ha        1 DMZ      0.141500
     26 H21         0.8130   -1.7980   -1.7590 ha        1 DMZ      0.154000
     27 H17        -2.0180    1.2830   -2.8300 ha        1 DMZ      0.154000
     28 H411       -0.0010   -1.2400   -6.7680 hc        1 DMZ      0.054033
     29 H412        0.5250    0.4950   -6.7510 hc        1 DMZ      0.054033
     30 H413        1.7000   -0.8150   -6.3060 hc        1 DMZ      0.054033
     31 H311       -0.4410    2.9200    1.0650 h1        1 DMZ      0.051033
     32 H312       -0.1190    2.9720   -0.7240 h1        1 DMZ      0.051033
     33 H313       -1.7680    2.4610   -0.1020 h1        1 DMZ      0.051033
     34 H23         2.4610    1.3280   -1.0450 ha        1 DMZ      0.170000
     35 H24         4.3510    0.5530    0.8200 h4        1 DMZ      0.045100
     36 H30         1.2420   -2.0350    3.2170 ha        1 DMZ      0.147500
     37 H29        -0.3950   -2.6620    4.9720 ha        1 DMZ      0.138000
     38 H28        -2.1630   -1.0520    5.6880 ha        1 DMZ      0.136000
     39 H27        -2.2800    1.2120    4.6440 ha        1 DMZ      0.138000
     40 H26        -0.6490    1.8790    2.9040 ha        1 DMZ      0.147500
@<TRIPOS>BOND
     1    1    2 ar  
     2    1    6 ar  
     3    1   24 1   
     4    2    3 ar  
     5    2    7 1   
     6    3    4 ar  
     7    3   25 1   
     8    4    5 ar  
     9    4   26 1   
    10    5    6 ar  
    11    5    8 1   
    12    6   27 1   
    13    7   28 1   
    14    7   29 1   
    15    7   30 1   
    16    8    9 2   
    17    8   10 2   
    18    8   11 1   
    19   11   12 1   
    20   11   13 1   
    21   12   31 1   
    22   12   32 1   
    23   12   33 1   
    24   13   14 2   
    25   13   17 1   
    26   14   15 1   
    27   14   34 1   
    28   15   16 2   
    29   15   35 1   
    30   16   17 1   
    31   17   18 1   
    32   18   19 ar  
    33   18   23 ar  
    34   19   20 ar  
    35   19   36 1   
    36   20   21 ar  
    37   20   37 1   
    38   21   22 ar  
    39   21   38 1   
    40   22   23 ar  
    41   22   39 1   
    42   23   40 1   
@<TRIPOS>SUBSTRUCTURE
     1 DMZ         1 TEMP              0 ****  ****    0 ROOT
