@<TRIPOS>MOLECULE
DN
   21    21     1     0     0
SMALL
bcc


@<TRIPOS>ATOM
      1 OP3         2.7240    1.6010   -0.7230 o         1 DN      -0.934167
      2 P           1.6610    1.1140    0.2150 p5        1 DN       1.331900
      3 OP1         2.1080    0.4710    1.4980 o         1 DN      -0.934167
      4 OP2         0.4240    1.9810    0.3480 o         1 DN      -0.934167
      5 O5'         0.9560   -0.2260   -0.6400 os        1 DN      -0.564200
      6 C5'        -0.0030   -0.9000    0.0670 c3        1 DN       0.231400
      7 C4'        -1.4170   -0.5620   -0.4630 c3        1 DN       0.067100
      8 O4'        -2.2490   -1.7430   -0.3560 os        1 DN      -0.451600
      9 C3'        -2.1150    0.5730    0.3140 c3        1 DN       0.159100
     10 O3'        -2.2180    1.7460   -0.4620 oh        1 DN      -0.679800
     11 C2'        -3.5310    0.0510    0.6060 c3        1 DN      -0.123400
     12 C1'        -3.5180   -1.4130    0.1910 c3        1 DN       0.143400
     13 H5'         0.1390   -2.0140   -0.0710 h1        1 DN      -0.002300
     14 H5''        0.0600   -0.6630    1.1660 h1        1 DN      -0.002300
     15 H4'        -1.3590   -0.3050   -1.5540 h1        1 DN       0.056700
     16 H3'        -1.5590    0.8010    1.2650 h1        1 DN       0.087700
     17 HO3'       -1.3150    2.1430   -0.4490 ho        1 DN       0.499000
     18 H2'        -3.7740    0.1580    1.6900 hc        1 DN       0.028700
     19 H1'        -4.2930   -1.6300   -0.5920 h1        1 DN      -0.003800
     20 H1'2       -3.6900   -2.1000    1.0610 h1        1 DN      -0.003800
     21 H2'2       -4.2860    0.6300    0.0210 hc        1 DN       0.028700
@<TRIPOS>BOND
     1    1    2 1   
     2    2    3 1   
     3    2    4 1   
     4    2    5 1   
     5    5    6 1   
     6    6    7 1   
     7    6   13 1   
     8    6   14 1   
     9    7    8 1   
    10    7    9 1   
    11    7   15 1   
    12    8   12 1   
    13    9   10 1   
    14    9   11 1   
    15    9   16 1   
    16   10   17 1   
    17   11   12 1   
    18   11   18 1   
    19   11   21 1   
    20   12   19 1   
    21   12   20 1   
@<TRIPOS>SUBSTRUCTURE
     1 DN          1 TEMP              0 ****  ****    0 ROOT
