@<TRIPOS>MOLECULE
DN
   21    21     1     0     0
SMALL
bcc


@<TRIPOS>ATOM
      1 OP3        -3.8840   -2.5850    1.1390 o         1 DN      -0.934167
      2 P          -2.3720   -2.6280    0.9830 p5        1 DN       1.331900
      3 OP1        -1.7340   -2.8960    2.3240 o         1 DN      -0.934167
      4 OP2        -1.9910   -3.7390    0.0050 o         1 DN      -0.934167
      5 O5'        -1.8540   -1.2260    0.4200 os        1 DN      -0.564200
      6 C5'        -0.4550   -1.0090    0.3320 c3        1 DN       0.231400
      7 C4'        -0.1960    0.2990   -0.4020 c3        1 DN       0.067100
      8 O4'        -0.7530    1.2440    0.2020 os        1 DN      -0.451600
      9 C3'         1.4240    0.6440   -0.4120 c3        1 DN       0.159100
     10 O3'         2.0850   -0.0750   -1.5290 oh        1 DN      -0.679800
     11 C2'         1.5120    1.8510   -0.5810 c3        1 DN      -0.123400
     12 C1'         0.1730    2.4430   -0.0080 c3        1 DN       0.143400
     13 H5'        -0.0320   -1.7650   -0.1680 h1        1 DN      -0.002300
     14 H5''       -0.0610   -0.9580    1.2650 h1        1 DN      -0.002300
     15 H4'        -0.5330    0.2410   -1.3200 h1        1 DN       0.056700
     16 H3'         1.8260    0.3940    0.4310 h1        1 DN       0.087700
     17 HO3'        2.8610   -0.4520   -1.2320 ho        1 DN       0.499000
     18 H2'         1.5950    2.0580   -1.5410 hc        1 DN       0.028700
     19 H1'         0.3380    2.8900    0.8370 h1        1 DN      -0.003800
     20 H1'2       -0.2210    3.0640   -0.6490 h1        1 DN      -0.003800
     21 H2'2        2.2700    2.2050   -0.0940 hc        1 DN       0.028700
@<TRIPOS>BOND
     1    1    2 1   
     2    2    3 1   
     3    2    4 1   
     4    2    5 1   
     5    5    6 1   
     6    6    7 1   
     7    6   13 1   
     8    6   14 1   
     9    7    8 1   
    10    7    9 1   
    11    7   15 1   
    12    8   12 1   
    13    9   10 1   
    14    9   11 1   
    15    9   16 1   
    16   10   17 1   
    17   11   12 1   
    18   11   18 1   
    19   11   21 1   
    20   12   19 1   
    21   12   20 1   
@<TRIPOS>SUBSTRUCTURE
     1 DN          1 TEMP              0 ****  ****    0 ROOT
