@<TRIPOS>MOLECULE
DN1
   68    70     1     0     0
SMALL
bcc


@<TRIPOS>ATOM
      1 N1          0.0170    0.5320    3.2700 nh        1 DN1     -0.701600
      2 C2          0.3380   -0.8810    2.9590 c3        1 DN1      0.141200
      3 C1          0.8990   -1.0780    1.5260 c         1 DN1      0.678100
      4 O2          1.4560   -2.1680    1.2460 o         1 DN1     -0.672100
      5 N3          0.8000   -0.0840    0.5850 n         1 DN1     -0.533900
      6 C4          1.4310   -0.2120   -0.7060 c3        1 DN1      0.037700
      7 C5          2.8640    0.3660   -0.7520 c3        1 DN1     -0.093400
      8 C6          5.0070    0.2780   -2.0170 c3        1 DN1     -0.094600
      9 C7          4.2430   -1.7200   -0.7450 c3        1 DN1     -0.094600
     10 C8          3.8030   -0.5200   -1.5590 c3        1 DN1     -0.068700
     11 C9          0.6230    0.5270   -1.8060 c         1 DN1      0.647100
     12 O10         0.0730    1.6250   -1.5720 o         1 DN1     -0.633100
     13 N11         0.5700   -0.0730   -3.0370 n         1 DN1     -0.551900
     14 C12         0.1470    0.6080   -4.2460 c3        1 DN1      0.089700
     15 C13        -1.2490    0.1750   -4.7110 c3        1 DN1     -0.143400
     16 C14        -2.3340    0.5120   -3.6690 c3        1 DN1      0.384900
     17 F15        -3.4500    1.0910   -4.2460 f         1 DN1     -0.268300
     18 F16        -2.8810   -0.6170   -3.0910 f         1 DN1     -0.268300
     19 C17         1.1550    0.3680   -5.4030 c3        1 DN1     -0.003900
     20 C18         0.7440    1.1840   -6.6590 c         1 DN1      0.895600
     21 O19         0.9260    2.4280   -6.6510 o         1 DN1     -0.826300
     22 O20         0.2630    0.5170   -7.6210 o         1 DN1     -0.826300
     23 O21         1.2470   -1.0160   -5.6850 oh        1 DN1     -0.645800
     24 C22        -0.8680   -1.8290    3.1230 c3        1 DN1     -0.009100
     25 C23         1.4870   -1.3230    3.9450 c3        1 DN1     -0.036100
     26 C24         0.8630    0.9390    4.3250 ca        1 DN1      0.155600
     27 C25         1.7880   -0.0810    4.7130 ca        1 DN1     -0.147300
     28 C26         0.9160    2.1950    4.9380 ca        1 DN1     -0.152000
     29 C27         2.7550    0.1660    5.6660 ca        1 DN1     -0.099000
     30 C28         2.8120    1.4340    6.2610 ca        1 DN1     -0.190000
     31 C29         1.9020    2.4240    5.9020 ca        1 DN1     -0.111000
     32 C30        -2.0280   -1.4600    2.2910 cc        1 DN1     -0.158300
     33 C31        -2.1080   -1.7700    0.8900 cc        1 DN1     -0.154000
     34 C32        -3.2890   -1.3340    0.3380 cd        1 DN1     -0.199100
     35 S33        -4.2670   -0.6060    1.4830 ss        1 DN1     -0.003800
     36 C34        -3.1690   -0.8160    2.7370 cd        1 DN1     -0.108700
     37 C35        -3.4340   -0.3460    4.1460 c         1 DN1      0.931200
     38 O36        -2.5170    0.3050    4.7300 o         1 DN1     -0.827300
     39 O37        -4.5450   -0.6170    4.6770 o         1 DN1     -0.827300
     40 H1         -0.9710    0.6800    3.4540 hn        1 DN1      0.469800
     41 H3          0.3250    0.7690    0.7780 hn        1 DN1      0.351500
     42 H4          1.4800   -1.3200   -0.9410 h1        1 DN1      0.087700
     43 H5C1        3.2730    0.4720    0.2860 hc        1 DN1      0.056200
     44 H5C2        2.8330    1.3940   -1.2000 hc        1 DN1      0.056200
     45 H6C1        5.7190   -0.3830   -2.5670 hc        1 DN1      0.033367
     46 H6C2        4.6910    1.1050   -2.6980 hc        1 DN1      0.033367
     47 H6C3        5.5390    0.7220   -1.1410 hc        1 DN1      0.033367
     48 H7C1        4.9390   -1.4050    0.0700 hc        1 DN1      0.033367
     49 H7C2        3.3600   -2.2210   -0.2750 hc        1 DN1      0.033367
     50 H7C3        4.7730   -2.4550   -1.3970 hc        1 DN1      0.033367
     51 H8          3.2600   -0.8880   -2.4760 hc        1 DN1      0.054700
     52 H11         1.0240   -0.9470   -3.1760 hn        1 DN1      0.317500
     53 H12         0.1300    1.7220   -4.0460 h1        1 DN1      0.093700
     54 H13        -1.4700    0.7150   -5.6710 hc        1 DN1      0.087700
     55 H13D       -1.2610   -0.9240   -4.9250 hc        1 DN1      0.087700
     56 H14        -1.9260    1.1960   -2.8620 h2        1 DN1      0.096700
     57 H17         2.1820    0.6850   -5.0750 h1        1 DN1      0.051700
     58 H21         0.7340   -1.1710   -6.4970 ho        1 DN1      0.428000
     59 H221       -0.5200   -2.8630    2.8590 hc        1 DN1      0.068200
     60 H222       -1.1780   -1.8110    4.2060 hc        1 DN1      0.068200
     61 H231        1.1250   -2.1380    4.6190 hc        1 DN1      0.064200
     62 H232        2.3750   -1.7000    3.3820 hc        1 DN1      0.064200
     63 H26         0.1890    2.9770    4.6790 ha        1 DN1      0.143000
     64 H27         3.4660   -0.6170    5.9610 ha        1 DN1      0.114000
     65 H28         3.5780    1.6410    7.0200 ha        1 DN1      0.107000
     66 H29         1.9520    3.4090    6.3880 ha        1 DN1      0.110000
     67 H31        -1.3020   -2.2770    0.3560 ha        1 DN1      0.144000
     68 H32        -3.5610   -1.4150   -0.7130 h4        1 DN1      0.166000
@<TRIPOS>BOND
     1    1    2 1   
     2    1   26 1   
     3    1   40 1   
     4    2    3 1   
     5    2   24 1   
     6    2   25 1   
     7    3    4 2   
     8    3    5 1   
     9    5    6 1   
    10    5   41 1   
    11    6    7 1   
    12    6   11 1   
    13    6   42 1   
    14    7   10 1   
    15    7   43 1   
    16    7   44 1   
    17    8   10 1   
    18    8   45 1   
    19    8   46 1   
    20    8   47 1   
    21    9   10 1   
    22    9   48 1   
    23    9   49 1   
    24    9   50 1   
    25   10   51 1   
    26   11   12 2   
    27   11   13 1   
    28   13   14 1   
    29   13   52 1   
    30   14   15 1   
    31   14   19 1   
    32   14   53 1   
    33   15   16 1   
    34   15   54 1   
    35   15   55 1   
    36   16   17 1   
    37   16   18 1   
    38   16   56 1   
    39   19   20 1   
    40   19   23 1   
    41   19   57 1   
    42   20   21 1   
    43   20   22 1   
    44   23   58 1   
    45   24   32 1   
    46   24   59 1   
    47   24   60 1   
    48   25   27 1   
    49   25   61 1   
    50   25   62 1   
    51   26   27 ar  
    52   26   28 ar  
    53   27   29 ar  
    54   28   31 ar  
    55   28   63 1   
    56   29   30 ar  
    57   29   64 1   
    58   30   31 ar  
    59   30   65 1   
    60   31   66 1   
    61   32   33 1   
    62   32   36 2   
    63   33   34 2   
    64   33   67 1   
    65   34   35 1   
    66   34   68 1   
    67   35   36 1   
    68   36   37 1   
    69   37   38 1   
    70   37   39 1   
@<TRIPOS>SUBSTRUCTURE
     1 DN1         1 TEMP              0 ****  ****    0 ROOT
