@<TRIPOS>MOLECULE
DN1
   70    72     1     0     0
SMALL
bcc


@<TRIPOS>ATOM
      1 N1         -0.0580    0.1020    0.0470 nh        1 DN1     -0.708600
      2 C2          1.3390    0.1690   -0.4380 c3        1 DN1      0.143200
      3 C1          1.5800    1.3990   -1.3460 c         1 DN1      0.677100
      4 O2          2.6080    1.4650   -2.0610 o         1 DN1     -0.662100
      5 N3          0.6780    2.4410   -1.3600 n         1 DN1     -0.554900
      6 C4          0.9280    3.6600   -2.0810 c3        1 DN1      0.054700
      7 C5          0.0700    4.8360   -1.5880 c3        1 DN1     -0.092400
      8 C6         -0.5960    7.1890   -1.9920 c3        1 DN1     -0.096600
      9 C7          1.8030    6.6590   -1.6310 c3        1 DN1     -0.096600
     10 C8          0.4960    6.1590   -2.2090 c3        1 DN1     -0.072700
     11 C9          0.6300    3.4320   -3.5830 c         1 DN1      0.528100
     12 O10        -0.4370    3.6190   -4.1480 o         1 DN1     -0.434100
     13 N11         1.7560    2.8690   -4.3900 n4        1 DN1     -0.685800
     14 C12         2.2130    3.8220   -5.4770 c3        1 DN1      0.127500
     15 C13         2.9710    3.0750   -6.5670 c3        1 DN1     -0.169400
     16 C14         2.0290    2.2970   -7.5060 c3        1 DN1      0.387900
     17 F15         2.7240    1.5450   -8.4230 f         1 DN1     -0.256300
     18 F16         1.2970    1.3300   -6.8360 f         1 DN1     -0.256300
     19 C17         3.1000    4.9300   -4.8750 c3        1 DN1     -0.042900
     20 C18         3.3810    5.9640   -6.0300 c         1 DN1      0.908600
     21 O19         2.3910    6.6040   -6.4480 o         1 DN1     -0.777800
     22 O20         4.5720    5.9890   -6.4280 o         1 DN1     -0.777800
     23 O21         4.2680    4.3570   -4.3430 oh        1 DN1     -0.640800
     24 C22         1.8000   -1.0950   -1.1940 c3        1 DN1     -0.040100
     25 C23         2.2680    0.3770    0.8200 c3        1 DN1     -0.032100
     26 C24        -0.0170    0.2070    1.4660 ca        1 DN1      0.091600
     27 C25         1.3050    0.4220    1.9570 ca        1 DN1     -0.143300
     28 C26        -1.0990    0.1770    2.3450 ca        1 DN1     -0.134000
     29 C27         1.5330    0.6220    3.3040 ca        1 DN1     -0.086000
     30 C28         0.4410    0.6030    4.1820 ca        1 DN1     -0.148000
     31 C29        -0.8490    0.3810    3.7080 ca        1 DN1     -0.104000
     32 C30         1.0580   -1.3810   -2.4380 cc        1 DN1     -0.036300
     33 C31         1.3800   -0.7530   -3.6840 cc        1 DN1     -0.183000
     34 C32         0.5750   -1.2010   -4.7100 cd        1 DN1     -0.154100
     35 S33        -0.5070   -2.3430   -4.1940 ss        1 DN1      0.114200
     36 C34         0.0360   -2.3140   -2.6060 cd        1 DN1     -0.251700
     37 C35        -0.4980   -3.1570   -1.5430 c         1 DN1      0.678700
     38 O36        -0.7180   -4.4850   -1.7770 oh        1 DN1     -0.563100
     39 O37        -0.7880   -2.8130   -0.3940 o         1 DN1     -0.495000
     40 H1         -0.5510   -0.7090   -0.2790 hn        1 DN1      0.426800
     41 H3         -0.4160   -4.7250   -2.6650 ho        1 DN1      0.431000
     42 H4          2.0260    3.9380   -1.9780 h1        1 DN1      0.115700
     43 H5C1       -1.0070    4.6370   -1.8390 hc        1 DN1      0.072200
     44 H5C2        0.1600    4.9070   -0.4720 hc        1 DN1      0.072200
     45 H6C1       -0.2920    8.1640   -2.4470 hc        1 DN1      0.044700
     46 H6C2       -1.5490    6.8580   -2.4700 hc        1 DN1      0.044700
     47 H6C3       -0.7770    7.3460   -0.9020 hc        1 DN1      0.044700
     48 H7C1        1.7080    6.8290   -0.5310 hc        1 DN1      0.044700
     49 H7C2        2.0850    7.6250   -2.1160 hc        1 DN1      0.044700
     50 H7C3        2.6310    5.9310   -1.8070 hc        1 DN1      0.044700
     51 H8          0.6220    6.0150   -3.3210 hc        1 DN1      0.061700
     52 H11         1.4540    1.9830   -4.8160 hn        1 DN1      0.471800
     53 H12         1.2910    4.3180   -5.9100 hx        1 DN1      0.128700
     54 H13         3.7470    2.3920   -6.1360 hc        1 DN1      0.123700
     55 H13D        3.5220    3.8460   -7.1850 hc        1 DN1      0.123700
     56 H14         1.3230    3.0070   -8.0360 h2        1 DN1      0.095700
     57 H17         2.5660    5.4460   -4.0320 h1        1 DN1      0.058700
     58 H21         5.0150    4.6580   -4.8970 ho        1 DN1      0.456000
     59 H221        1.7080   -1.9690   -0.4920 hc        1 DN1      0.088200
     60 H222        2.8890   -0.9550   -1.4460 hc        1 DN1      0.088200
     61 H231        2.8580    1.3210    0.7290 hc        1 DN1      0.075200
     62 H232        2.9860   -0.4750    0.9230 hc        1 DN1      0.075200
     63 H26        -2.1210   -0.0080    1.9860 ha        1 DN1      0.146000
     64 H27         2.5500    0.7890    3.6860 ha        1 DN1      0.139000
     65 H28         0.6090    0.7600    5.2580 ha        1 DN1      0.137000
     66 H29        -1.6940    0.3610    4.4130 ha        1 DN1      0.137000
     67 H31         2.1970   -0.0320   -3.7790 ha        1 DN1      0.169000
     68 H32         0.6340   -0.8550   -5.7460 h4        1 DN1      0.195000
     69 H321       -0.1550    2.3950   -0.8170 hn        1 DN1      0.356500
     70 H112        2.5680    2.6790   -3.7730 hn        1 DN1      0.471800
@<TRIPOS>BOND
     1    1    2 1   
     2    1   26 1   
     3    1   40 1   
     4    2    3 1   
     5    2   24 1   
     6    2   25 1   
     7    3    4 2   
     8    3    5 1   
     9    5    6 1   
    10    5   69 1   
    11    6    7 1   
    12    6   11 1   
    13    6   42 1   
    14    7   10 1   
    15    7   43 1   
    16    7   44 1   
    17    8   10 1   
    18    8   45 1   
    19    8   46 1   
    20    8   47 1   
    21    9   10 1   
    22    9   48 1   
    23    9   49 1   
    24    9   50 1   
    25   10   51 1   
    26   11   12 2   
    27   11   13 1   
    28   13   14 1   
    29   13   52 1   
    30   13   70 1   
    31   14   15 1   
    32   14   19 1   
    33   14   53 1   
    34   15   16 1   
    35   15   54 1   
    36   15   55 1   
    37   16   17 1   
    38   16   18 1   
    39   16   56 1   
    40   19   20 1   
    41   19   23 1   
    42   19   57 1   
    43   20   21 1   
    44   20   22 1   
    45   23   58 1   
    46   24   32 1   
    47   24   59 1   
    48   24   60 1   
    49   25   27 1   
    50   25   61 1   
    51   25   62 1   
    52   26   27 ar  
    53   26   28 ar  
    54   27   29 ar  
    55   28   31 ar  
    56   28   63 1   
    57   29   30 ar  
    58   29   64 1   
    59   30   31 ar  
    60   30   65 1   
    61   31   66 1   
    62   32   33 1   
    63   32   36 2   
    64   33   34 2   
    65   33   67 1   
    66   34   35 1   
    67   34   68 1   
    68   35   36 1   
    69   36   37 1   
    70   37   38 1   
    71   37   39 2   
    72   38   41 1   
@<TRIPOS>SUBSTRUCTURE
     1 DN1         1 TEMP              0 ****  ****    0 ROOT
