@<TRIPOS>MOLECULE
DN1
   70    72     1     0     0
SMALL
bcc


@<TRIPOS>ATOM
      1 N1         -0.0820    0.1160    0.0450 nu        1 DN1     -0.708600
      2 C2          1.3230    0.1890   -0.4150 c3        1 DN1      0.143200
      3 C1          1.5700    1.4110   -1.3320 c         1 DN1      0.677100
      4 O2          2.6100    1.4780   -2.0280 o         1 DN1     -0.662100
      5 N3          0.6610    2.4450   -1.3730 ns        1 DN1     -0.554900
      6 C4          0.9140    3.6590   -2.1020 c3        1 DN1      0.054700
      7 C5          0.0380    4.8330   -1.6370 c3        1 DN1     -0.092400
      8 C6         -0.6380    7.1770   -2.0780 c3        1 DN1     -0.096600
      9 C7          1.7570    6.6690   -1.6680 c3        1 DN1     -0.096600
     10 C8          0.4650    6.1530   -2.2640 c3        1 DN1     -0.072700
     11 C9          0.6450    3.4130   -3.6060 c         1 DN1      0.528100
     12 O10        -0.4130    3.5860   -4.1930 o         1 DN1     -0.434100
     13 N11         1.7900    2.8510   -4.3870 ny        1 DN1     -0.685800
     14 C12         2.2590    3.7960   -5.4760 c3        1 DN1      0.127500
     15 C13         3.0420    3.0430   -6.5440 c3        1 DN1     -0.169400
     16 C14         2.1230    2.2480   -7.4910 c3        1 DN1      0.387900
     17 F15         2.8410    1.4920   -8.3880 f         1 DN1     -0.256300
     18 F16         1.3870    1.2820   -6.8240 f         1 DN1     -0.256300
     19 C17         3.1260    4.9170   -4.8690 c3        1 DN1     -0.042900
     20 C18         3.4200    5.9410   -6.0310 c         1 DN1      0.908600
     21 O19         2.4320    6.5680   -6.4730 o         1 DN1     -0.777800
     22 O20         4.6170    5.9710   -6.4070 o         1 DN1     -0.777800
     23 O21         4.2890    4.3590   -4.3110 oh        1 DN1     -0.640800
     24 C22         1.8080   -1.0790   -1.1490 c3        1 DN1     -0.040100
     25 C23         2.2270    0.4180    0.8580 c3        1 DN1     -0.032100
     26 C24        -0.0690    0.2360    1.4640 ca        1 DN1      0.091600
     27 C25         1.2420    0.4670    1.9760 ca        1 DN1     -0.143300
     28 C26        -1.1670    0.2070    2.3230 ca        1 DN1     -0.134000
     29 C27         1.4440    0.6830    3.3250 ca        1 DN1     -0.086000
     30 C28         0.3360    0.6640    4.1830 ca        1 DN1     -0.148000
     31 C29        -0.9430    0.4270    3.6870 ca        1 DN1     -0.104000
     32 C30         1.0900   -1.3840   -2.4030 cc        1 DN1     -0.036300
     33 C31         1.4300   -0.7670   -3.6500 cc        1 DN1     -0.183000
     34 C32         0.6470   -1.2320   -4.6860 cd        1 DN1     -0.154100
     35 S33        -0.4340   -2.3780   -4.1760 ss        1 DN1      0.114200
     36 C34         0.0800   -2.3270   -2.5790 cd        1 DN1     -0.251700
     37 C35        -0.4670   -3.1640   -1.5170 c         1 DN1      0.678700
     38 O36        -0.6720   -4.4960   -1.7410 oh        1 DN1     -0.563100
     39 O37        -0.7810   -2.8100   -0.3780 o         1 DN1     -0.495000
     40 H1         -0.5630   -0.7030   -0.2810 hn        1 DN1      0.426800
     41 H3         -0.1820    2.3990   -0.8440 hn        1 DN1      0.356500
     42 H4          2.0070    3.9470   -1.9830 h1        1 DN1      0.115700
     43 H5C1       -1.0330    4.6230   -1.9050 hc        1 DN1      0.072200
     44 H5C2        0.1070    4.9170   -0.5200 hc        1 DN1      0.072200
     45 H6C1       -1.5800    6.8330   -2.5690 hc        1 DN1      0.044700
     46 H6C2       -0.3350    8.1490   -2.5370 hc        1 DN1      0.044700
     47 H6C3       -0.8410    7.3440   -0.9930 hc        1 DN1      0.044700
     48 H7C1        2.0410    7.6330   -2.1580 hc        1 DN1      0.044700
     49 H7C2        1.6410    6.8500   -0.5720 hc        1 DN1      0.044700
     50 H7C3        2.5940    5.9460   -1.8220 hc        1 DN1      0.044700
     51 H8          0.6120    5.9980   -3.3720 hc        1 DN1      0.061700
     52 H11         2.5920    2.6740   -3.7530 hn        1 DN1      0.471800
     53 H12         1.3410    4.2790   -5.9310 hx        1 DN1      0.128700
     54 H13         3.8160    2.3710   -6.0920 hc        1 DN1      0.123700
     55 H13D        3.5980    3.8120   -7.1600 hc        1 DN1      0.123700
     56 H14         1.4210    2.9460   -8.0410 h2        1 DN1      0.095700
     57 H17         2.5720    5.4380   -4.0420 h1        1 DN1      0.058700
     58 H21         5.0430    4.6600   -4.8550 ho        1 DN1      0.456000
     59 H221        1.7090   -1.9470   -0.4390 hc        1 DN1      0.088200
     60 H222        2.8990   -0.9330   -1.3820 hc        1 DN1      0.088200
     61 H231        2.8110    1.3660    0.7680 hc        1 DN1      0.075200
     62 H232        2.9490   -0.4270    0.9830 hc        1 DN1      0.075200
     63 H26        -2.1800    0.0090    1.9470 ha        1 DN1      0.146000
     64 H27         2.4530    0.8630    3.7240 ha        1 DN1      0.139000
     65 H28         0.4830    0.8340    5.2600 ha        1 DN1      0.137000
     66 H29        -1.8010    0.4080    4.3770 ha        1 DN1      0.137000
     67 H31         2.2430   -0.0400   -3.7370 ha        1 DN1      0.169000
     68 H32         0.7230   -0.8970   -5.7240 h4        1 DN1      0.195000
     69 H321       -0.3520   -4.7430   -2.6200 ho        1 DN1      0.431000
     70 H112        1.5030    1.9580   -4.8090 hn        1 DN1      0.471800
@<TRIPOS>BOND
     1    1    2 1   
     2    1   26 1   
     3    1   40 1   
     4    2    3 1   
     5    2   24 1   
     6    2   25 1   
     7    3    4 2   
     8    3    5 1   
     9    5    6 1   
    10    5   41 1   
    11    6    7 1   
    12    6   11 1   
    13    6   42 1   
    14    7   10 1   
    15    7   43 1   
    16    7   44 1   
    17    8   10 1   
    18    8   45 1   
    19    8   46 1   
    20    8   47 1   
    21    9   10 1   
    22    9   48 1   
    23    9   49 1   
    24    9   50 1   
    25   10   51 1   
    26   11   12 2   
    27   11   13 1   
    28   13   14 1   
    29   13   52 1   
    30   13   70 1   
    31   14   15 1   
    32   14   19 1   
    33   14   53 1   
    34   15   16 1   
    35   15   54 1   
    36   15   55 1   
    37   16   17 1   
    38   16   18 1   
    39   16   56 1   
    40   19   20 1   
    41   19   23 1   
    42   19   57 1   
    43   20   21 1   
    44   20   22 1   
    45   23   58 1   
    46   24   32 1   
    47   24   59 1   
    48   24   60 1   
    49   25   27 1   
    50   25   61 1   
    51   25   62 1   
    52   26   27 ar  
    53   26   28 ar  
    54   27   29 ar  
    55   28   31 ar  
    56   28   63 1   
    57   29   30 ar  
    58   29   64 1   
    59   30   31 ar  
    60   30   65 1   
    61   31   66 1   
    62   32   33 1   
    63   32   36 2   
    64   33   34 2   
    65   33   67 1   
    66   34   35 1   
    67   34   68 1   
    68   35   36 1   
    69   36   37 1   
    70   37   38 1   
    71   37   39 2   
    72   38   69 1   
@<TRIPOS>SUBSTRUCTURE
     1 DN1         1 TEMP              0 ****  ****    0 ROOT
