@<TRIPOS>MOLECULE
DN1
   70    72     1     0     0
SMALL
bcc


@<TRIPOS>ATOM
      1 N1          0.0780    0.0320    0.4680 nh        1 DN1     -0.711600
      2 C2          1.3240   -0.0530   -0.3290 c3        1 DN1      0.140200
      3 C1          1.5420    1.2100   -1.1930 c         1 DN1      0.682100
      4 O2          2.6310    1.3950   -1.7860 o         1 DN1     -0.668100
      5 N3          0.5380    2.1430   -1.3400 n         1 DN1     -0.558900
      6 C4          0.7730    3.3650   -2.0620 c3        1 DN1      0.058700
      7 C5         -0.3780    4.3780   -1.9640 c3        1 DN1     -0.093400
      8 C6         -1.0890    6.6010   -2.8190 c3        1 DN1     -0.092600
      9 C7          0.7520    6.4620   -1.1550 c3        1 DN1     -0.092600
     10 C8          0.0890    5.7800   -2.3340 c3        1 DN1     -0.078700
     11 C9          0.9770    3.0070   -3.5570 c         1 DN1      0.537100
     12 O10         0.0920    2.6060   -4.3030 o         1 DN1     -0.454100
     13 N11         2.3770    3.0690   -4.0590 n4        1 DN1     -0.666800
     14 C12         2.4910    3.5660   -5.4860 c3        1 DN1      0.135500
     15 C13         3.9060    3.3510   -6.0100 c3        1 DN1     -0.163400
     16 C14         4.1410    1.8910   -6.4500 c3        1 DN1      0.385900
     17 F15         5.4700    1.6400   -6.7010 f         1 DN1     -0.252300
     18 F16         3.8570    0.9830   -5.4450 f         1 DN1     -0.252300
     19 C17         2.0780    5.0480   -5.5590 c3        1 DN1     -0.041900
     20 C18         2.2810    5.5440   -7.0400 c         1 DN1      0.911600
     21 O19         1.7440    4.8530   -7.9350 o         1 DN1     -0.778800
     22 O20         3.0000    6.5660   -7.1500 o         1 DN1     -0.778800
     23 O21         2.8250    5.7920   -4.6240 oh        1 DN1     -0.660800
     24 C22         1.4140   -1.2840   -1.2480 c3        1 DN1     -0.036100
     25 C23         2.5240   -0.0950    0.7010 c3        1 DN1     -0.031100
     26 C24         0.4430    0.0500    1.8420 ca        1 DN1      0.088600
     27 C25         1.8560    0.0280    2.0260 ca        1 DN1     -0.142300
     28 C26        -0.4130    0.1370    2.9400 ca        1 DN1     -0.135000
     29 C27         2.4020    0.1090    3.2930 ca        1 DN1     -0.087000
     30 C28         1.5390    0.2050    4.3930 ca        1 DN1     -0.147000
     31 C29         0.1580    0.2170    4.2150 ca        1 DN1     -0.105000
     32 C30         0.7420   -1.2610   -2.5660 cc        1 DN1     -0.055300
     33 C31         1.4590   -1.7680   -3.7040 cc        1 DN1     -0.161000
     34 C32         0.6780   -1.7960   -4.8390 cd        1 DN1     -0.160100
     35 S33        -0.8490   -1.2320   -4.5520 ss        1 DN1      0.132200
     36 C34        -0.5540   -0.9100   -2.9300 cd        1 DN1     -0.251700
     37 C35        -1.6050   -0.3670   -2.0760 c         1 DN1      0.677700
     38 O36        -2.0060    0.9280   -2.2730 oh        1 DN1     -0.586100
     39 O37        -2.2120   -0.9330   -1.1660 o         1 DN1     -0.478000
     40 H1         -0.5920   -0.6800    0.2460 hn        1 DN1      0.419800
     41 H3         -1.5680    1.3020   -3.0540 ho        1 DN1      0.439000
     42 H4          1.7180    3.8470   -1.6600 h1        1 DN1      0.094700
     43 H5C1       -0.7790    4.3880   -0.9150 hc        1 DN1      0.076200
     44 H5C2       -1.2130    4.0540   -2.6410 hc        1 DN1      0.076200
     45 H6C1       -0.7550    7.6390   -3.0580 hc        1 DN1      0.042867
     46 H6C2       -1.8820    6.6530   -2.0350 hc        1 DN1      0.042867
     47 H6C3       -1.5270    6.1500   -3.7420 hc        1 DN1      0.042867
     48 H7C1        1.6070    5.8540   -0.7720 hc        1 DN1      0.042867
     49 H7C2        0.0230    6.6090   -0.3220 hc        1 DN1      0.042867
     50 H7C3        1.1430    7.4620   -1.4640 hc        1 DN1      0.042867
     51 H8          0.8420    5.7130   -3.1740 hc        1 DN1      0.067700
     52 H11         2.9140    3.7190   -3.4680 hn        1 DN1      0.474300
     53 H12         1.7540    2.9830   -6.1180 hx        1 DN1      0.130700
     54 H13         4.6830    3.6660   -5.2680 hc        1 DN1      0.119700
     55 H13D        4.0360    4.0020   -6.9240 hc        1 DN1      0.119700
     56 H14         3.5180    1.6540   -7.3650 h2        1 DN1      0.095700
     57 H17         0.9920    5.1470   -5.2870 h1        1 DN1      0.057700
     58 H21         3.3150    6.4750   -5.1230 ho        1 DN1      0.462000
     59 H221        2.5140   -1.4540   -1.4360 hc        1 DN1      0.082700
     60 H222        1.0340   -2.1820   -0.6820 hc        1 DN1      0.082700
     61 H231        3.0800   -1.0620    0.6180 hc        1 DN1      0.077700
     62 H232        3.2430    0.7380    0.5060 hc        1 DN1      0.077700
     63 H26        -1.5050    0.1460    2.8130 ha        1 DN1      0.150000
     64 H27         3.4910    0.0960    3.4400 ha        1 DN1      0.139000
     65 H28         1.9610    0.2700    5.4070 ha        1 DN1      0.138000
     66 H29        -0.5040    0.2900    5.0920 ha        1 DN1      0.138000
     67 H31         2.5030   -2.0900   -3.6520 ha        1 DN1      0.170000
     68 H32         1.0110   -2.1490   -5.8170 h4        1 DN1      0.189000
     69 H321       -0.3610    2.0110   -0.9250 hn        1 DN1      0.366500
     70 H112        2.7970    2.1280   -3.9650 hn        1 DN1      0.474300
@<TRIPOS>BOND
     1    1    2 1   
     2    1   26 1   
     3    1   40 1   
     4    2    3 1   
     5    2   24 1   
     6    2   25 1   
     7    3    4 2   
     8    3    5 1   
     9    5    6 1   
    10    5   69 1   
    11    6    7 1   
    12    6   11 1   
    13    6   42 1   
    14    7   10 1   
    15    7   43 1   
    16    7   44 1   
    17    8   10 1   
    18    8   45 1   
    19    8   46 1   
    20    8   47 1   
    21    9   10 1   
    22    9   48 1   
    23    9   49 1   
    24    9   50 1   
    25   10   51 1   
    26   11   12 2   
    27   11   13 1   
    28   13   14 1   
    29   13   52 1   
    30   13   70 1   
    31   14   15 1   
    32   14   19 1   
    33   14   53 1   
    34   15   16 1   
    35   15   54 1   
    36   15   55 1   
    37   16   17 1   
    38   16   18 1   
    39   16   56 1   
    40   19   20 1   
    41   19   23 1   
    42   19   57 1   
    43   20   21 1   
    44   20   22 1   
    45   23   58 1   
    46   24   32 1   
    47   24   59 1   
    48   24   60 1   
    49   25   27 1   
    50   25   61 1   
    51   25   62 1   
    52   26   27 ar  
    53   26   28 ar  
    54   27   29 ar  
    55   28   31 ar  
    56   28   63 1   
    57   29   30 ar  
    58   29   64 1   
    59   30   31 ar  
    60   30   65 1   
    61   31   66 1   
    62   32   33 1   
    63   32   36 2   
    64   33   34 2   
    65   33   67 1   
    66   34   35 1   
    67   34   68 1   
    68   35   36 1   
    69   36   37 1   
    70   37   38 1   
    71   37   39 2   
    72   38   41 1   
@<TRIPOS>SUBSTRUCTURE
     1 DN1         1 TEMP              0 ****  ****    0 ROOT
